MODEL 1
REMARK VINA RESULT:      -7.3      0.000      0.000
REMARK  26 active torsions:
REMARK  status: ('A' for Active; 'I' for Inactive)
REMARK    1  A    between atoms: C2_2  and  C3_3 
REMARK    2  A    between atoms: C4_6  and  C5_7 
REMARK       I    between atoms: C5_7  and  N2_9 
REMARK    3  A    between atoms: N2_9  and  C6_10 
REMARK    4  A    between atoms: C6_10  and  C7_11 
REMARK    5  A    between atoms: C6_10  and  C8_13 
REMARK       I    between atoms: C7_11  and  N3_14 
REMARK    6  A    between atoms: N3_14  and  C9_15 
REMARK    7  A    between atoms: C9_15  and  C10_16 
REMARK    8  A    between atoms: C9_15  and  C11_18 
REMARK       I    between atoms: C10_16  and  N4_21 
REMARK    9  A    between atoms: C11_18  and  C12_19 
REMARK   10  A    between atoms: C11_18  and  C13_20 
REMARK   11  A    between atoms: N4_21  and  C14_22 
REMARK   12  A    between atoms: C14_22  and  C15_23 
REMARK   13  A    between atoms: C14_22  and  C16_25 
REMARK       I    between atoms: C15_23  and  N6_40 
REMARK   14  A    between atoms: C16_25  and  C17_26 
REMARK   15  A    between atoms: C17_26  and  C18_27 
REMARK   16  A    between atoms: C17_26  and  C19_28 
REMARK   17  A    between atoms: C20_29  and  C21_30 
REMARK   18  A    between atoms: C20_29  and  C24_33 
REMARK   19  A    between atoms: C20_29  and  N6_40 
REMARK   20  A    between atoms: C21_30  and  C22_31 
REMARK   21  A    between atoms: C22_31  and  C23_32 
REMARK   22  A    between atoms: C23_32  and  O8_43 
REMARK   23  A    between atoms: C24_33  and  C25_34 
REMARK   24  A    between atoms: C28_38  and  O6_39 
REMARK   25  A    between atoms: C29_42  and  O8_43 
REMARK   26  A    between atoms: C29_42  and  C35_49 
ROOT
ATOM      1  C14 non d ame     -30.807  14.502  23.584  0.00  0.00     0.089 C 
ATOM      2  H20 non d ame     -29.719  14.556  23.527  0.00  0.00     0.087 H 
ENDROOT
BRANCH   1   3
ATOM      3  N4  non d ame     -31.160  13.126  23.901  0.00  0.00    -0.346 N 
ATOM      4  C10 non d ame     -30.476  11.982  23.197  0.00  0.00     0.241 C 
ATOM      5  O4  non d ame     -29.645  12.193  22.376  0.00  0.00    -0.271 OA
ATOM      6  H19 non d ame     -31.871  12.968  24.601  0.00  0.00     0.163 HD
BRANCH   4   7
ATOM      7  C9  non d ame     -30.851  10.564  23.542  0.00  0.00     0.092 C 
ATOM      8  H11 non d ame     -30.406  10.299  24.501  0.00  0.00     0.088 H 
BRANCH   7   9
ATOM      9  N3  non d ame     -32.305  10.467  23.697  0.00  0.00    -0.346 N 
ATOM     10  C7  non d ame     -32.865   9.918  24.907  0.00  0.00     0.240 C 
ATOM     11  O3  non d ame     -32.160   9.548  25.765  0.00  0.00    -0.271 OA
ATOM     12  H10 non d ame     -32.926  10.780  22.964  0.00  0.00     0.163 HD
BRANCH  10  13
ATOM     13  C6  non d ame     -34.414   9.813  25.065  0.00  0.00     0.086 C 
ATOM     14  H6  non d ame     -34.712   9.368  26.014  0.00  0.00     0.086 H 
BRANCH  13  15
ATOM     15  N2  non d ame     -34.982  11.151  25.037  0.00  0.00    -0.343 N 
ATOM     16  C5  non d ame     -36.051  11.501  25.974  0.00  0.00     0.273 C 
ATOM     17  O2  non d ame     -36.449  10.698  26.745  0.00  0.00    -0.266 OA
ATOM     18  H5  non d ame     -34.637  11.830  24.373  0.00  0.00     0.163 HD
BRANCH  16  19
ATOM     19  C4  non d ame     -36.660  12.912  25.956  0.00  0.00     0.154 A 
ATOM     20  C1  non d ame     -36.680  13.831  24.860  0.00  0.00    -0.017 A 
ATOM     21  C2  non d ame     -37.349  14.972  25.355  0.00  0.00     0.077 A 
ATOM     22  H1  non d ame     -36.272  13.691  23.859  0.00  0.00     0.091 H 
ATOM     23  O1  non d ame     -37.672  14.727  26.591  0.00  0.00    -0.218 OA
ATOM     24  N1  non d ame     -37.280  13.531  26.965  0.00  0.00    -0.123 NA
BRANCH  21  25
ATOM     25  C3  non d ame     -37.640  16.253  24.583  0.00  0.00    -0.029 C 
ATOM     26  H2  non d ame     -38.714  16.348  24.428  0.00  0.00     0.036 H 
ATOM     27  H3  non d ame     -37.277  17.109  25.151  0.00  0.00     0.036 H 
ATOM     28  H4  non d ame     -37.135  16.217  23.617  0.00  0.00     0.036 H 
ENDBRANCH  21  25
ENDBRANCH  16  19
ENDBRANCH  13  15
BRANCH  13  29
ATOM     29  C8  non d ame     -34.982   8.987  23.939  0.00  0.00    -0.049 C 
ATOM     30  H7  non d ame     -34.447   8.039  23.878  0.00  0.00     0.030 H 
ATOM     31  H8  non d ame     -36.039   8.796  24.126  0.00  0.00     0.030 H 
ATOM     32  H9  non d ame     -34.871   9.528  22.999  0.00  0.00     0.030 H 
ENDBRANCH  13  29
ENDBRANCH  10  13
ENDBRANCH   7   9
BRANCH   7  33
ATOM     33  C11 non d ame     -30.389   9.613  22.399  0.00  0.00    -0.033 C 
ATOM     34  H12 non d ame     -30.181  10.228  21.523  0.00  0.00     0.042 H 
BRANCH  33  35
ATOM     35  C12 non d ame     -29.068   8.872  22.776  0.00  0.00    -0.071 C 
ATOM     36  H13 non d ame     -29.251   7.798  22.810  0.00  0.00     0.028 H 
ATOM     37  H14 non d ame     -28.305   9.087  22.028  0.00  0.00     0.028 H 
ATOM     38  H15 non d ame     -28.726   9.213  23.753  0.00  0.00     0.028 H 
ENDBRANCH  33  35
BRANCH  33  39
ATOM     39  C13 non d ame     -31.518   8.602  22.022  0.00  0.00    -0.071 C 
ATOM     40  H16 non d ame     -32.345   9.138  21.557  0.00  0.00     0.028 H 
ATOM     41  H17 non d ame     -31.125   7.861  21.325  0.00  0.00     0.028 H 
ATOM     42  H18 non d ame     -31.871   8.099  22.923  0.00  0.00     0.028 H 
ENDBRANCH  33  39
ENDBRANCH   7  33
ENDBRANCH   4   7
ENDBRANCH   1   3
BRANCH   1  43
ATOM     43  C15 non d ame     -31.384  15.430  24.691  0.00  0.00     0.240 C 
ATOM     44  O5  non d ame     -30.686  16.246  25.200  0.00  0.00    -0.271 OA
ATOM     45  N6  non d ame     -32.809  15.306  25.111  0.00  0.00    -0.355 N 
ATOM     46  H46 non d ame     -33.412  14.619  24.682  0.00  0.00     0.162 HD
BRANCH  45  47
ATOM     47  C20 non d ame     -33.343  16.196  26.164  0.00  0.00     0.013 C 
ATOM     48  H30 non d ame     -32.498  16.685  26.650  0.00  0.00     0.072 H 
BRANCH  47  49
ATOM     49  C21 non d ame     -34.113  15.373  27.171  0.00  0.00    -0.038 C 
ATOM     50  H31 non d ame     -35.164  15.610  27.003  0.00  0.00     0.036 H 
ATOM     51  H32 non d ame     -33.758  14.350  27.048  0.00  0.00     0.036 H 
BRANCH  49  52
ATOM     52  C22 non d ame     -33.804  15.770  28.631  0.00  0.00     0.018 C 
ATOM     53  H33 non d ame     -34.094  16.816  28.720  0.00  0.00     0.048 H 
ATOM     54  H34 non d ame     -34.289  15.015  29.251  0.00  0.00     0.048 H 
BRANCH  52  55
ATOM     55  C23 non d ame     -32.293  15.712  28.989  0.00  0.00     0.259 C 
ATOM     56  O7  non d ame     -31.861  16.358  29.888  0.00  0.00    -0.265 OA
BRANCH  55  57
ATOM     57  O8  non d ame     -31.427  14.884  28.222  0.00  0.00    -0.317 OA
BRANCH  57  58
ATOM     58  C29 non d ame     -30.730  13.900  28.992  0.00  0.00     0.052 C 
ATOM     59  H47 non d ame     -29.957  13.504  28.333  0.00  0.00     0.082 H 
ATOM     60  H48 non d ame     -30.452  14.394  29.922  0.00  0.00     0.082 H 
BRANCH  58  61
ATOM     61  C35 non d ame     -31.727  12.757  29.322  0.00  0.00    -0.034 A 
ATOM     62  C30 non d ame     -32.410  12.110  28.297  0.00  0.00    -0.075 A 
ATOM     63  C31 non d ame     -33.306  11.084  28.594  0.00  0.00    -0.082 A 
ATOM     64  H49 non d ame     -32.244  12.408  27.261  0.00  0.00     0.084 H 
ATOM     65  C32 non d ame     -33.519  10.707  29.922  0.00  0.00    -0.083 A 
ATOM     66  H50 non d ame     -33.838  10.578  27.788  0.00  0.00     0.083 H 
ATOM     67  C33 non d ame     -32.838  11.357  30.942  0.00  0.00    -0.082 A 
ATOM     68  H51 non d ame     -34.217   9.905  30.163  0.00  0.00     0.083 H 
ATOM     69  C34 non d ame     -31.940  12.382  30.650  0.00  0.00    -0.075 A 
ATOM     70  H52 non d ame     -33.009  11.062  31.978  0.00  0.00     0.083 H 
ATOM     71  H53 non d ame     -31.408  12.887  31.456  0.00  0.00     0.084 H 
ENDBRANCH  58  61
ENDBRANCH  57  58
ENDBRANCH  55  57
ENDBRANCH  52  55
ENDBRANCH  49  52
ENDBRANCH  47  49
BRANCH  47  72
ATOM     72  C24 non d ame     -34.270  17.237  25.539  0.00  0.00    -0.039 C 
ATOM     73  H35 non d ame     -34.230  17.054  24.465  0.00  0.00     0.036 H 
ATOM     74  H36 non d ame     -35.216  17.140  26.073  0.00  0.00     0.036 H 
BRANCH  72  75
ATOM     75  C25 non d ame     -33.739  18.728  25.785  0.00  0.00    -0.001 C 
ATOM     76  C26 non d ame     -32.488  18.708  26.852  0.00  0.00    -0.035 C 
ATOM     77  C27 non d ame     -32.739  19.605  27.835  0.00  0.00     0.085 C 
ATOM     78  H38 non d ame     -32.460  17.754  27.377  0.00  0.00     0.036 H 
ATOM     79  H39 non d ame     -31.586  19.096  26.378  0.00  0.00     0.036 H 
ATOM     80  N5  non d ame     -34.191  19.997  27.715  0.00  0.00    -0.049 N 
ATOM     81  H40 non d ame     -32.593  19.061  28.769  0.00  0.00     0.075 H 
ATOM     82  H41 non d ame     -32.117  20.470  27.606  0.00  0.00     0.075 H 
ATOM     83  C28 non d ame     -34.671  19.484  26.261  0.00  0.00     0.193 C 
ATOM     84  H42 non d ame     -34.689  19.473  28.421  0.00  0.00     0.280 HD
ATOM     85  H43 non d ame     -34.216  21.007  27.724  0.00  0.00     0.280 HD
ATOM     86  H44 non d ame     -34.795  20.188  25.439  0.00  0.00     0.129 H 
ATOM     87  H37 non d ame     -33.586  19.271  24.852  0.00  0.00     0.046 H 
BRANCH  83  88
ATOM     88  O6  non d ame     -35.919  18.798  26.368  0.00  0.00    -0.369 OA
ATOM     89  H45 non d ame     -35.771  17.916  26.719  0.00  0.00     0.212 HD
ENDBRANCH  83  88
ENDBRANCH  72  75
ENDBRANCH  47  72
ENDBRANCH  45  47
ENDBRANCH   1  43
BRANCH   1  90
ATOM     90  C16 non d ame     -31.412  14.872  22.240  0.00  0.00    -0.035 C 
ATOM     91  H21 non d ame     -31.529  13.930  21.706  0.00  0.00     0.037 H 
ATOM     92  H22 non d ame     -32.288  15.478  22.474  0.00  0.00     0.037 H 
BRANCH  90  93
ATOM     93  C17 non d ame     -30.482  15.765  21.358  0.00  0.00    -0.059 C 
ATOM     94  H23 non d ame     -30.784  16.802  21.503  0.00  0.00     0.038 H 
BRANCH  93  95
ATOM     95  C18 non d ame     -28.981  15.643  21.774  0.00  0.00    -0.073 C 
ATOM     96  H24 non d ame     -28.356  16.137  21.031  0.00  0.00     0.028 H 
ATOM     97  H25 non d ame     -28.833  16.118  22.744  0.00  0.00     0.028 H 
ATOM     98  H26 non d ame     -28.706  14.591  21.839  0.00  0.00     0.028 H 
ENDBRANCH  93  95
BRANCH  93  99
ATOM     99  C19 non d ame     -30.663  15.443  19.872  0.00  0.00    -0.073 C 
ATOM    100  H27 non d ame     -31.555  15.945  19.497  0.00  0.00     0.028 H 
ATOM    101  H28 non d ame     -29.791  15.788  19.316  0.00  0.00     0.028 H 
ATOM    102  H29 non d ame     -30.771  14.366  19.745  0.00  0.00     0.028 H 
ENDBRANCH  93  99
ENDBRANCH  90  93
ENDBRANCH   1  90
TORSDOF 26
ENDMDL
MODEL 2
REMARK VINA RESULT:      -7.2      1.471      2.073
REMARK  26 active torsions:
REMARK  status: ('A' for Active; 'I' for Inactive)
REMARK    1  A    between atoms: C2_2  and  C3_3 
REMARK    2  A    between atoms: C4_6  and  C5_7 
REMARK       I    between atoms: C5_7  and  N2_9 
REMARK    3  A    between atoms: N2_9  and  C6_10 
REMARK    4  A    between atoms: C6_10  and  C7_11 
REMARK    5  A    between atoms: C6_10  and  C8_13 
REMARK       I    between atoms: C7_11  and  N3_14 
REMARK    6  A    between atoms: N3_14  and  C9_15 
REMARK    7  A    between atoms: C9_15  and  C10_16 
REMARK    8  A    between atoms: C9_15  and  C11_18 
REMARK       I    between atoms: C10_16  and  N4_21 
REMARK    9  A    between atoms: C11_18  and  C12_19 
REMARK   10  A    between atoms: C11_18  and  C13_20 
REMARK   11  A    between atoms: N4_21  and  C14_22 
REMARK   12  A    between atoms: C14_22  and  C15_23 
REMARK   13  A    between atoms: C14_22  and  C16_25 
REMARK       I    between atoms: C15_23  and  N6_40 
REMARK   14  A    between atoms: C16_25  and  C17_26 
REMARK   15  A    between atoms: C17_26  and  C18_27 
REMARK   16  A    between atoms: C17_26  and  C19_28 
REMARK   17  A    between atoms: C20_29  and  C21_30 
REMARK   18  A    between atoms: C20_29  and  C24_33 
REMARK   19  A    between atoms: C20_29  and  N6_40 
REMARK   20  A    between atoms: C21_30  and  C22_31 
REMARK   21  A    between atoms: C22_31  and  C23_32 
REMARK   22  A    between atoms: C23_32  and  O8_43 
REMARK   23  A    between atoms: C24_33  and  C25_34 
REMARK   24  A    between atoms: C28_38  and  O6_39 
REMARK   25  A    between atoms: C29_42  and  O8_43 
REMARK   26  A    between atoms: C29_42  and  C35_49 
ROOT
ATOM      1  C14 non d ame     -30.678  14.287  23.807  0.00  0.00     0.089 C 
ATOM      2  H20 non d ame     -29.598  14.319  23.657  0.00  0.00     0.087 H 
ENDROOT
BRANCH   1   3
ATOM      3  N4  non d ame     -31.046  12.899  24.042  0.00  0.00    -0.346 N 
ATOM      4  C10 non d ame     -30.437  11.798  23.210  0.00  0.00     0.241 C 
ATOM      5  O4  non d ame     -29.655  12.054  22.356  0.00  0.00    -0.271 OA
ATOM      6  H19 non d ame     -31.716  12.702  24.772  0.00  0.00     0.163 HD
BRANCH   4   7
ATOM      7  C9  non d ame     -30.826  10.366  23.470  0.00  0.00     0.092 C 
ATOM      8  H11 non d ame     -30.277   9.997  24.336  0.00  0.00     0.088 H 
BRANCH   7   9
ATOM      9  N3  non d ame     -32.253  10.299  23.802  0.00  0.00    -0.346 N 
ATOM     10  C7  non d ame     -32.672  10.293  25.182  0.00  0.00     0.240 C 
ATOM     11  O3  non d ame     -31.876  10.339  26.038  0.00  0.00    -0.271 OA
ATOM     12  H10 non d ame     -32.952  10.257  23.074  0.00  0.00     0.163 HD
BRANCH  10  13
ATOM     13  C6  non d ame     -34.192  10.218  25.528  0.00  0.00     0.086 C 
ATOM     14  H6  non d ame     -34.374   9.957  26.570  0.00  0.00     0.086 H 
BRANCH  13  15
ATOM     15  N2  non d ame     -34.788  11.526  25.316  0.00  0.00    -0.343 N 
ATOM     16  C5  non d ame     -35.552  12.155  26.397  0.00  0.00     0.273 C 
ATOM     17  O2  non d ame     -35.682  11.598  27.431  0.00  0.00    -0.266 OA
ATOM     18  H5  non d ame     -34.674  11.994  24.428  0.00  0.00     0.163 HD
BRANCH  16  19
ATOM     19  C4  non d ame     -36.186  13.538  26.187  0.00  0.00     0.154 A 
ATOM     20  C1  non d ame     -35.792  14.536  25.240  0.00  0.00    -0.017 A 
ATOM     21  C2  non d ame     -36.685  15.610  25.451  0.00  0.00     0.077 A 
ATOM     22  H1  non d ame     -34.982  14.488  24.512  0.00  0.00     0.091 H 
ATOM     23  O1  non d ame     -37.494  15.260  26.407  0.00  0.00    -0.218 OA
ATOM     24  N1  non d ame     -37.223  14.055  26.853  0.00  0.00    -0.123 NA
BRANCH  21  25
ATOM     25  C3  non d ame     -36.698  16.933  24.696  0.00  0.00    -0.029 C 
ATOM     26  H2  non d ame     -37.314  16.836  23.802  0.00  0.00     0.036 H 
ATOM     27  H3  non d ame     -37.110  17.713  25.337  0.00  0.00     0.036 H 
ATOM     28  H4  non d ame     -35.681  17.199  24.410  0.00  0.00     0.036 H 
ENDBRANCH  21  25
ENDBRANCH  16  19
ENDBRANCH  13  15
BRANCH  13  29
ATOM     29  C8  non d ame     -34.862   9.196  24.645  0.00  0.00    -0.049 C 
ATOM     30  H7  non d ame     -34.330   8.247  24.720  0.00  0.00     0.030 H 
ATOM     31  H8  non d ame     -35.894   9.060  24.966  0.00  0.00     0.030 H 
ATOM     32  H9  non d ame     -34.845   9.541  23.611  0.00  0.00     0.030 H 
ENDBRANCH  13  29
ENDBRANCH  10  13
ENDBRANCH   7   9
BRANCH   7  33
ATOM     33  C11 non d ame     -30.552   9.515  22.196  0.00  0.00    -0.033 C 
ATOM     34  H12 non d ame     -30.500  10.198  21.349  0.00  0.00     0.042 H 
BRANCH  33  35
ATOM     35  C12 non d ame     -29.179   8.778  22.289  0.00  0.00    -0.071 C 
ATOM     36  H13 non d ame     -29.348   7.713  22.448  0.00  0.00     0.028 H 
ATOM     37  H14 non d ame     -28.625   8.925  21.363  0.00  0.00     0.028 H 
ATOM     38  H15 non d ame     -28.606   9.183  23.124  0.00  0.00     0.028 H 
ENDBRANCH  33  35
BRANCH  33  39
ATOM     39  C13 non d ame     -31.718   8.508  21.935  0.00  0.00    -0.071 C 
ATOM     40  H16 non d ame     -32.653   9.056  21.824  0.00  0.00     0.028 H 
ATOM     41  H17 non d ame     -31.515   7.946  21.022  0.00  0.00     0.028 H 
ATOM     42  H18 non d ame     -31.798   7.818  22.775  0.00  0.00     0.028 H 
ENDBRANCH  33  39
ENDBRANCH   7  33
ENDBRANCH   4   7
ENDBRANCH   1   3
BRANCH   1  43
ATOM     43  C15 non d ame     -31.126  15.132  25.034  0.00  0.00     0.240 C 
ATOM     44  O5  non d ame     -30.801  16.272  25.116  0.00  0.00    -0.271 OA
ATOM     45  N6  non d ame     -31.968  14.522  26.102  0.00  0.00    -0.355 N 
ATOM     46  H46 non d ame     -32.255  13.556  26.041  0.00  0.00     0.162 HD
BRANCH  45  47
ATOM     47  C20 non d ame     -32.387  15.340  27.261  0.00  0.00     0.013 C 
ATOM     48  H30 non d ame     -31.489  15.748  27.726  0.00  0.00     0.072 H 
BRANCH  47  49
ATOM     49  C21 non d ame     -33.128  14.466  28.247  0.00  0.00    -0.038 C 
ATOM     50  H31 non d ame     -33.914  15.095  28.666  0.00  0.00     0.036 H 
ATOM     51  H32 non d ame     -33.388  13.560  27.700  0.00  0.00     0.036 H 
BRANCH  49  52
ATOM     52  C22 non d ame     -32.246  14.021  29.435  0.00  0.00     0.018 C 
ATOM     53  H33 non d ame     -31.441  14.752  29.494  0.00  0.00     0.048 H 
ATOM     54  H34 non d ame     -32.928  13.891  30.276  0.00  0.00     0.048 H 
BRANCH  52  55
ATOM     55  C23 non d ame     -31.559  12.644  29.223  0.00  0.00     0.259 C 
ATOM     56  O7  non d ame     -30.771  12.491  28.347  0.00  0.00    -0.265 OA
BRANCH  55  57
ATOM     57  O8  non d ame     -31.893  11.560  30.081  0.00  0.00    -0.317 OA
BRANCH  57  58
ATOM     58  C29 non d ame     -32.854  10.655  29.530  0.00  0.00     0.052 C 
ATOM     59  H47 non d ame     -33.404  11.228  28.783  0.00  0.00     0.082 H 
ATOM     60  H48 non d ame     -32.291   9.771  29.232  0.00  0.00     0.082 H 
BRANCH  58  61
ATOM     61  C35 non d ame     -33.837  10.252  30.662  0.00  0.00    -0.034 A 
ATOM     62  C30 non d ame     -34.436   8.996  30.650  0.00  0.00    -0.075 A 
ATOM     63  C31 non d ame     -35.319   8.634  31.667  0.00  0.00    -0.082 A 
ATOM     64  H49 non d ame     -34.214   8.296  29.845  0.00  0.00     0.084 H 
ATOM     65  C32 non d ame     -35.604   9.535  32.696  0.00  0.00    -0.083 A 
ATOM     66  H50 non d ame     -35.785   7.649  31.656  0.00  0.00     0.083 H 
ATOM     67  C33 non d ame     -35.007  10.788  32.702  0.00  0.00    -0.082 A 
ATOM     68  H51 non d ame     -36.293   9.260  33.495  0.00  0.00     0.083 H 
ATOM     69  C34 non d ame     -34.122  11.153  31.689  0.00  0.00    -0.075 A 
ATOM     70  H52 non d ame     -35.234  11.489  33.505  0.00  0.00     0.083 H 
ATOM     71  H53 non d ame     -33.656  12.139  31.701  0.00  0.00     0.084 H 
ENDBRANCH  58  61
ENDBRANCH  57  58
ENDBRANCH  55  57
ENDBRANCH  52  55
ENDBRANCH  49  52
ENDBRANCH  47  49
BRANCH  47  72
ATOM     72  C24 non d ame     -33.302  16.470  26.793  0.00  0.00    -0.039 C 
ATOM     73  H35 non d ame     -32.746  16.987  26.010  0.00  0.00     0.036 H 
ATOM     74  H36 non d ame     -34.255  15.994  26.560  0.00  0.00     0.036 H 
BRANCH  72  75
ATOM     75  C25 non d ame     -33.576  17.532  27.960  0.00  0.00    -0.001 C 
ATOM     76  C26 non d ame     -35.185  17.861  28.050  0.00  0.00    -0.035 C 
ATOM     77  C27 non d ame     -35.358  19.204  28.025  0.00  0.00     0.085 C 
ATOM     78  H38 non d ame     -35.687  17.522  27.145  0.00  0.00     0.036 H 
ATOM     79  H39 non d ame     -35.571  17.573  29.028  0.00  0.00     0.036 H 
ATOM     80  N5  non d ame     -34.043  19.811  27.596  0.00  0.00    -0.049 N 
ATOM     81  H40 non d ame     -36.103  19.387  27.251  0.00  0.00     0.075 H 
ATOM     82  H41 non d ame     -35.561  19.491  29.056  0.00  0.00     0.075 H 
ATOM     83  C28 non d ame     -32.944  18.637  27.744  0.00  0.00     0.193 C 
ATOM     84  H42 non d ame     -34.140  20.040  26.618  0.00  0.00     0.280 HD
ATOM     85  H43 non d ame     -33.832  20.536  28.267  0.00  0.00     0.280 HD
ATOM     86  H44 non d ame     -32.247  18.634  28.581  0.00  0.00     0.129 H 
ATOM     87  H37 non d ame     -33.072  17.265  28.888  0.00  0.00     0.046 H 
BRANCH  83  88
ATOM     88  O6  non d ame     -32.132  18.573  26.570  0.00  0.00    -0.369 OA
ATOM     89  H45 non d ame     -31.929  19.463  26.272  0.00  0.00     0.212 HD
ENDBRANCH  83  88
ENDBRANCH  72  75
ENDBRANCH  47  72
ENDBRANCH  45  47
ENDBRANCH   1  43
BRANCH   1  90
ATOM     90  C16 non d ame     -31.386  14.784  22.557  0.00  0.00    -0.035 C 
ATOM     91  H21 non d ame     -31.660  13.886  22.004  0.00  0.00     0.037 H 
ATOM     92  H22 non d ame     -32.162  15.461  22.916  0.00  0.00     0.037 H 
BRANCH  90  93
ATOM     93  C17 non d ame     -30.471  15.623  21.610  0.00  0.00    -0.059 C 
ATOM     94  H23 non d ame     -30.757  16.670  21.716  0.00  0.00     0.038 H 
BRANCH  93  95
ATOM     95  C18 non d ame     -28.961  15.501  21.989  0.00  0.00    -0.073 C 
ATOM     96  H24 non d ame     -28.465  14.825  21.293  0.00  0.00     0.028 H 
ATOM     97  H25 non d ame     -28.492  16.483  21.937  0.00  0.00     0.028 H 
ATOM     98  H26 non d ame     -28.871  15.109  23.002  0.00  0.00     0.028 H 
ENDBRANCH  93  95
BRANCH  93  99
ATOM     99  C19 non d ame     -30.698  15.237  20.147  0.00  0.00    -0.073 C 
ATOM    100  H27 non d ame     -29.807  14.743  19.758  0.00  0.00     0.028 H 
ATOM    101  H28 non d ame     -31.548  14.557  20.077  0.00  0.00     0.028 H 
ATOM    102  H29 non d ame     -30.902  16.133  19.561  0.00  0.00     0.028 H 
ENDBRANCH  93  99
ENDBRANCH  90  93
ENDBRANCH   1  90
TORSDOF 26
ENDMDL
MODEL 3
REMARK VINA RESULT:      -7.1      1.668      2.714
REMARK  26 active torsions:
REMARK  status: ('A' for Active; 'I' for Inactive)
REMARK    1  A    between atoms: C2_2  and  C3_3 
REMARK    2  A    between atoms: C4_6  and  C5_7 
REMARK       I    between atoms: C5_7  and  N2_9 
REMARK    3  A    between atoms: N2_9  and  C6_10 
REMARK    4  A    between atoms: C6_10  and  C7_11 
REMARK    5  A    between atoms: C6_10  and  C8_13 
REMARK       I    between atoms: C7_11  and  N3_14 
REMARK    6  A    between atoms: N3_14  and  C9_15 
REMARK    7  A    between atoms: C9_15  and  C10_16 
REMARK    8  A    between atoms: C9_15  and  C11_18 
REMARK       I    between atoms: C10_16  and  N4_21 
REMARK    9  A    between atoms: C11_18  and  C12_19 
REMARK   10  A    between atoms: C11_18  and  C13_20 
REMARK   11  A    between atoms: N4_21  and  C14_22 
REMARK   12  A    between atoms: C14_22  and  C15_23 
REMARK   13  A    between atoms: C14_22  and  C16_25 
REMARK       I    between atoms: C15_23  and  N6_40 
REMARK   14  A    between atoms: C16_25  and  C17_26 
REMARK   15  A    between atoms: C17_26  and  C18_27 
REMARK   16  A    between atoms: C17_26  and  C19_28 
REMARK   17  A    between atoms: C20_29  and  C21_30 
REMARK   18  A    between atoms: C20_29  and  C24_33 
REMARK   19  A    between atoms: C20_29  and  N6_40 
REMARK   20  A    between atoms: C21_30  and  C22_31 
REMARK   21  A    between atoms: C22_31  and  C23_32 
REMARK   22  A    between atoms: C23_32  and  O8_43 
REMARK   23  A    between atoms: C24_33  and  C25_34 
REMARK   24  A    between atoms: C28_38  and  O6_39 
REMARK   25  A    between atoms: C29_42  and  O8_43 
REMARK   26  A    between atoms: C29_42  and  C35_49 
ROOT
ATOM      1  C14 non d ame     -31.179  14.054  24.477  0.00  0.00     0.089 C 
ATOM      2  H20 non d ame     -30.200  13.609  24.659  0.00  0.00     0.087 H 
ENDROOT
BRANCH   1   3
ATOM      3  N4  non d ame     -32.179  13.022  24.711  0.00  0.00    -0.346 N 
ATOM      4  C10 non d ame     -31.886  11.875  25.644  0.00  0.00     0.241 C 
ATOM      5  O4  non d ame     -30.836  11.801  26.194  0.00  0.00    -0.271 OA
ATOM      6  H19 non d ame     -33.064  13.102  24.232  0.00  0.00     0.163 HD
BRANCH   4   7
ATOM      7  C9  non d ame     -32.934  10.819  25.879  0.00  0.00     0.092 C 
ATOM      8  H11 non d ame     -33.089  10.699  26.951  0.00  0.00     0.088 H 
BRANCH   7   9
ATOM      9  N3  non d ame     -34.209  11.260  25.304  0.00  0.00    -0.346 N 
ATOM     10  C7  non d ame     -35.223  11.832  26.155  0.00  0.00     0.240 C 
ATOM     11  O3  non d ame     -35.031  11.944  27.304  0.00  0.00    -0.271 OA
ATOM     12  H10 non d ame     -34.390  11.169  24.315  0.00  0.00     0.163 HD
BRANCH  10  13
ATOM     13  C6  non d ame     -36.579  12.297  25.538  0.00  0.00     0.086 C 
ATOM     14  H6  non d ame     -37.434  12.058  26.171  0.00  0.00     0.086 H 
BRANCH  13  15
ATOM     15  N2  non d ame     -36.560  13.743  25.393  0.00  0.00    -0.343 N 
ATOM     16  C5  non d ame     -37.543  14.554  26.115  0.00  0.00     0.273 C 
ATOM     17  O2  non d ame     -38.346  14.033  26.808  0.00  0.00    -0.266 OA
ATOM     18  H5  non d ame     -35.871  14.179  24.796  0.00  0.00     0.163 HD
BRANCH  16  19
ATOM     19  C4  non d ame     -37.533  16.083  25.971  0.00  0.00     0.154 A 
ATOM     20  C1  non d ame     -37.179  16.841  24.810  0.00  0.00    -0.017 A 
ATOM     21  C2  non d ame     -37.335  18.191  25.195  0.00  0.00     0.077 A 
ATOM     22  H1  non d ame     -36.857  16.468  23.838  0.00  0.00     0.091 H 
ATOM     23  O1  non d ame     -37.734  18.197  26.434  0.00  0.00    -0.218 OA
ATOM     24  N1  non d ame     -37.857  16.979  26.908  0.00  0.00    -0.123 NA
BRANCH  21  25
ATOM     25  C3  non d ame     -37.083  19.413  24.322  0.00  0.00    -0.029 C 
ATOM     26  H2  non d ame     -36.093  19.342  23.874  0.00  0.00     0.036 H 
ATOM     27  H3  non d ame     -37.835  19.457  23.534  0.00  0.00     0.036 H 
ATOM     28  H4  non d ame     -37.143  20.314  24.931  0.00  0.00     0.036 H 
ENDBRANCH  21  25
ENDBRANCH  16  19
ENDBRANCH  13  15
BRANCH  13  29
ATOM     29  C8  non d ame     -36.772  11.645  24.193  0.00  0.00    -0.049 C 
ATOM     30  H7  non d ame     -35.986  10.907  24.031  0.00  0.00     0.030 H 
ATOM     31  H8  non d ame     -37.744  11.153  24.163  0.00  0.00     0.030 H 
ATOM     32  H9  non d ame     -36.724  12.403  23.411  0.00  0.00     0.030 H 
ENDBRANCH  13  29
ENDBRANCH  10  13
ENDBRANCH   7   9
BRANCH   7  33
ATOM     33  C11 non d ame     -32.494   9.491  25.198  0.00  0.00    -0.033 C 
ATOM     34  H12 non d ame     -31.420   9.383  25.351  0.00  0.00     0.042 H 
BRANCH  33  35
ATOM     35  C12 non d ame     -33.187   8.257  25.856  0.00  0.00    -0.071 C 
ATOM     36  H13 non d ame     -33.163   8.363  26.941  0.00  0.00     0.028 H 
ATOM     37  H14 non d ame     -34.222   8.200  25.520  0.00  0.00     0.028 H 
ATOM     38  H15 non d ame     -32.661   7.348  25.569  0.00  0.00     0.028 H 
ENDBRANCH  33  35
BRANCH  33  39
ATOM     39  C13 non d ame     -32.760   9.535  23.659  0.00  0.00    -0.071 C 
ATOM     40  H16 non d ame     -32.672   8.530  23.245  0.00  0.00     0.028 H 
ATOM     41  H17 non d ame     -33.765   9.918  23.475  0.00  0.00     0.028 H 
ATOM     42  H18 non d ame     -32.030  10.190  23.183  0.00  0.00     0.028 H 
ENDBRANCH  33  39
ENDBRANCH   7  33
ENDBRANCH   4   7
ENDBRANCH   1   3
BRANCH   1  43
ATOM     43  C15 non d ame     -31.467  15.248  25.431  0.00  0.00     0.240 C 
ATOM     44  O5  non d ame     -30.944  16.298  25.238  0.00  0.00    -0.271 OA
ATOM     45  N6  non d ame     -32.402  15.086  26.581  0.00  0.00    -0.355 N 
ATOM     46  H46 non d ame     -32.856  14.200  26.752  0.00  0.00     0.162 HD
BRANCH  45  47
ATOM     47  C20 non d ame     -32.667  16.231  27.478  0.00  0.00     0.013 C 
ATOM     48  H30 non d ame     -31.940  17.011  27.249  0.00  0.00     0.072 H 
BRANCH  47  49
ATOM     49  C21 non d ame     -32.513  15.787  28.915  0.00  0.00    -0.038 C 
ATOM     50  H31 non d ame     -31.501  16.072  29.205  0.00  0.00     0.036 H 
ATOM     51  H32 non d ame     -33.370  16.203  29.445  0.00  0.00     0.036 H 
BRANCH  49  52
ATOM     52  C22 non d ame     -32.599  14.254  29.081  0.00  0.00     0.018 C 
ATOM     53  H33 non d ame     -33.053  14.088  30.057  0.00  0.00     0.048 H 
ATOM     54  H34 non d ame     -33.094  13.887  28.181  0.00  0.00     0.048 H 
BRANCH  52  55
ATOM     55  C23 non d ame     -31.215  13.550  29.126  0.00  0.00     0.259 C 
ATOM     56  O7  non d ame     -30.252  14.085  28.681  0.00  0.00    -0.265 OA
BRANCH  55  57
ATOM     57  O8  non d ame     -31.112  12.251  29.696  0.00  0.00    -0.317 OA
BRANCH  57  58
ATOM     58  C29 non d ame     -31.832  12.094  30.922  0.00  0.00     0.052 C 
ATOM     59  H47 non d ame     -31.123  11.657  31.626  0.00  0.00     0.082 H 
ATOM     60  H48 non d ame     -32.276  13.068  31.130  0.00  0.00     0.082 H 
BRANCH  58  61
ATOM     61  C35 non d ame     -32.976  11.074  30.680  0.00  0.00    -0.034 A 
ATOM     62  C30 non d ame     -34.040  10.995  31.573  0.00  0.00    -0.075 A 
ATOM     63  C31 non d ame     -35.068  10.079  31.355  0.00  0.00    -0.082 A 
ATOM     64  H49 non d ame     -34.068  11.651  32.443  0.00  0.00     0.084 H 
ATOM     65  C32 non d ame     -35.028   9.238  30.240  0.00  0.00    -0.083 A 
ATOM     66  H50 non d ame     -35.901  10.021  32.056  0.00  0.00     0.083 H 
ATOM     67  C33 non d ame     -33.962   9.318  29.353  0.00  0.00    -0.082 A 
ATOM     68  H51 non d ame     -35.827   8.519  30.062  0.00  0.00     0.083 H 
ATOM     69  C34 non d ame     -32.934  10.234  29.566  0.00  0.00    -0.075 A 
ATOM     70  H52 non d ame     -33.933   8.658  28.485  0.00  0.00     0.083 H 
ATOM     71  H53 non d ame     -32.101  10.291  28.864  0.00  0.00     0.084 H 
ENDBRANCH  58  61
ENDBRANCH  57  58
ENDBRANCH  55  57
ENDBRANCH  52  55
ENDBRANCH  49  52
ENDBRANCH  47  49
BRANCH  47  72
ATOM     72  C24 non d ame     -34.087  16.746  27.252  0.00  0.00    -0.039 C 
ATOM     73  H35 non d ame     -34.467  16.185  26.399  0.00  0.00     0.036 H 
ATOM     74  H36 non d ame     -34.581  16.667  28.221  0.00  0.00     0.036 H 
BRANCH  72  75
ATOM     75  C25 non d ame     -34.097  18.295  26.842  0.00  0.00    -0.001 C 
ATOM     76  C26 non d ame     -32.569  18.899  26.895  0.00  0.00    -0.035 C 
ATOM     77  C27 non d ame     -32.573  20.030  27.641  0.00  0.00     0.085 C 
ATOM     78  H38 non d ame     -31.921  18.226  27.456  0.00  0.00     0.036 H 
ATOM     79  H39 non d ame     -32.269  19.246  25.907  0.00  0.00     0.036 H 
ATOM     80  N5  non d ame     -33.894  20.074  28.369  0.00  0.00    -0.049 N 
ATOM     81  H40 non d ame     -31.770  19.902  28.367  0.00  0.00     0.075 H 
ATOM     82  H41 non d ame     -32.534  20.850  26.925  0.00  0.00     0.075 H 
ATOM     83  C28 non d ame     -34.839  18.986  27.642  0.00  0.00     0.193 C 
ATOM     84  H42 non d ame     -33.712  19.763  29.313  0.00  0.00     0.280 HD
ATOM     85  H43 non d ame     -34.279  20.994  28.207  0.00  0.00     0.280 HD
ATOM     86  H44 non d ame     -35.626  19.304  26.958  0.00  0.00     0.129 H 
ATOM     87  H37 non d ame     -34.671  18.477  25.933  0.00  0.00     0.046 H 
BRANCH  83  88
ATOM     88  O6  non d ame     -35.488  18.167  28.617  0.00  0.00    -0.369 OA
ATOM     89  H45 non d ame     -36.432  18.145  28.439  0.00  0.00     0.212 HD
ENDBRANCH  83  88
ENDBRANCH  72  75
ENDBRANCH  47  72
ENDBRANCH  45  47
ENDBRANCH   1  43
BRANCH   1  90
ATOM     90  C16 non d ame     -31.273  14.519  23.033  0.00  0.00    -0.035 C 
ATOM     91  H21 non d ame     -31.820  13.733  22.512  0.00  0.00     0.037 H 
ATOM     92  H22 non d ame     -31.682  15.528  23.081  0.00  0.00     0.037 H 
BRANCH  90  93
ATOM     93  C17 non d ame     -29.888  14.637  22.321  0.00  0.00    -0.059 C 
ATOM     94  H23 non d ame     -29.194  15.100  23.022  0.00  0.00     0.038 H 
BRANCH  93  95
ATOM     95  C18 non d ame     -29.307  13.241  21.926  0.00  0.00    -0.073 C 
ATOM     96  H24 non d ame     -30.125  12.556  21.708  0.00  0.00     0.028 H 
ATOM     97  H25 non d ame     -28.677  13.346  21.043  0.00  0.00     0.028 H 
ATOM     98  H26 non d ame     -28.714  12.848  22.751  0.00  0.00     0.028 H 
ENDBRANCH  93  95
BRANCH  93  99
ATOM     99  C19 non d ame     -29.979  15.555  21.099  0.00  0.00    -0.073 C 
ATOM    100  H27 non d ame     -30.561  16.441  21.352  0.00  0.00     0.028 H 
ATOM    101  H28 non d ame     -28.976  15.854  20.794  0.00  0.00     0.028 H 
ATOM    102  H29 non d ame     -30.463  15.023  20.280  0.00  0.00     0.028 H 
ENDBRANCH  93  99
ENDBRANCH  90  93
ENDBRANCH   1  90
TORSDOF 26
ENDMDL
MODEL 4
REMARK VINA RESULT:      -6.9      3.647      6.838
REMARK  26 active torsions:
REMARK  status: ('A' for Active; 'I' for Inactive)
REMARK    1  A    between atoms: C2_2  and  C3_3 
REMARK    2  A    between atoms: C4_6  and  C5_7 
REMARK       I    between atoms: C5_7  and  N2_9 
REMARK    3  A    between atoms: N2_9  and  C6_10 
REMARK    4  A    between atoms: C6_10  and  C7_11 
REMARK    5  A    between atoms: C6_10  and  C8_13 
REMARK       I    between atoms: C7_11  and  N3_14 
REMARK    6  A    between atoms: N3_14  and  C9_15 
REMARK    7  A    between atoms: C9_15  and  C10_16 
REMARK    8  A    between atoms: C9_15  and  C11_18 
REMARK       I    between atoms: C10_16  and  N4_21 
REMARK    9  A    between atoms: C11_18  and  C12_19 
REMARK   10  A    between atoms: C11_18  and  C13_20 
REMARK   11  A    between atoms: N4_21  and  C14_22 
REMARK   12  A    between atoms: C14_22  and  C15_23 
REMARK   13  A    between atoms: C14_22  and  C16_25 
REMARK       I    between atoms: C15_23  and  N6_40 
REMARK   14  A    between atoms: C16_25  and  C17_26 
REMARK   15  A    between atoms: C17_26  and  C18_27 
REMARK   16  A    between atoms: C17_26  and  C19_28 
REMARK   17  A    between atoms: C20_29  and  C21_30 
REMARK   18  A    between atoms: C20_29  and  C24_33 
REMARK   19  A    between atoms: C20_29  and  N6_40 
REMARK   20  A    between atoms: C21_30  and  C22_31 
REMARK   21  A    between atoms: C22_31  and  C23_32 
REMARK   22  A    between atoms: C23_32  and  O8_43 
REMARK   23  A    between atoms: C24_33  and  C25_34 
REMARK   24  A    between atoms: C28_38  and  O6_39 
REMARK   25  A    between atoms: C29_42  and  O8_43 
REMARK   26  A    between atoms: C29_42  and  C35_49 
ROOT
ATOM      1  C14 non d ame     -32.956  10.273  25.463  0.00  0.00     0.089 C 
ATOM      2  H20 non d ame     -33.635  10.352  24.614  0.00  0.00     0.087 H 
ENDROOT
BRANCH   1   3
ATOM      3  N4  non d ame     -32.395   8.930  25.453  0.00  0.00    -0.346 N 
ATOM      4  C10 non d ame     -33.168   7.787  24.845  0.00  0.00     0.241 C 
ATOM      5  O4  non d ame     -34.241   7.972  24.372  0.00  0.00    -0.271 OA
ATOM      6  H19 non d ame     -31.482   8.793  25.862  0.00  0.00     0.163 HD
BRANCH   4   7
ATOM      7  C9  non d ame     -32.570   6.404  24.837  0.00  0.00     0.092 C 
ATOM      8  H11 non d ame     -31.505   6.473  25.058  0.00  0.00     0.088 H 
BRANCH   7   9
ATOM      9  N3  non d ame     -33.182   5.601  25.900  0.00  0.00    -0.346 N 
ATOM     10  C7  non d ame     -32.700   5.710  27.254  0.00  0.00     0.240 C 
ATOM     11  O3  non d ame     -31.819   6.439  27.507  0.00  0.00    -0.271 OA
ATOM     12  H10 non d ame     -33.942   4.967  25.697  0.00  0.00     0.163 HD
BRANCH  10  13
ATOM     13  C6  non d ame     -33.353   4.851  28.381  0.00  0.00     0.086 C 
ATOM     14  H6  non d ame     -32.723   4.767  29.266  0.00  0.00     0.086 H 
BRANCH  13  15
ATOM     15  N2  non d ame     -34.587   5.490  28.806  0.00  0.00    -0.343 N 
ATOM     16  C5  non d ame     -34.936   5.510  30.228  0.00  0.00     0.273 C 
ATOM     17  O2  non d ame     -34.218   5.007  31.022  0.00  0.00    -0.266 OA
ATOM     18  H5  non d ame     -35.195   5.916  28.121  0.00  0.00     0.163 HD
BRANCH  16  19
ATOM     19  C4  non d ame     -36.236   6.184  30.693  0.00  0.00     0.154 A 
ATOM     20  C1  non d ame     -36.505   7.588  30.762  0.00  0.00    -0.017 A 
ATOM     21  C2  non d ame     -37.829   7.680  31.247  0.00  0.00     0.077 A 
ATOM     22  H1  non d ame     -35.842   8.413  30.502  0.00  0.00     0.091 H 
ATOM     23  O1  non d ame     -38.261   6.467  31.429  0.00  0.00    -0.218 OA
ATOM     24  N1  non d ame     -37.349   5.576  31.113  0.00  0.00    -0.123 NA
BRANCH  21  25
ATOM     25  C3  non d ame     -38.607   8.964  31.506  0.00  0.00    -0.029 C 
ATOM     26  H2  non d ame     -38.251   9.746  30.836  0.00  0.00     0.036 H 
ATOM     27  H3  non d ame     -39.667   8.788  31.328  0.00  0.00     0.036 H 
ATOM     28  H4  non d ame     -38.459   9.276  32.540  0.00  0.00     0.036 H 
ENDBRANCH  21  25
ENDBRANCH  16  19
ENDBRANCH  13  15
BRANCH  13  29
ATOM     29  C8  non d ame     -33.642   3.467  27.856  0.00  0.00    -0.049 C 
ATOM     30  H7  non d ame     -34.710   3.369  27.660  0.00  0.00     0.030 H 
ATOM     31  H8  non d ame     -33.087   3.305  26.933  0.00  0.00     0.030 H 
ATOM     32  H9  non d ame     -33.340   2.727  28.597  0.00  0.00     0.030 H 
ENDBRANCH  13  29
ENDBRANCH  10  13
ENDBRANCH   7   9
BRANCH   7  33
ATOM     33  C11 non d ame     -32.840   5.730  23.460  0.00  0.00    -0.033 C 
ATOM     34  H12 non d ame     -33.713   6.214  23.023  0.00  0.00     0.042 H 
BRANCH  33  35
ATOM     35  C12 non d ame     -31.645   5.943  22.479  0.00  0.00    -0.071 C 
ATOM     36  H13 non d ame     -31.529   7.007  22.273  0.00  0.00     0.028 H 
ATOM     37  H14 non d ame     -30.732   5.558  22.931  0.00  0.00     0.028 H 
ATOM     38  H15 non d ame     -31.842   5.413  21.547  0.00  0.00     0.028 H 
ENDBRANCH  33  35
BRANCH  33  39
ATOM     39  C13 non d ame     -33.166   4.212  23.635  0.00  0.00    -0.071 C 
ATOM     40  H16 non d ame     -33.108   3.714  22.667  0.00  0.00     0.028 H 
ATOM     41  H17 non d ame     -32.446   3.762  24.319  0.00  0.00     0.028 H 
ATOM     42  H18 non d ame     -34.171   4.101  24.041  0.00  0.00     0.028 H 
ENDBRANCH  33  39
ENDBRANCH   7  33
ENDBRANCH   4   7
ENDBRANCH   1   3
BRANCH   1  43
ATOM     43  C15 non d ame     -31.788  11.298  25.380  0.00  0.00     0.240 C 
ATOM     44  O5  non d ame     -30.747  11.051  25.897  0.00  0.00    -0.271 OA
ATOM     45  N6  non d ame     -31.966  12.583  24.646  0.00  0.00    -0.355 N 
ATOM     46  H46 non d ame     -32.844  12.802  24.198  0.00  0.00     0.162 HD
BRANCH  45  47
ATOM     47  C20 non d ame     -30.846  13.546  24.574  0.00  0.00     0.013 C 
ATOM     48  H30 non d ame     -30.022  13.148  25.166  0.00  0.00     0.072 H 
BRANCH  47  49
ATOM     49  C21 non d ame     -31.293  14.875  25.140  0.00  0.00    -0.038 C 
ATOM     50  H31 non d ame     -30.410  15.307  25.611  0.00  0.00     0.036 H 
ATOM     51  H32 non d ame     -31.781  15.397  24.316  0.00  0.00     0.036 H 
BRANCH  49  52
ATOM     52  C22 non d ame     -32.353  14.727  26.252  0.00  0.00     0.018 C 
ATOM     53  H33 non d ame     -33.014  15.587  26.146  0.00  0.00     0.048 H 
ATOM     54  H34 non d ame     -32.751  13.717  26.148  0.00  0.00     0.048 H 
BRANCH  52  55
ATOM     55  C23 non d ame     -31.769  14.811  27.690  0.00  0.00     0.259 C 
ATOM     56  O7  non d ame     -30.883  14.094  28.024  0.00  0.00    -0.265 OA
BRANCH  55  57
ATOM     57  O8  non d ame     -32.315  15.749  28.610  0.00  0.00    -0.317 OA
BRANCH  57  58
ATOM     58  C29 non d ame     -33.627  16.204  28.268  0.00  0.00     0.052 C 
ATOM     59  H47 non d ame     -33.981  15.526  27.491  0.00  0.00     0.082 H 
ATOM     60  H48 non d ame     -34.167  16.282  29.211  0.00  0.00     0.082 H 
BRANCH  58  61
ATOM     61  C35 non d ame     -33.498  17.625  27.658  0.00  0.00    -0.034 A 
ATOM     62  C30 non d ame     -32.634  18.553  28.231  0.00  0.00    -0.075 A 
ATOM     63  C31 non d ame     -32.517  19.830  27.683  0.00  0.00    -0.082 A 
ATOM     64  H49 non d ame     -32.048  18.281  29.109  0.00  0.00     0.084 H 
ATOM     65  C32 non d ame     -33.271  20.179  26.559  0.00  0.00    -0.083 A 
ATOM     66  H50 non d ame     -31.838  20.555  28.133  0.00  0.00     0.083 H 
ATOM     67  C33 non d ame     -34.135  19.250  25.993  0.00  0.00    -0.082 A 
ATOM     68  H51 non d ame     -33.186  21.174  26.124  0.00  0.00     0.083 H 
ATOM     69  C34 non d ame     -34.252  17.973  26.536  0.00  0.00    -0.075 A 
ATOM     70  H52 non d ame     -34.723  19.526  25.117  0.00  0.00     0.083 H 
ATOM     71  H53 non d ame     -34.932  17.249  26.085  0.00  0.00     0.084 H 
ENDBRANCH  58  61
ENDBRANCH  57  58
ENDBRANCH  55  57
ENDBRANCH  52  55
ENDBRANCH  49  52
ENDBRANCH  47  49
BRANCH  47  72
ATOM     72  C24 non d ame     -30.415  13.730  23.120  0.00  0.00    -0.039 C 
ATOM     73  H35 non d ame     -29.441  13.245  23.043  0.00  0.00     0.036 H 
ATOM     74  H36 non d ame     -31.252  13.369  22.522  0.00  0.00     0.036 H 
BRANCH  72  75
ATOM     75  C25 non d ame     -30.204  15.275  22.755  0.00  0.00    -0.001 C 
ATOM     76  C26 non d ame     -31.273  15.726  21.590  0.00  0.00    -0.035 C 
ATOM     77  C27 non d ame     -30.594  16.332  20.586  0.00  0.00     0.085 C 
ATOM     78  H38 non d ame     -31.700  14.844  21.113  0.00  0.00     0.036 H 
ATOM     79  H39 non d ame     -31.927  16.513  21.966  0.00  0.00     0.036 H 
ATOM     80  N5  non d ame     -29.129  16.044  20.807  0.00  0.00    -0.049 N 
ATOM     81  H40 non d ame     -30.921  15.834  19.673  0.00  0.00     0.075 H 
ATOM     82  H41 non d ame     -30.770  17.399  20.718  0.00  0.00     0.075 H 
ATOM     83  C28 non d ame     -29.008  15.494  22.320  0.00  0.00     0.193 C 
ATOM     84  H42 non d ame     -28.885  15.297  20.173  0.00  0.00     0.280 HD
ATOM     85  H43 non d ame     -28.652  16.932  20.749  0.00  0.00     0.280 HD
ATOM     86  H44 non d ame     -28.623  16.135  23.113  0.00  0.00     0.129 H 
ATOM     87  H37 non d ame     -30.144  15.905  23.643  0.00  0.00     0.046 H 
BRANCH  83  88
ATOM     88  O6  non d ame     -28.199  14.317  22.354  0.00  0.00    -0.369 OA
ATOM     89  H45 non d ame     -27.566  14.384  23.073  0.00  0.00     0.212 HD
ENDBRANCH  83  88
ENDBRANCH  72  75
ENDBRANCH  47  72
ENDBRANCH  45  47
ENDBRANCH   1  43
BRANCH   1  90
ATOM     90  C16 non d ame     -33.725  10.479  26.759  0.00  0.00    -0.035 C 
ATOM     91  H21 non d ame     -33.800  11.559  26.881  0.00  0.00     0.037 H 
ATOM     92  H22 non d ame     -34.629   9.878  26.656  0.00  0.00     0.037 H 
BRANCH  90  93
ATOM     93  C17 non d ame     -32.979   9.944  28.022  0.00  0.00    -0.059 C 
ATOM     94  H23 non d ame     -32.094   9.406  27.681  0.00  0.00     0.038 H 
BRANCH  93  95
ATOM     95  C18 non d ame     -32.503  11.100  28.959  0.00  0.00    -0.073 C 
ATOM     96  H24 non d ame     -33.359  11.515  29.489  0.00  0.00     0.028 H 
ATOM     97  H25 non d ame     -31.784  10.711  29.680  0.00  0.00     0.028 H 
ATOM     98  H26 non d ame     -32.032  11.881  28.362  0.00  0.00     0.028 H 
ENDBRANCH  93  95
BRANCH  93  99
ATOM     99  C19 non d ame     -33.850   8.946  28.789  0.00  0.00    -0.073 C 
ATOM    100  H27 non d ame     -34.874   8.995  28.417  0.00  0.00     0.028 H 
ATOM    101  H28 non d ame     -33.460   7.938  28.647  0.00  0.00     0.028 H 
ATOM    102  H29 non d ame     -33.837   9.193  29.851  0.00  0.00     0.028 H 
ENDBRANCH  93  99
ENDBRANCH  90  93
ENDBRANCH   1  90
TORSDOF 26
ENDMDL
MODEL 5
REMARK VINA RESULT:      -6.8      2.549      6.613
REMARK  26 active torsions:
REMARK  status: ('A' for Active; 'I' for Inactive)
REMARK    1  A    between atoms: C2_2  and  C3_3 
REMARK    2  A    between atoms: C4_6  and  C5_7 
REMARK       I    between atoms: C5_7  and  N2_9 
REMARK    3  A    between atoms: N2_9  and  C6_10 
REMARK    4  A    between atoms: C6_10  and  C7_11 
REMARK    5  A    between atoms: C6_10  and  C8_13 
REMARK       I    between atoms: C7_11  and  N3_14 
REMARK    6  A    between atoms: N3_14  and  C9_15 
REMARK    7  A    between atoms: C9_15  and  C10_16 
REMARK    8  A    between atoms: C9_15  and  C11_18 
REMARK       I    between atoms: C10_16  and  N4_21 
REMARK    9  A    between atoms: C11_18  and  C12_19 
REMARK   10  A    between atoms: C11_18  and  C13_20 
REMARK   11  A    between atoms: N4_21  and  C14_22 
REMARK   12  A    between atoms: C14_22  and  C15_23 
REMARK   13  A    between atoms: C14_22  and  C16_25 
REMARK       I    between atoms: C15_23  and  N6_40 
REMARK   14  A    between atoms: C16_25  and  C17_26 
REMARK   15  A    between atoms: C17_26  and  C18_27 
REMARK   16  A    between atoms: C17_26  and  C19_28 
REMARK   17  A    between atoms: C20_29  and  C21_30 
REMARK   18  A    between atoms: C20_29  and  C24_33 
REMARK   19  A    between atoms: C20_29  and  N6_40 
REMARK   20  A    between atoms: C21_30  and  C22_31 
REMARK   21  A    between atoms: C22_31  and  C23_32 
REMARK   22  A    between atoms: C23_32  and  O8_43 
REMARK   23  A    between atoms: C24_33  and  C25_34 
REMARK   24  A    between atoms: C28_38  and  O6_39 
REMARK   25  A    between atoms: C29_42  and  O8_43 
REMARK   26  A    between atoms: C29_42  and  C35_49 
ROOT
ATOM      1  C14 non d ame     -32.436   9.448  24.518  0.00  0.00     0.089 C 
ATOM      2  H20 non d ame     -32.050   8.555  25.011  0.00  0.00     0.087 H 
ENDROOT
BRANCH   1   3
ATOM      3  N4  non d ame     -33.769   9.698  25.046  0.00  0.00    -0.346 N 
ATOM      4  C10 non d ame     -34.592   8.565  25.605  0.00  0.00     0.241 C 
ATOM      5  O4  non d ame     -34.161   7.459  25.617  0.00  0.00    -0.271 OA
ATOM      6  H19 non d ame     -34.118  10.646  25.024  0.00  0.00     0.163 HD
BRANCH   4   7
ATOM      7  C9  non d ame     -35.967   8.844  26.153  0.00  0.00     0.092 C 
ATOM      8  H11 non d ame     -36.464   7.898  26.373  0.00  0.00     0.088 H 
BRANCH   7   9
ATOM      9  N3  non d ame     -35.851   9.577  27.417  0.00  0.00    -0.346 N 
ATOM     10  C7  non d ame     -36.216   8.937  28.657  0.00  0.00     0.240 C 
ATOM     11  O3  non d ame     -36.605   7.833  28.656  0.00  0.00    -0.271 OA
ATOM     12  H10 non d ame     -35.519  10.531  27.433  0.00  0.00     0.163 HD
BRANCH  10  13
ATOM     13  C6  non d ame     -36.093   9.724  29.999  0.00  0.00     0.086 C 
ATOM     14  H6  non d ame     -35.831   9.084  30.841  0.00  0.00     0.086 H 
BRANCH  13  15
ATOM     15  N2  non d ame     -35.027  10.705  29.874  0.00  0.00    -0.343 N 
ATOM     16  C5  non d ame     -33.795  10.532  30.647  0.00  0.00     0.273 C 
ATOM     17  O2  non d ame     -33.672   9.603  31.368  0.00  0.00    -0.266 OA
ATOM     18  H5  non d ame     -35.142  11.497  29.258  0.00  0.00     0.163 HD
BRANCH  16  19
ATOM     19  C4  non d ame     -32.659  11.560  30.524  0.00  0.00     0.154 A 
ATOM     20  C1  non d ame     -32.742  12.878  29.973  0.00  0.00    -0.017 A 
ATOM     21  C2  non d ame     -31.437  13.406  30.095  0.00  0.00     0.077 A 
ATOM     22  H1  non d ame     -33.614  13.375  29.549  0.00  0.00     0.091 H 
ATOM     23  O1  non d ame     -30.700  12.491  30.654  0.00  0.00    -0.218 OA
ATOM     24  N1  non d ame     -31.391  11.405  30.914  0.00  0.00    -0.123 NA
BRANCH  21  25
ATOM     25  C3  non d ame     -30.979  14.790  29.655  0.00  0.00    -0.029 C 
ATOM     26  H2  non d ame     -31.027  15.475  30.501  0.00  0.00     0.036 H 
ATOM     27  H3  non d ame     -29.953  14.734  29.291  0.00  0.00     0.036 H 
ATOM     28  H4  non d ame     -31.628  15.151  28.858  0.00  0.00     0.036 H 
ENDBRANCH  21  25
ENDBRANCH  16  19
ENDBRANCH  13  15
BRANCH  13  29
ATOM     29  C8  non d ame     -37.398  10.416  30.300  0.00  0.00    -0.049 C 
ATOM     30  H7  non d ame     -37.893  10.681  29.366  0.00  0.00     0.030 H 
ATOM     31  H8  non d ame     -38.040   9.747  30.873  0.00  0.00     0.030 H 
ATOM     32  H9  non d ame     -37.206  11.320  30.878  0.00  0.00     0.030 H 
ENDBRANCH  13  29
ENDBRANCH  10  13
ENDBRANCH   7   9
BRANCH   7  33
ATOM     33  C11 non d ame     -36.769   9.701  25.130  0.00  0.00    -0.033 C 
ATOM     34  H12 non d ame     -36.142  10.547  24.848  0.00  0.00     0.042 H 
BRANCH  33  35
ATOM     35  C12 non d ame     -37.080   8.894  23.831  0.00  0.00    -0.071 C 
ATOM     36  H13 non d ame     -37.806   8.113  24.054  0.00  0.00     0.028 H 
ATOM     37  H14 non d ame     -37.487   9.565  23.075  0.00  0.00     0.028 H 
ATOM     38  H15 non d ame     -36.162   8.439  23.458  0.00  0.00     0.028 H 
ENDBRANCH  33  35
BRANCH  33  39
ATOM     39  C13 non d ame     -38.077  10.263  25.774  0.00  0.00    -0.071 C 
ATOM     40  H16 non d ame     -38.324   9.679  26.661  0.00  0.00     0.028 H 
ATOM     41  H17 non d ame     -37.925  11.305  26.056  0.00  0.00     0.028 H 
ATOM     42  H18 non d ame     -38.893  10.197  25.055  0.00  0.00     0.028 H 
ENDBRANCH  33  39
ENDBRANCH   7  33
ENDBRANCH   4   7
ENDBRANCH   1   3
BRANCH   1  43
ATOM     43  C15 non d ame     -31.552  10.698  24.792  0.00  0.00     0.240 C 
ATOM     44  O5  non d ame     -30.873  10.740  25.766  0.00  0.00    -0.271 OA
ATOM     45  N6  non d ame     -31.545  11.840  23.833  0.00  0.00    -0.355 N 
ATOM     46  H46 non d ame     -32.113  11.813  22.999  0.00  0.00     0.162 HD
BRANCH  45  47
ATOM     47  C20 non d ame     -30.697  13.021  24.107  0.00  0.00     0.013 C 
ATOM     48  H30 non d ame     -29.963  12.739  24.861  0.00  0.00     0.072 H 
BRANCH  47  49
ATOM     49  C21 non d ame     -31.563  14.148  24.623  0.00  0.00    -0.038 C 
ATOM     50  H31 non d ame     -30.974  15.056  24.492  0.00  0.00     0.036 H 
ATOM     51  H32 non d ame     -32.520  14.041  24.113  0.00  0.00     0.036 H 
BRANCH  49  52
ATOM     52  C22 non d ame     -31.858  14.033  26.134  0.00  0.00     0.018 C 
ATOM     53  H33 non d ame     -31.351  13.127  26.466  0.00  0.00     0.048 H 
ATOM     54  H34 non d ame     -31.587  14.998  26.563  0.00  0.00     0.048 H 
BRANCH  52  55
ATOM     55  C23 non d ame     -33.362  13.826  26.465  0.00  0.00     0.259 C 
ATOM     56  O7  non d ame     -33.879  12.770  26.289  0.00  0.00    -0.265 OA
BRANCH  55  57
ATOM     57  O8  non d ame     -34.122  14.918  26.968  0.00  0.00    -0.317 OA
BRANCH  57  58
ATOM     58  C29 non d ame     -34.380  15.942  26.004  0.00  0.00     0.052 C 
ATOM     59  H47 non d ame     -33.875  15.622  25.092  0.00  0.00     0.082 H 
ATOM     60  H48 non d ame     -35.460  16.085  26.007  0.00  0.00     0.082 H 
BRANCH  58  61
ATOM     61  C35 non d ame     -33.710  17.250  26.503  0.00  0.00    -0.034 A 
ATOM     62  C30 non d ame     -33.181  17.315  27.788  0.00  0.00    -0.075 A 
ATOM     63  C31 non d ame     -32.579  18.490  28.236  0.00  0.00    -0.082 A 
ATOM     64  H49 non d ame     -33.238  16.446  28.444  0.00  0.00     0.084 H 
ATOM     65  C32 non d ame     -32.509  19.604  27.395  0.00  0.00    -0.083 A 
ATOM     66  H50 non d ame     -32.164  18.537  29.243  0.00  0.00     0.083 H 
ATOM     67  C33 non d ame     -33.041  19.535  26.114  0.00  0.00    -0.082 A 
ATOM     68  H51 non d ame     -32.040  20.526  27.737  0.00  0.00     0.083 H 
ATOM     69  C34 non d ame     -33.642  18.362  25.661  0.00  0.00    -0.075 A 
ATOM     70  H52 non d ame     -32.987  20.406  25.461  0.00  0.00     0.083 H 
ATOM     71  H53 non d ame     -34.056  18.315  24.654  0.00  0.00     0.084 H 
ENDBRANCH  58  61
ENDBRANCH  57  58
ENDBRANCH  55  57
ENDBRANCH  52  55
ENDBRANCH  49  52
ENDBRANCH  47  49
BRANCH  47  72
ATOM     72  C24 non d ame     -29.997  13.462  22.824  0.00  0.00    -0.039 C 
ATOM     73  H35 non d ame     -28.935  13.290  22.999  0.00  0.00     0.036 H 
ATOM     74  H36 non d ame     -30.508  12.935  22.018  0.00  0.00     0.036 H 
BRANCH  72  75
ATOM     75  C25 non d ame     -30.184  15.031  22.556  0.00  0.00    -0.001 C 
ATOM     76  C26 non d ame     -31.087  15.264  21.202  0.00  0.00    -0.035 C 
ATOM     77  C27 non d ame     -30.434  16.124  20.385  0.00  0.00     0.085 C 
ATOM     78  H38 non d ame     -31.133  14.344  20.620  0.00  0.00     0.036 H 
ATOM     79  H39 non d ame     -32.005  15.798  21.452  0.00  0.00     0.036 H 
ATOM     80  N5  non d ame     -29.023  16.243  20.906  0.00  0.00    -0.049 N 
ATOM     81  H40 non d ame     -30.414  15.639  19.409  0.00  0.00     0.075 H 
ATOM     82  H41 non d ame     -30.939  17.082  20.506  0.00  0.00     0.075 H 
ATOM     83  C28 non d ame     -29.044  15.616  22.393  0.00  0.00     0.193 C 
ATOM     84  H42 non d ame     -28.450  15.655  20.317  0.00  0.00     0.280 HD
ATOM     85  H43 non d ame     -28.827  17.231  20.976  0.00  0.00     0.280 HD
ATOM     86  H44 non d ame     -29.029  16.266  23.268  0.00  0.00     0.129 H 
ATOM     87  H37 non d ame     -30.487  15.569  23.454  0.00  0.00     0.046 H 
BRANCH  83  88
ATOM     88  O6  non d ame     -27.947  14.718  22.566  0.00  0.00    -0.369 OA
ATOM     89  H45 non d ame     -28.009  14.010  21.920  0.00  0.00     0.212 HD
ENDBRANCH  83  88
ENDBRANCH  72  75
ENDBRANCH  47  72
ENDBRANCH  45  47
ENDBRANCH   1  43
BRANCH   1  90
ATOM     90  C16 non d ame     -32.533   9.208  23.020  0.00  0.00    -0.035 C 
ATOM     91  H21 non d ame     -33.535   8.812  22.855  0.00  0.00     0.037 H 
ATOM     92  H22 non d ame     -32.236  10.149  22.557  0.00  0.00     0.037 H 
BRANCH  90  93
ATOM     93  C17 non d ame     -31.539   8.124  22.493  0.00  0.00    -0.059 C 
ATOM     94  H23 non d ame     -31.985   7.667  21.610  0.00  0.00     0.038 H 
BRANCH  93  95
ATOM     95  C18 non d ame     -30.167   8.739  22.070  0.00  0.00    -0.073 C 
ATOM     96  H24 non d ame     -30.336   9.676  21.541  0.00  0.00     0.028 H 
ATOM     97  H25 non d ame     -29.564   8.928  22.958  0.00  0.00     0.028 H 
ATOM     98  H26 non d ame     -29.642   8.042  21.417  0.00  0.00     0.028 H 
ENDBRANCH  93  95
BRANCH  93  99
ATOM     99  C19 non d ame     -31.343   7.014  23.529  0.00  0.00    -0.073 C 
ATOM    100  H27 non d ame     -30.716   6.228  23.105  0.00  0.00     0.028 H 
ATOM    101  H28 non d ame     -30.860   7.424  24.416  0.00  0.00     0.028 H 
ATOM    102  H29 non d ame     -32.311   6.597  23.803  0.00  0.00     0.028 H 
ENDBRANCH  93  99
ENDBRANCH  90  93
ENDBRANCH   1  90
TORSDOF 26
ENDMDL
MODEL 6
REMARK VINA RESULT:      -6.7      2.802      5.634
REMARK  26 active torsions:
REMARK  status: ('A' for Active; 'I' for Inactive)
REMARK    1  A    between atoms: C2_2  and  C3_3 
REMARK    2  A    between atoms: C4_6  and  C5_7 
REMARK       I    between atoms: C5_7  and  N2_9 
REMARK    3  A    between atoms: N2_9  and  C6_10 
REMARK    4  A    between atoms: C6_10  and  C7_11 
REMARK    5  A    between atoms: C6_10  and  C8_13 
REMARK       I    between atoms: C7_11  and  N3_14 
REMARK    6  A    between atoms: N3_14  and  C9_15 
REMARK    7  A    between atoms: C9_15  and  C10_16 
REMARK    8  A    between atoms: C9_15  and  C11_18 
REMARK       I    between atoms: C10_16  and  N4_21 
REMARK    9  A    between atoms: C11_18  and  C12_19 
REMARK   10  A    between atoms: C11_18  and  C13_20 
REMARK   11  A    between atoms: N4_21  and  C14_22 
REMARK   12  A    between atoms: C14_22  and  C15_23 
REMARK   13  A    between atoms: C14_22  and  C16_25 
REMARK       I    between atoms: C15_23  and  N6_40 
REMARK   14  A    between atoms: C16_25  and  C17_26 
REMARK   15  A    between atoms: C17_26  and  C18_27 
REMARK   16  A    between atoms: C17_26  and  C19_28 
REMARK   17  A    between atoms: C20_29  and  C21_30 
REMARK   18  A    between atoms: C20_29  and  C24_33 
REMARK   19  A    between atoms: C20_29  and  N6_40 
REMARK   20  A    between atoms: C21_30  and  C22_31 
REMARK   21  A    between atoms: C22_31  and  C23_32 
REMARK   22  A    between atoms: C23_32  and  O8_43 
REMARK   23  A    between atoms: C24_33  and  C25_34 
REMARK   24  A    between atoms: C28_38  and  O6_39 
REMARK   25  A    between atoms: C29_42  and  O8_43 
REMARK   26  A    between atoms: C29_42  and  C35_49 
ROOT
ATOM      1  C14 non d ame     -33.224  10.832  25.768  0.00  0.00     0.089 C 
ATOM      2  H20 non d ame     -33.898  10.905  24.914  0.00  0.00     0.087 H 
ENDROOT
BRANCH   1   3
ATOM      3  N4  non d ame     -32.759   9.455  25.843  0.00  0.00    -0.346 N 
ATOM      4  C10 non d ame     -32.759   8.584  24.612  0.00  0.00     0.241 C 
ATOM      5  O4  non d ame     -33.141   9.012  23.573  0.00  0.00    -0.271 OA
ATOM      6  H19 non d ame     -32.440   9.109  26.737  0.00  0.00     0.163 HD
BRANCH   4   7
ATOM      7  C9  non d ame     -32.268   7.163  24.706  0.00  0.00     0.092 C 
ATOM      8  H11 non d ame     -31.271   7.156  25.146  0.00  0.00     0.088 H 
BRANCH   7   9
ATOM      9  N3  non d ame     -33.143   6.402  25.604  0.00  0.00    -0.346 N 
ATOM     10  C7  non d ame     -32.720   6.120  26.954  0.00  0.00     0.240 C 
ATOM     11  O3  non d ame     -31.678   6.496  27.333  0.00  0.00    -0.271 OA
ATOM     12  H10 non d ame     -34.043   6.069  25.290  0.00  0.00     0.163 HD
BRANCH  10  13
ATOM     13  C6  non d ame     -33.653   5.308  27.903  0.00  0.00     0.086 C 
ATOM     14  H6  non d ame     -33.152   4.453  28.357  0.00  0.00     0.086 H 
BRANCH  13  15
ATOM     15  N2  non d ame     -34.079   6.167  28.995  0.00  0.00    -0.343 N 
ATOM     16  C5  non d ame     -34.709   7.455  28.696  0.00  0.00     0.273 C 
ATOM     17  O2  non d ame     -34.866   7.791  27.573  0.00  0.00    -0.266 OA
ATOM     18  H5  non d ame     -33.938   5.873  29.951  0.00  0.00     0.163 HD
BRANCH  16  19
ATOM     19  C4  non d ame     -35.165   8.374  29.840  0.00  0.00     0.154 A 
ATOM     20  C1  non d ame     -34.371   9.329  30.551  0.00  0.00    -0.017 A 
ATOM     21  C2  non d ame     -35.253   9.905  31.493  0.00  0.00     0.077 A 
ATOM     22  H1  non d ame     -33.318   9.568  30.405  0.00  0.00     0.091 H 
ATOM     23  O1  non d ame     -36.414   9.341  31.332  0.00  0.00    -0.218 OA
ATOM     24  N1  non d ame     -36.388   8.444  30.374  0.00  0.00    -0.123 NA
BRANCH  21  25
ATOM     25  C3  non d ame     -34.906  10.987  32.507  0.00  0.00    -0.029 C 
ATOM     26  H2  non d ame     -35.820  11.356  32.972  0.00  0.00     0.036 H 
ATOM     27  H3  non d ame     -34.252  10.571  33.273  0.00  0.00     0.036 H 
ATOM     28  H4  non d ame     -34.398  11.809  32.002  0.00  0.00     0.036 H 
ENDBRANCH  21  25
ENDBRANCH  16  19
ENDBRANCH  13  15
BRANCH  13  29
ATOM     29  C8  non d ame     -34.854   4.817  27.134  0.00  0.00    -0.049 C 
ATOM     30  H7  non d ame     -35.159   3.844  27.519  0.00  0.00     0.030 H 
ATOM     31  H8  non d ame     -35.673   5.527  27.249  0.00  0.00     0.030 H 
ATOM     32  H9  non d ame     -34.597   4.726  26.079  0.00  0.00     0.030 H 
ENDBRANCH  13  29
ENDBRANCH  10  13
ENDBRANCH   7   9
BRANCH   7  33
ATOM     33  C11 non d ame     -32.290   6.512  23.292  0.00  0.00    -0.033 C 
ATOM     34  H12 non d ame     -32.942   7.116  22.662  0.00  0.00     0.042 H 
BRANCH  33  35
ATOM     35  C12 non d ame     -30.871   6.520  22.641  0.00  0.00    -0.071 C 
ATOM     36  H13 non d ame     -30.267   5.724  23.077  0.00  0.00     0.028 H 
ATOM     37  H14 non d ame     -30.963   6.360  21.567  0.00  0.00     0.028 H 
ATOM     38  H15 non d ame     -30.392   7.482  22.826  0.00  0.00     0.028 H 
ENDBRANCH  33  35
BRANCH  33  39
ATOM     39  C13 non d ame     -32.878   5.066  23.350  0.00  0.00    -0.071 C 
ATOM     40  H16 non d ame     -33.815   5.077  23.907  0.00  0.00     0.028 H 
ATOM     41  H17 non d ame     -33.061   4.707  22.337  0.00  0.00     0.028 H 
ATOM     42  H18 non d ame     -32.168   4.404  23.846  0.00  0.00     0.028 H 
ENDBRANCH  33  39
ENDBRANCH   7  33
ENDBRANCH   4   7
ENDBRANCH   1   3
BRANCH   1  43
ATOM     43  C15 non d ame     -31.988  11.765  25.622  0.00  0.00     0.240 C 
ATOM     44  O5  non d ame     -30.931  11.415  26.038  0.00  0.00    -0.271 OA
ATOM     45  N6  non d ame     -32.121  13.093  24.957  0.00  0.00    -0.355 N 
ATOM     46  H46 non d ame     -33.012  13.399  24.596  0.00  0.00     0.162 HD
BRANCH  45  47
ATOM     47  C20 non d ame     -30.936  13.968  24.825  0.00  0.00     0.013 C 
ATOM     48  H30 non d ame     -30.162  13.588  25.493  0.00  0.00     0.072 H 
BRANCH  47  49
ATOM     49  C21 non d ame     -31.310  15.379  25.218  0.00  0.00    -0.038 C 
ATOM     50  H31 non d ame     -30.842  15.549  26.188  0.00  0.00     0.036 H 
ATOM     51  H32 non d ame     -31.041  16.003  24.365  0.00  0.00     0.036 H 
BRANCH  49  52
ATOM     52  C22 non d ame     -32.829  15.559  25.429  0.00  0.00     0.018 C 
ATOM     53  H33 non d ame     -33.209  15.976  24.497  0.00  0.00     0.048 H 
ATOM     54  H34 non d ame     -33.194  14.595  25.784  0.00  0.00     0.048 H 
BRANCH  52  55
ATOM     55  C23 non d ame     -33.190  16.587  26.537  0.00  0.00     0.259 C 
ATOM     56  O7  non d ame     -33.853  17.540  26.283  0.00  0.00    -0.265 OA
BRANCH  55  57
ATOM     57  O8  non d ame     -32.708  16.384  27.860  0.00  0.00    -0.317 OA
BRANCH  57  58
ATOM     58  C29 non d ame     -33.455  15.423  28.610  0.00  0.00     0.052 C 
ATOM     59  H47 non d ame     -33.780  15.941  29.513  0.00  0.00     0.082 H 
ATOM     60  H48 non d ame     -34.194  15.018  27.919  0.00  0.00     0.082 H 
BRANCH  58  61
ATOM     61  C35 non d ame     -32.489  14.280  29.021  0.00  0.00    -0.034 A 
ATOM     62  C30 non d ame     -31.165  14.301  28.595  0.00  0.00    -0.075 A 
ATOM     63  C31 non d ame     -30.296  13.274  28.963  0.00  0.00    -0.082 A 
ATOM     64  H49 non d ame     -30.807  15.121  27.972  0.00  0.00     0.084 H 
ATOM     65  C32 non d ame     -30.758  12.222  29.759  0.00  0.00    -0.083 A 
ATOM     66  H50 non d ame     -29.259  13.294  28.629  0.00  0.00     0.083 H 
ATOM     67  C33 non d ame     -32.081  12.204  30.179  0.00  0.00    -0.082 A 
ATOM     68  H51 non d ame     -30.085  11.415  30.052  0.00  0.00     0.083 H 
ATOM     69  C34 non d ame     -32.951  13.229  29.815  0.00  0.00    -0.075 A 
ATOM     70  H52 non d ame     -32.438  11.380  30.798  0.00  0.00     0.083 H 
ATOM     71  H53 non d ame     -33.989  13.208  30.149  0.00  0.00     0.084 H 
ENDBRANCH  58  61
ENDBRANCH  57  58
ENDBRANCH  55  57
ENDBRANCH  52  55
ENDBRANCH  49  52
ENDBRANCH  47  49
BRANCH  47  72
ATOM     72  C24 non d ame     -30.442  13.955  23.380  0.00  0.00    -0.039 C 
ATOM     73  H35 non d ame     -29.501  13.405  23.400  0.00  0.00     0.036 H 
ATOM     74  H36 non d ame     -31.279  13.580  22.791  0.00  0.00     0.036 H 
BRANCH  72  75
ATOM     75  C25 non d ame     -30.117  15.432  22.851  0.00  0.00    -0.001 C 
ATOM     76  C26 non d ame     -31.262  15.905  21.771  0.00  0.00    -0.035 C 
ATOM     77  C27 non d ame     -30.646  16.346  20.647  0.00  0.00     0.085 C 
ATOM     78  H38 non d ame     -31.831  15.042  21.427  0.00  0.00     0.036 H 
ATOM     79  H39 non d ame     -31.782  16.789  22.140  0.00  0.00     0.036 H 
ATOM     80  N5  non d ame     -29.203  15.913  20.736  0.00  0.00    -0.049 N 
ATOM     81  H40 non d ame     -31.127  15.816  19.825  0.00  0.00     0.075 H 
ATOM     82  H41 non d ame     -30.694  17.433  20.697  0.00  0.00     0.075 H 
ATOM     83  C28 non d ame     -28.963  15.477  22.272  0.00  0.00     0.193 C 
ATOM     84  H42 non d ame     -29.114  15.094  20.152  0.00  0.00     0.280 HD
ATOM     85  H43 non d ame     -28.646  16.734  20.544  0.00  0.00     0.280 HD
ATOM     86  H44 non d ame     -28.424  16.133  22.956  0.00  0.00     0.129 H 
ATOM     87  H37 non d ame     -29.888  16.120  23.665  0.00  0.00     0.046 H 
BRANCH  83  88
ATOM     88  O6  non d ame     -28.282  14.223  22.328  0.00  0.00    -0.369 OA
ATOM     89  H45 non d ame     -27.368  14.342  22.059  0.00  0.00     0.212 HD
ENDBRANCH  83  88
ENDBRANCH  72  75
ENDBRANCH  47  72
ENDBRANCH  45  47
ENDBRANCH   1  43
BRANCH   1  90
ATOM     90  C16 non d ame     -33.973  11.172  27.046  0.00  0.00    -0.035 C 
ATOM     91  H21 non d ame     -34.039  10.236  27.600  0.00  0.00     0.037 H 
ATOM     92  H22 non d ame     -33.443  12.023  27.474  0.00  0.00     0.037 H 
BRANCH  90  93
ATOM     93  C17 non d ame     -35.442  11.645  26.804  0.00  0.00    -0.059 C 
ATOM     94  H23 non d ame     -35.766  11.242  25.845  0.00  0.00     0.038 H 
BRANCH  93  95
ATOM     95  C18 non d ame     -36.421  11.111  27.899  0.00  0.00    -0.073 C 
ATOM     96  H24 non d ame     -36.007  11.312  28.886  0.00  0.00     0.028 H 
ATOM     97  H25 non d ame     -37.384  11.612  27.801  0.00  0.00     0.028 H 
ATOM     98  H26 non d ame     -36.556  10.037  27.773  0.00  0.00     0.028 H 
ENDBRANCH  93  95
BRANCH  93  99
ATOM     99  C19 non d ame     -35.517  13.171  26.705  0.00  0.00    -0.073 C 
ATOM    100  H27 non d ame     -35.206  13.612  27.652  0.00  0.00     0.028 H 
ATOM    101  H28 non d ame     -34.856  13.516  25.909  0.00  0.00     0.028 H 
ATOM    102  H29 non d ame     -36.540  13.471  26.482  0.00  0.00     0.028 H 
ENDBRANCH  93  99
ENDBRANCH  90  93
ENDBRANCH   1  90
TORSDOF 26
ENDMDL
MODEL 7
REMARK VINA RESULT:      -6.7      2.539      7.840
REMARK  26 active torsions:
REMARK  status: ('A' for Active; 'I' for Inactive)
REMARK    1  A    between atoms: C2_2  and  C3_3 
REMARK    2  A    between atoms: C4_6  and  C5_7 
REMARK       I    between atoms: C5_7  and  N2_9 
REMARK    3  A    between atoms: N2_9  and  C6_10 
REMARK    4  A    between atoms: C6_10  and  C7_11 
REMARK    5  A    between atoms: C6_10  and  C8_13 
REMARK       I    between atoms: C7_11  and  N3_14 
REMARK    6  A    between atoms: N3_14  and  C9_15 
REMARK    7  A    between atoms: C9_15  and  C10_16 
REMARK    8  A    between atoms: C9_15  and  C11_18 
REMARK       I    between atoms: C10_16  and  N4_21 
REMARK    9  A    between atoms: C11_18  and  C12_19 
REMARK   10  A    between atoms: C11_18  and  C13_20 
REMARK   11  A    between atoms: N4_21  and  C14_22 
REMARK   12  A    between atoms: C14_22  and  C15_23 
REMARK   13  A    between atoms: C14_22  and  C16_25 
REMARK       I    between atoms: C15_23  and  N6_40 
REMARK   14  A    between atoms: C16_25  and  C17_26 
REMARK   15  A    between atoms: C17_26  and  C18_27 
REMARK   16  A    between atoms: C17_26  and  C19_28 
REMARK   17  A    between atoms: C20_29  and  C21_30 
REMARK   18  A    between atoms: C20_29  and  C24_33 
REMARK   19  A    between atoms: C20_29  and  N6_40 
REMARK   20  A    between atoms: C21_30  and  C22_31 
REMARK   21  A    between atoms: C22_31  and  C23_32 
REMARK   22  A    between atoms: C23_32  and  O8_43 
REMARK   23  A    between atoms: C24_33  and  C25_34 
REMARK   24  A    between atoms: C28_38  and  O6_39 
REMARK   25  A    between atoms: C29_42  and  O8_43 
REMARK   26  A    between atoms: C29_42  and  C35_49 
ROOT
ATOM      1  C14 non d ame     -36.534  15.947  26.564  0.00  0.00     0.089 C 
ATOM      2  H20 non d ame     -37.142  16.468  27.303  0.00  0.00     0.087 H 
ENDROOT
BRANCH   1   3
ATOM      3  N4  non d ame     -35.140  16.114  26.947  0.00  0.00    -0.346 N 
ATOM      4  C10 non d ame     -34.736  17.223  27.886  0.00  0.00     0.241 C 
ATOM      5  O4  non d ame     -35.550  17.971  28.317  0.00  0.00    -0.271 OA
ATOM      6  H19 non d ame     -34.462  15.469  26.567  0.00  0.00     0.163 HD
BRANCH   4   7
ATOM      7  C9  non d ame     -33.289  17.378  28.276  0.00  0.00     0.092 C 
ATOM      8  H11 non d ame     -33.231  17.869  29.248  0.00  0.00     0.088 H 
BRANCH   7   9
ATOM      9  N3  non d ame     -32.678  16.054  28.422  0.00  0.00    -0.346 N 
ATOM     10  C7  non d ame     -31.776  15.794  29.518  0.00  0.00     0.240 C 
ATOM     11  O3  non d ame     -31.531  16.638  30.290  0.00  0.00    -0.271 OA
ATOM     12  H10 non d ame     -32.878  15.316  27.763  0.00  0.00     0.163 HD
BRANCH  10  13
ATOM     13  C6  non d ame     -31.126  14.383  29.666  0.00  0.00     0.086 C 
ATOM     14  H6  non d ame     -30.443  14.321  30.513  0.00  0.00     0.086 H 
BRANCH  13  15
ATOM     15  N2  non d ame     -32.173  13.404  29.904  0.00  0.00    -0.343 N 
ATOM     16  C5  non d ame     -31.852  12.160  30.607  0.00  0.00     0.273 C 
ATOM     17  O2  non d ame     -30.748  11.956  30.975  0.00  0.00    -0.266 OA
ATOM     18  H5  non d ame     -33.114  13.585  29.583  0.00  0.00     0.163 HD
BRANCH  16  19
ATOM     19  C4  non d ame     -32.950  11.116  30.867  0.00  0.00     0.154 A 
ATOM     20  C1  non d ame     -33.336  10.037  30.011  0.00  0.00    -0.017 A 
ATOM     21  C2  non d ame     -34.378   9.380  30.702  0.00  0.00     0.077 A 
ATOM     22  H1  non d ame     -32.923   9.771  29.037  0.00  0.00     0.091 H 
ATOM     23  O1  non d ame     -34.560  10.015  31.822  0.00  0.00    -0.218 OA
ATOM     24  N1  non d ame     -33.739  11.032  31.941  0.00  0.00    -0.123 NA
BRANCH  21  25
ATOM     25  C3  non d ame     -35.145   8.154  30.223  0.00  0.00    -0.029 C 
ATOM     26  H2  non d ame     -34.453   7.447  29.768  0.00  0.00     0.036 H 
ATOM     27  H3  non d ame     -35.641   7.682  31.071  0.00  0.00     0.036 H 
ATOM     28  H4  non d ame     -35.891   8.456  29.488  0.00  0.00     0.036 H 
ENDBRANCH  21  25
ENDBRANCH  16  19
ENDBRANCH  13  15
BRANCH  13  29
ATOM     29  C8  non d ame     -30.373  14.039  28.406  0.00  0.00    -0.049 C 
ATOM     30  H7  non d ame     -29.310  13.954  28.630  0.00  0.00     0.030 H 
ATOM     31  H8  non d ame     -30.738  13.090  28.013  0.00  0.00     0.030 H 
ATOM     32  H9  non d ame     -30.526  14.823  27.665  0.00  0.00     0.030 H 
ENDBRANCH  13  29
ENDBRANCH  10  13
ENDBRANCH   7   9
BRANCH   7  33
ATOM     33  C11 non d ame     -32.536  18.175  27.171  0.00  0.00    -0.033 C 
ATOM     34  H12 non d ame     -31.471  17.980  27.293  0.00  0.00     0.042 H 
BRANCH  33  35
ATOM     35  C12 non d ame     -32.942  17.691  25.744  0.00  0.00    -0.071 C 
ATOM     36  H13 non d ame     -33.702  18.358  25.336  0.00  0.00     0.028 H 
ATOM     37  H14 non d ame     -32.066  17.698  25.096  0.00  0.00     0.028 H 
ATOM     38  H15 non d ame     -33.342  16.679  25.805  0.00  0.00     0.028 H 
ENDBRANCH  33  35
BRANCH  33  39
ATOM     39  C13 non d ame     -32.767  19.712  27.335  0.00  0.00    -0.071 C 
ATOM     40  H16 non d ame     -31.924  20.152  27.868  0.00  0.00     0.028 H 
ATOM     41  H17 non d ame     -32.855  20.173  26.350  0.00  0.00     0.028 H 
ATOM     42  H18 non d ame     -33.684  19.884  27.898  0.00  0.00     0.028 H 
ENDBRANCH  33  39
ENDBRANCH   7  33
ENDBRANCH   4   7
ENDBRANCH   1   3
BRANCH   1  43
ATOM     43  C15 non d ame     -36.853  14.426  26.507  0.00  0.00     0.240 C 
ATOM     44  O5  non d ame     -37.901  14.027  26.901  0.00  0.00    -0.271 OA
ATOM     45  N6  non d ame     -35.855  13.467  25.954  0.00  0.00    -0.355 N 
ATOM     46  H46 non d ame     -34.963  13.794  25.611  0.00  0.00     0.162 HD
BRANCH  45  47
ATOM     47  C20 non d ame     -36.174  12.023  25.905  0.00  0.00     0.013 C 
ATOM     48  H30 non d ame     -37.060  11.855  26.517  0.00  0.00     0.072 H 
BRANCH  47  49
ATOM     49  C21 non d ame     -35.008  11.235  26.457  0.00  0.00    -0.038 C 
ATOM     50  H31 non d ame     -35.419  10.624  27.261  0.00  0.00     0.036 H 
ATOM     51  H32 non d ame     -34.540  10.760  25.595  0.00  0.00     0.036 H 
BRANCH  49  52
ATOM     52  C22 non d ame     -33.928  12.133  27.101  0.00  0.00     0.018 C 
ATOM     53  H33 non d ame     -34.264  13.157  26.942  0.00  0.00     0.048 H 
ATOM     54  H34 non d ame     -33.794  11.753  28.114  0.00  0.00     0.048 H 
BRANCH  52  55
ATOM     55  C23 non d ame     -32.537  12.028  26.416  0.00  0.00     0.259 C 
ATOM     56  O7  non d ame     -31.759  11.196  26.756  0.00  0.00    -0.265 OA
BRANCH  55  57
ATOM     57  O8  non d ame     -32.197  12.946  25.385  0.00  0.00    -0.317 OA
BRANCH  57  58
ATOM     58  C29 non d ame     -31.123  12.509  24.547  0.00  0.00     0.052 C 
ATOM     59  H47 non d ame     -30.269  12.371  25.211  0.00  0.00     0.082 H 
ATOM     60  H48 non d ame     -31.515  11.665  23.981  0.00  0.00     0.082 H 
BRANCH  58  61
ATOM     61  C35 non d ame     -30.793  13.655  23.554  0.00  0.00    -0.034 A 
ATOM     62  C30 non d ame     -31.391  14.902  23.706  0.00  0.00    -0.075 A 
ATOM     63  C31 non d ame     -31.095  15.932  22.814  0.00  0.00    -0.082 A 
ATOM     64  H49 non d ame     -32.091  15.073  24.524  0.00  0.00     0.084 H 
ATOM     65  C32 non d ame     -30.200  15.710  21.765  0.00  0.00    -0.083 A 
ATOM     66  H50 non d ame     -31.564  16.909  22.937  0.00  0.00     0.083 H 
ATOM     67  C33 non d ame     -29.608  14.463  21.615  0.00  0.00    -0.082 A 
ATOM     68  H51 non d ame     -29.962  16.510  21.063  0.00  0.00     0.083 H 
ATOM     69  C34 non d ame     -29.899  13.432  22.505  0.00  0.00    -0.075 A 
ATOM     70  H52 non d ame     -28.911  14.293  20.794  0.00  0.00     0.083 H 
ATOM     71  H53 non d ame     -29.430  12.456  22.382  0.00  0.00     0.084 H 
ENDBRANCH  58  61
ENDBRANCH  57  58
ENDBRANCH  55  57
ENDBRANCH  52  55
ENDBRANCH  49  52
ENDBRANCH  47  49
BRANCH  47  72
ATOM     72  C24 non d ame     -36.438  11.601  24.462  0.00  0.00    -0.039 C 
ATOM     73  H35 non d ame     -35.836  12.272  23.848  0.00  0.00     0.036 H 
ATOM     74  H36 non d ame     -36.253  10.527  24.436  0.00  0.00     0.036 H 
BRANCH  72  75
ATOM     75  C25 non d ame     -37.969  11.827  24.048  0.00  0.00    -0.001 C 
ATOM     76  C26 non d ame     -38.566  10.466  23.344  0.00  0.00    -0.035 C 
ATOM     77  C27 non d ame     -39.142  10.801  22.165  0.00  0.00     0.085 C 
ATOM     78  H38 non d ame     -37.749   9.808  23.051  0.00  0.00     0.036 H 
ATOM     79  H39 non d ame     -39.397  10.075  23.932  0.00  0.00     0.036 H 
ATOM     80  N5  non d ame     -38.705  12.211  21.846  0.00  0.00    -0.049 N 
ATOM     81  H40 non d ame     -38.714  10.121  21.429  0.00  0.00     0.075 H 
ATOM     82  H41 non d ame     -40.215  10.796  22.353  0.00  0.00     0.075 H 
ATOM     83  C28 non d ame     -38.088  12.805  23.214  0.00  0.00     0.193 C 
ATOM     84  H42 non d ame     -37.964  12.134  21.165  0.00  0.00     0.280 HD
ATOM     85  H43 non d ame     -39.545  12.726  21.621  0.00  0.00     0.280 HD
ATOM     86  H44 non d ame     -38.657  13.512  23.817  0.00  0.00     0.129 H 
ATOM     87  H37 non d ame     -38.554  12.265  24.857  0.00  0.00     0.046 H 
BRANCH  83  88
ATOM     88  O6  non d ame     -36.838  13.446  22.953  0.00  0.00    -0.369 OA
ATOM     89  H45 non d ame     -36.954  14.399  22.984  0.00  0.00     0.212 HD
ENDBRANCH  83  88
ENDBRANCH  72  75
ENDBRANCH  47  72
ENDBRANCH  45  47
ENDBRANCH   1  43
BRANCH   1  90
ATOM     90  C16 non d ame     -36.748  16.566  25.192  0.00  0.00    -0.035 C 
ATOM     91  H21 non d ame     -35.751  16.691  24.772  0.00  0.00     0.037 H 
ATOM     92  H22 non d ame     -37.472  15.920  24.694  0.00  0.00     0.037 H 
BRANCH  90  93
ATOM     93  C17 non d ame     -37.389  17.990  25.240  0.00  0.00    -0.059 C 
ATOM     94  H23 non d ame     -37.825  18.123  26.229  0.00  0.00     0.038 H 
BRANCH  93  95
ATOM     95  C18 non d ame     -36.330  19.119  25.030  0.00  0.00    -0.073 C 
ATOM     96  H24 non d ame     -36.109  19.218  23.967  0.00  0.00     0.028 H 
ATOM     97  H25 non d ame     -36.724  20.062  25.408  0.00  0.00     0.028 H 
ATOM     98  H26 non d ame     -35.417  18.866  25.568  0.00  0.00     0.028 H 
ENDBRANCH  93  95
BRANCH  93  99
ATOM     99  C19 non d ame     -38.525  18.113  24.221  0.00  0.00    -0.073 C 
ATOM    100  H27 non d ame     -38.258  17.574  23.312  0.00  0.00     0.028 H 
ATOM    101  H28 non d ame     -39.437  17.687  24.641  0.00  0.00     0.028 H 
ATOM    102  H29 non d ame     -38.690  19.164  23.986  0.00  0.00     0.028 H 
ENDBRANCH  93  99
ENDBRANCH  90  93
ENDBRANCH   1  90
TORSDOF 26
ENDMDL
MODEL 8
REMARK VINA RESULT:      -6.7      3.635      6.367
REMARK  26 active torsions:
REMARK  status: ('A' for Active; 'I' for Inactive)
REMARK    1  A    between atoms: C2_2  and  C3_3 
REMARK    2  A    between atoms: C4_6  and  C5_7 
REMARK       I    between atoms: C5_7  and  N2_9 
REMARK    3  A    between atoms: N2_9  and  C6_10 
REMARK    4  A    between atoms: C6_10  and  C7_11 
REMARK    5  A    between atoms: C6_10  and  C8_13 
REMARK       I    between atoms: C7_11  and  N3_14 
REMARK    6  A    between atoms: N3_14  and  C9_15 
REMARK    7  A    between atoms: C9_15  and  C10_16 
REMARK    8  A    between atoms: C9_15  and  C11_18 
REMARK       I    between atoms: C10_16  and  N4_21 
REMARK    9  A    between atoms: C11_18  and  C12_19 
REMARK   10  A    between atoms: C11_18  and  C13_20 
REMARK   11  A    between atoms: N4_21  and  C14_22 
REMARK   12  A    between atoms: C14_22  and  C15_23 
REMARK   13  A    between atoms: C14_22  and  C16_25 
REMARK       I    between atoms: C15_23  and  N6_40 
REMARK   14  A    between atoms: C16_25  and  C17_26 
REMARK   15  A    between atoms: C17_26  and  C18_27 
REMARK   16  A    between atoms: C17_26  and  C19_28 
REMARK   17  A    between atoms: C20_29  and  C21_30 
REMARK   18  A    between atoms: C20_29  and  C24_33 
REMARK   19  A    between atoms: C20_29  and  N6_40 
REMARK   20  A    between atoms: C21_30  and  C22_31 
REMARK   21  A    between atoms: C22_31  and  C23_32 
REMARK   22  A    between atoms: C23_32  and  O8_43 
REMARK   23  A    between atoms: C24_33  and  C25_34 
REMARK   24  A    between atoms: C28_38  and  O6_39 
REMARK   25  A    between atoms: C29_42  and  O8_43 
REMARK   26  A    between atoms: C29_42  and  C35_49 
ROOT
ATOM      1  C14 non d ame     -32.793  10.306  25.671  0.00  0.00     0.089 C 
ATOM      2  H20 non d ame     -33.627  10.374  24.972  0.00  0.00     0.087 H 
ENDROOT
BRANCH   1   3
ATOM      3  N4  non d ame     -32.286   8.943  25.617  0.00  0.00    -0.346 N 
ATOM      4  C10 non d ame     -33.033   7.883  24.848  0.00  0.00     0.241 C 
ATOM      5  O4  non d ame     -34.042   8.149  24.283  0.00  0.00    -0.271 OA
ATOM      6  H19 non d ame     -31.427   8.736  26.107  0.00  0.00     0.163 HD
BRANCH   4   7
ATOM      7  C9  non d ame     -32.491   6.478  24.799  0.00  0.00     0.092 C 
ATOM      8  H11 non d ame     -31.419   6.500  24.998  0.00  0.00     0.088 H 
BRANCH   7   9
ATOM      9  N3  non d ame     -33.112   5.677  25.858  0.00  0.00    -0.346 N 
ATOM     10  C7  non d ame     -32.645   5.793  27.217  0.00  0.00     0.240 C 
ATOM     11  O3  non d ame     -31.770   6.525  27.477  0.00  0.00    -0.271 OA
ATOM     12  H10 non d ame     -33.867   5.039  25.649  0.00  0.00     0.163 HD
BRANCH  10  13
ATOM     13  C6  non d ame     -33.308   4.935  28.339  0.00  0.00     0.086 C 
ATOM     14  H6  non d ame     -32.676   4.834  29.222  0.00  0.00     0.086 H 
BRANCH  13  15
ATOM     15  N2  non d ame     -34.530   5.590  28.774  0.00  0.00    -0.343 N 
ATOM     16  C5  non d ame     -34.919   5.528  30.185  0.00  0.00     0.273 C 
ATOM     17  O2  non d ame     -34.244   4.945  30.961  0.00  0.00    -0.266 OA
ATOM     18  H5  non d ame     -35.102   6.084  28.104  0.00  0.00     0.163 HD
BRANCH  16  19
ATOM     19  C4  non d ame     -36.207   6.218  30.659  0.00  0.00     0.154 A 
ATOM     20  C1  non d ame     -36.467   7.624  30.709  0.00  0.00    -0.017 A 
ATOM     21  C2  non d ame     -37.782   7.734  31.214  0.00  0.00     0.077 A 
ATOM     22  H1  non d ame     -35.804   8.440  30.422  0.00  0.00     0.091 H 
ATOM     23  O1  non d ame     -38.217   6.526  31.425  0.00  0.00    -0.218 OA
ATOM     24  N1  non d ame     -37.316   5.625  31.109  0.00  0.00    -0.123 NA
BRANCH  21  25
ATOM     25  C3  non d ame     -38.547   9.026  31.464  0.00  0.00    -0.029 C 
ATOM     26  H2  non d ame     -39.535   8.958  31.008  0.00  0.00     0.036 H 
ATOM     27  H3  non d ame     -38.653   9.184  32.537  0.00  0.00     0.036 H 
ATOM     28  H4  non d ame     -38.002   9.862  31.026  0.00  0.00     0.036 H 
ENDBRANCH  21  25
ENDBRANCH  16  19
ENDBRANCH  13  15
BRANCH  13  29
ATOM     29  C8  non d ame     -33.621   3.560  27.805  0.00  0.00    -0.049 C 
ATOM     30  H7  non d ame     -34.702   3.432  27.745  0.00  0.00     0.030 H 
ATOM     31  H8  non d ame     -33.186   3.448  26.812  0.00  0.00     0.030 H 
ATOM     32  H9  non d ame     -33.203   2.807  28.473  0.00  0.00     0.030 H 
ENDBRANCH  13  29
ENDBRANCH  10  13
ENDBRANCH   7   9
BRANCH   7  33
ATOM     33  C11 non d ame     -32.816   5.845  23.414  0.00  0.00    -0.033 C 
ATOM     34  H12 non d ame     -33.683   6.368  23.010  0.00  0.00     0.042 H 
BRANCH  33  35
ATOM     35  C12 non d ame     -31.639   6.041  22.409  0.00  0.00    -0.071 C 
ATOM     36  H13 non d ame     -30.783   6.469  22.931  0.00  0.00     0.028 H 
ATOM     37  H14 non d ame     -31.360   5.078  21.983  0.00  0.00     0.028 H 
ATOM     38  H15 non d ame     -31.951   6.715  21.611  0.00  0.00     0.028 H 
ENDBRANCH  33  35
BRANCH  33  39
ATOM     39  C13 non d ame     -33.188   4.335  23.563  0.00  0.00    -0.071 C 
ATOM     40  H16 non d ame     -32.398   3.722  23.130  0.00  0.00     0.028 H 
ATOM     41  H17 non d ame     -33.301   4.091  24.620  0.00  0.00     0.028 H 
ATOM     42  H18 non d ame     -34.127   4.139  23.044  0.00  0.00     0.028 H 
ENDBRANCH  33  39
ENDBRANCH   7  33
ENDBRANCH   4   7
ENDBRANCH   1   3
BRANCH   1  43
ATOM     43  C15 non d ame     -31.637  11.280  25.302  0.00  0.00     0.240 C 
ATOM     44  O5  non d ame     -30.521  10.877  25.245  0.00  0.00    -0.271 OA
ATOM     45  N6  non d ame     -31.924  12.713  25.011  0.00  0.00    -0.355 N 
ATOM     46  H46 non d ame     -32.869  13.066  25.051  0.00  0.00     0.162 HD
BRANCH  45  47
ATOM     47  C20 non d ame     -30.814  13.626  24.660  0.00  0.00     0.013 C 
ATOM     48  H30 non d ame     -29.887  13.180  25.020  0.00  0.00     0.072 H 
BRANCH  47  49
ATOM     49  C21 non d ame     -31.037  14.964  25.327  0.00  0.00    -0.038 C 
ATOM     50  H31 non d ame     -30.726  14.832  26.364  0.00  0.00     0.036 H 
ATOM     51  H32 non d ame     -30.533  15.696  24.695  0.00  0.00     0.036 H 
BRANCH  49  52
ATOM     52  C22 non d ame     -32.526  15.373  25.367  0.00  0.00     0.018 C 
ATOM     53  H33 non d ame     -32.801  15.588  24.335  0.00  0.00     0.048 H 
ATOM     54  H34 non d ame     -33.036  14.579  25.913  0.00  0.00     0.048 H 
BRANCH  52  55
ATOM     55  C23 non d ame     -32.795  16.680  26.163  0.00  0.00     0.259 C 
ATOM     56  O7  non d ame     -32.468  17.734  25.720  0.00  0.00    -0.265 OA
BRANCH  55  57
ATOM     57  O8  non d ame     -33.427  16.604  27.435  0.00  0.00    -0.317 OA
BRANCH  57  58
ATOM     58  C29 non d ame     -32.529  16.736  28.540  0.00  0.00     0.052 C 
ATOM     59  H47 non d ame     -31.615  17.163  28.128  0.00  0.00     0.082 H 
ATOM     60  H48 non d ame     -33.083  17.273  29.309  0.00  0.00     0.082 H 
BRANCH  58  61
ATOM     61  C35 non d ame     -32.210  15.312  29.070  0.00  0.00    -0.034 A 
ATOM     62  C30 non d ame     -31.001  15.062  29.711  0.00  0.00    -0.075 A 
ATOM     63  C31 non d ame     -30.714  13.784  30.186  0.00  0.00    -0.082 A 
ATOM     64  H49 non d ame     -30.277  15.868  29.839  0.00  0.00     0.084 H 
ATOM     65  C32 non d ame     -31.641  12.752  30.017  0.00  0.00    -0.083 A 
ATOM     66  H50 non d ame     -29.766  13.591  30.689  0.00  0.00     0.083 H 
ATOM     67  C33 non d ame     -32.845  13.006  29.374  0.00  0.00    -0.082 A 
ATOM     68  H51 non d ame     -31.425  11.749  30.387  0.00  0.00     0.083 H 
ATOM     69  C34 non d ame     -33.137  14.282  28.899  0.00  0.00    -0.075 A 
ATOM     70  H52 non d ame     -33.566  12.198  29.242  0.00  0.00     0.083 H 
ATOM     71  H53 non d ame     -34.085  14.474  28.396  0.00  0.00     0.084 H 
ENDBRANCH  58  61
ENDBRANCH  57  58
ENDBRANCH  55  57
ENDBRANCH  52  55
ENDBRANCH  49  52
ENDBRANCH  47  49
BRANCH  47  72
ATOM     72  C24 non d ame     -30.759  13.814  23.145  0.00  0.00    -0.039 C 
ATOM     73  H35 non d ame     -30.082  13.041  22.781  0.00  0.00     0.036 H 
ATOM     74  H36 non d ame     -31.798  13.827  22.817  0.00  0.00     0.036 H 
BRANCH  72  75
ATOM     75  C25 non d ame     -30.120  15.228  22.747  0.00  0.00    -0.001 C 
ATOM     76  C26 non d ame     -31.227  16.134  21.936  0.00  0.00    -0.035 C 
ATOM     77  C27 non d ame     -30.668  16.579  20.785  0.00  0.00     0.085 C 
ATOM     78  H38 non d ame     -32.047  15.504  21.593  0.00  0.00     0.036 H 
ATOM     79  H39 non d ame     -31.437  17.050  22.488  0.00  0.00     0.036 H 
ATOM     80  N5  non d ame     -29.396  15.793  20.579  0.00  0.00    -0.049 N 
ATOM     81  H40 non d ame     -31.377  16.321  19.998  0.00  0.00     0.075 H 
ATOM     82  H41 non d ame     -30.414  17.622  20.969  0.00  0.00     0.075 H 
ATOM     83  C28 non d ame     -29.083  15.076  21.992  0.00  0.00     0.193 C 
ATOM     84  H42 non d ame     -29.607  15.079  19.896  0.00  0.00     0.280 HD
ATOM     85  H43 non d ame     -28.669  16.469  20.394  0.00  0.00     0.280 HD
ATOM     86  H44 non d ame     -28.302  15.461  22.647  0.00  0.00     0.129 H 
ATOM     87  H37 non d ame     -29.610  15.702  23.585  0.00  0.00     0.046 H 
BRANCH  83  88
ATOM     88  O6  non d ame     -28.764  13.699  21.786  0.00  0.00    -0.369 OA
ATOM     89  H45 non d ame     -28.282  13.365  22.546  0.00  0.00     0.212 HD
ENDBRANCH  83  88
ENDBRANCH  72  75
ENDBRANCH  47  72
ENDBRANCH  45  47
ENDBRANCH   1  43
BRANCH   1  90
ATOM     90  C16 non d ame     -33.278  10.600  27.081  0.00  0.00    -0.035 C 
ATOM     91  H21 non d ame     -32.385  10.873  27.643  0.00  0.00     0.037 H 
ATOM     92  H22 non d ame     -34.089  11.320  26.964  0.00  0.00     0.037 H 
BRANCH  90  93
ATOM     93  C17 non d ame     -33.891   9.359  27.804  0.00  0.00    -0.059 C 
ATOM     94  H23 non d ame     -33.412   8.469  27.397  0.00  0.00     0.038 H 
BRANCH  93  95
ATOM     95  C18 non d ame     -33.624   9.382  29.344  0.00  0.00    -0.073 C 
ATOM     96  H24 non d ame     -33.505   8.362  29.707  0.00  0.00     0.028 H 
ATOM     97  H25 non d ame     -32.715   9.947  29.546  0.00  0.00     0.028 H 
ATOM     98  H26 non d ame     -34.466   9.853  29.851  0.00  0.00     0.028 H 
ENDBRANCH  93  95
BRANCH  93  99
ATOM     99  C19 non d ame     -35.390   9.242  27.514  0.00  0.00    -0.073 C 
ATOM    100  H27 non d ame     -35.742  10.160  27.042  0.00  0.00     0.028 H 
ATOM    101  H28 non d ame     -35.566   8.400  26.844  0.00  0.00     0.028 H 
ATOM    102  H29 non d ame     -35.930   9.082  28.446  0.00  0.00     0.028 H 
ENDBRANCH  93  99
ENDBRANCH  90  93
ENDBRANCH   1  90
TORSDOF 26
ENDMDL
MODEL 9
REMARK VINA RESULT:      -6.6      3.380      8.477
REMARK  26 active torsions:
REMARK  status: ('A' for Active; 'I' for Inactive)
REMARK    1  A    between atoms: C2_2  and  C3_3 
REMARK    2  A    between atoms: C4_6  and  C5_7 
REMARK       I    between atoms: C5_7  and  N2_9 
REMARK    3  A    between atoms: N2_9  and  C6_10 
REMARK    4  A    between atoms: C6_10  and  C7_11 
REMARK    5  A    between atoms: C6_10  and  C8_13 
REMARK       I    between atoms: C7_11  and  N3_14 
REMARK    6  A    between atoms: N3_14  and  C9_15 
REMARK    7  A    between atoms: C9_15  and  C10_16 
REMARK    8  A    between atoms: C9_15  and  C11_18 
REMARK       I    between atoms: C10_16  and  N4_21 
REMARK    9  A    between atoms: C11_18  and  C12_19 
REMARK   10  A    between atoms: C11_18  and  C13_20 
REMARK   11  A    between atoms: N4_21  and  C14_22 
REMARK   12  A    between atoms: C14_22  and  C15_23 
REMARK   13  A    between atoms: C14_22  and  C16_25 
REMARK       I    between atoms: C15_23  and  N6_40 
REMARK   14  A    between atoms: C16_25  and  C17_26 
REMARK   15  A    between atoms: C17_26  and  C18_27 
REMARK   16  A    between atoms: C17_26  and  C19_28 
REMARK   17  A    between atoms: C20_29  and  C21_30 
REMARK   18  A    between atoms: C20_29  and  C24_33 
REMARK   19  A    between atoms: C20_29  and  N6_40 
REMARK   20  A    between atoms: C21_30  and  C22_31 
REMARK   21  A    between atoms: C22_31  and  C23_32 
REMARK   22  A    between atoms: C23_32  and  O8_43 
REMARK   23  A    between atoms: C24_33  and  C25_34 
REMARK   24  A    between atoms: C28_38  and  O6_39 
REMARK   25  A    between atoms: C29_42  and  O8_43 
REMARK   26  A    between atoms: C29_42  and  C35_49 
ROOT
ATOM      1  C14 non d ame     -32.866  10.767  29.807  0.00  0.00     0.089 C 
ATOM      2  H20 non d ame     -31.830  10.450  29.681  0.00  0.00     0.087 H 
ENDROOT
BRANCH   1   3
ATOM      3  N4  non d ame     -33.439  10.930  28.480  0.00  0.00    -0.346 N 
ATOM      4  C10 non d ame     -32.543  11.065  27.274  0.00  0.00     0.241 C 
ATOM      5  O4  non d ame     -31.363  11.043  27.398  0.00  0.00    -0.271 OA
ATOM      6  H19 non d ame     -34.446  10.948  28.396  0.00  0.00     0.163 HD
BRANCH   4   7
ATOM      7  C9  non d ame     -33.154  11.227  25.907  0.00  0.00     0.092 C 
ATOM      8  H11 non d ame     -34.225  11.035  25.968  0.00  0.00     0.088 H 
BRANCH   7   9
ATOM      9  N3  non d ame     -32.987  12.612  25.458  0.00  0.00    -0.346 N 
ATOM     10  C7  non d ame     -33.686  13.678  26.133  0.00  0.00     0.240 C 
ATOM     11  O3  non d ame     -34.388  13.438  27.039  0.00  0.00    -0.271 OA
ATOM     12  H10 non d ame     -32.387  12.834  24.677  0.00  0.00     0.163 HD
BRANCH  10  13
ATOM     13  C6  non d ame     -33.507  15.150  25.648  0.00  0.00     0.086 C 
ATOM     14  H6  non d ame     -32.881  15.741  26.316  0.00  0.00     0.086 H 
BRANCH  13  15
ATOM     15  N2  non d ame     -32.844  15.143  24.355  0.00  0.00    -0.343 N 
ATOM     16  C5  non d ame     -31.517  15.748  24.222  0.00  0.00     0.273 C 
ATOM     17  O2  non d ame     -30.993  16.241  25.160  0.00  0.00    -0.266 OA
ATOM     18  H5  non d ame     -33.300  14.722  23.558  0.00  0.00     0.163 HD
BRANCH  16  19
ATOM     19  C4  non d ame     -30.803  15.747  22.861  0.00  0.00     0.154 A 
ATOM     20  C1  non d ame     -31.401  15.906  21.570  0.00  0.00    -0.017 A 
ATOM     21  C2  non d ame     -30.324  15.830  20.659  0.00  0.00     0.077 A 
ATOM     22  H1  non d ame     -32.454  16.055  21.332  0.00  0.00     0.091 H 
ATOM     23  O1  non d ame     -29.240  15.649  21.354  0.00  0.00    -0.218 OA
ATOM     24  N1  non d ame     -29.494  15.597  22.642  0.00  0.00    -0.123 NA
BRANCH  21  25
ATOM     25  C3  non d ame     -30.417  15.940  19.143  0.00  0.00    -0.029 C 
ATOM     26  H2  non d ame     -30.713  14.978  18.726  0.00  0.00     0.036 H 
ATOM     27  H3  non d ame     -31.159  16.694  18.878  0.00  0.00     0.036 H 
ATOM     28  H4  non d ame     -29.447  16.229  18.739  0.00  0.00     0.036 H 
ENDBRANCH  21  25
ENDBRANCH  16  19
ENDBRANCH  13  15
BRANCH  13  29
ATOM     29  C8  non d ame     -34.857  15.812  25.533  0.00  0.00    -0.049 C 
ATOM     30  H7  non d ame     -35.007  16.480  26.380  0.00  0.00     0.030 H 
ATOM     31  H8  non d ame     -34.902  16.384  24.607  0.00  0.00     0.030 H 
ATOM     32  H9  non d ame     -35.636  15.050  25.528  0.00  0.00     0.030 H 
ENDBRANCH  13  29
ENDBRANCH  10  13
ENDBRANCH   7   9
BRANCH   7  33
ATOM     33  C11 non d ame     -32.444  10.270  24.905  0.00  0.00    -0.033 C 
ATOM     34  H12 non d ame     -31.926   9.509  25.488  0.00  0.00     0.042 H 
BRANCH  33  35
ATOM     35  C12 non d ame     -33.474   9.539  23.989  0.00  0.00    -0.071 C 
ATOM     36  H13 non d ame     -33.810  10.218  23.205  0.00  0.00     0.028 H 
ATOM     37  H14 non d ame     -33.003   8.667  23.537  0.00  0.00     0.028 H 
ATOM     38  H15 non d ame     -34.330   9.223  24.585  0.00  0.00     0.028 H 
ENDBRANCH  33  35
BRANCH  33  39
ATOM     39  C13 non d ame     -31.378  11.038  24.059  0.00  0.00    -0.071 C 
ATOM     40  H16 non d ame     -31.783  11.249  23.069  0.00  0.00     0.028 H 
ATOM     41  H17 non d ame     -31.126  11.975  24.556  0.00  0.00     0.028 H 
ATOM     42  H18 non d ame     -30.481  10.426  23.962  0.00  0.00     0.028 H 
ENDBRANCH  33  39
ENDBRANCH   7  33
ENDBRANCH   4   7
ENDBRANCH   1   3
BRANCH   1  43
ATOM     43  C15 non d ame     -33.710   9.718  30.587  0.00  0.00     0.240 C 
ATOM     44  O5  non d ame     -33.924   9.875  31.745  0.00  0.00    -0.271 OA
ATOM     45  N6  non d ame     -34.258   8.522  29.886  0.00  0.00    -0.355 N 
ATOM     46  H46 non d ame     -34.087   8.380  28.902  0.00  0.00     0.162 HD
BRANCH  45  47
ATOM     47  C20 non d ame     -35.060   7.535  30.641  0.00  0.00     0.013 C 
ATOM     48  H30 non d ame     -34.430   7.123  31.429  0.00  0.00     0.072 H 
BRANCH  47  49
ATOM     49  C21 non d ame     -35.506   6.433  29.706  0.00  0.00    -0.038 C 
ATOM     50  H31 non d ame     -36.467   6.091  30.090  0.00  0.00     0.036 H 
ATOM     51  H32 non d ame     -35.438   6.854  28.703  0.00  0.00     0.036 H 
BRANCH  49  52
ATOM     52  C22 non d ame     -34.565   5.209  29.731  0.00  0.00     0.018 C 
ATOM     53  H33 non d ame     -33.990   5.298  30.652  0.00  0.00     0.048 H 
ATOM     54  H34 non d ame     -35.205   4.342  29.569  0.00  0.00     0.048 H 
BRANCH  52  55
ATOM     55  C23 non d ame     -33.525   5.195  28.577  0.00  0.00     0.259 C 
ATOM     56  O7  non d ame     -32.804   4.262  28.425  0.00  0.00    -0.265 OA
BRANCH  55  57
ATOM     57  O8  non d ame     -33.433   6.318  27.708  0.00  0.00    -0.317 OA
BRANCH  57  58
ATOM     58  C29 non d ame     -32.196   6.402  26.994  0.00  0.00     0.052 C 
ATOM     59  H47 non d ame     -31.824   7.412  27.167  0.00  0.00     0.082 H 
ATOM     60  H48 non d ame     -31.609   5.542  27.317  0.00  0.00     0.082 H 
BRANCH  58  61
ATOM     61  C35 non d ame     -32.504   6.245  25.481  0.00  0.00    -0.034 A 
ATOM     62  C30 non d ame     -33.798   5.952  25.061  0.00  0.00    -0.075 A 
ATOM     63  C31 non d ame     -34.075   5.810  23.702  0.00  0.00    -0.082 A 
ATOM     64  H49 non d ame     -34.594   5.833  25.796  0.00  0.00     0.084 H 
ATOM     65  C32 non d ame     -33.052   5.960  22.762  0.00  0.00    -0.083 A 
ATOM     66  H50 non d ame     -35.090   5.582  23.376  0.00  0.00     0.083 H 
ATOM     67  C33 non d ame     -31.762   6.249  23.186  0.00  0.00    -0.082 A 
ATOM     68  H51 non d ame     -33.260   5.852  21.698  0.00  0.00     0.083 H 
ATOM     69  C34 non d ame     -31.481   6.393  24.543  0.00  0.00    -0.075 A 
ATOM     70  H52 non d ame     -30.966   6.363  22.450  0.00  0.00     0.083 H 
ATOM     71  H53 non d ame     -30.466   6.621  24.869  0.00  0.00     0.084 H 
ENDBRANCH  58  61
ENDBRANCH  57  58
ENDBRANCH  55  57
ENDBRANCH  52  55
ENDBRANCH  49  52
ENDBRANCH  47  49
BRANCH  47  72
ATOM     72  C24 non d ame     -36.286   8.218  31.245  0.00  0.00    -0.039 C 
ATOM     73  H35 non d ame     -36.761   7.462  31.870  0.00  0.00     0.036 H 
ATOM     74  H36 non d ame     -35.913   9.139  31.693  0.00  0.00     0.036 H 
BRANCH  72  75
ATOM     75  C25 non d ame     -37.346   8.635  30.119  0.00  0.00    -0.001 C 
ATOM     76  C26 non d ame     -37.356  10.270  29.937  0.00  0.00    -0.035 C 
ATOM     77  C27 non d ame     -38.634  10.711  30.020  0.00  0.00     0.085 C 
ATOM     78  H38 non d ame     -36.866  10.743  30.787  0.00  0.00     0.036 H 
ATOM     79  H39 non d ame     -37.061  10.535  28.921  0.00  0.00     0.036 H 
ATOM     80  N5  non d ame     -39.459   9.571  30.568  0.00  0.00    -0.049 N 
ATOM     81  H40 non d ame     -38.615  11.520  30.751  0.00  0.00     0.075 H 
ATOM     82  H41 non d ame     -38.940  10.910  28.994  0.00  0.00     0.075 H 
ATOM     83  C28 non d ame     -38.538   8.252  30.435  0.00  0.00     0.193 C 
ATOM     84  H42 non d ame     -39.601   9.767  31.549  0.00  0.00     0.280 HD
ATOM     85  H43 non d ame     -40.254   9.473  29.952  0.00  0.00     0.280 HD
ATOM     86  H44 non d ame     -38.727   7.522  29.647  0.00  0.00     0.129 H 
ATOM     87  H37 non d ame     -37.245   8.036  29.214  0.00  0.00     0.046 H 
BRANCH  83  88
ATOM     88  O6  non d ame     -38.560   7.510  31.655  0.00  0.00    -0.369 OA
ATOM     89  H45 non d ame     -38.486   8.114  32.398  0.00  0.00     0.212 HD
ENDBRANCH  83  88
ENDBRANCH  72  75
ENDBRANCH  47  72
ENDBRANCH  45  47
ENDBRANCH   1  43
BRANCH   1  90
ATOM     90  C16 non d ame     -32.911  12.102  30.534  0.00  0.00    -0.035 C 
ATOM     91  H21 non d ame     -33.494  12.760  29.892  0.00  0.00     0.037 H 
ATOM     92  H22 non d ame     -33.261  11.871  31.540  0.00  0.00     0.037 H 
BRANCH  90  93
ATOM     93  C17 non d ame     -31.510  12.774  30.697  0.00  0.00    -0.059 C 
ATOM     94  H23 non d ame     -31.512  13.317  31.642  0.00  0.00     0.038 H 
BRANCH  93  95
ATOM     95  C18 non d ame     -30.355  11.723  30.754  0.00  0.00    -0.073 C 
ATOM     96  H24 non d ame     -30.440  11.139  31.670  0.00  0.00     0.028 H 
ATOM     97  H25 non d ame     -30.425  11.059  29.893  0.00  0.00     0.028 H 
ATOM     98  H26 non d ame     -29.395  12.238  30.740  0.00  0.00     0.028 H 
ENDBRANCH  93  95
BRANCH  93  99
ATOM     99  C19 non d ame     -31.262  13.796  29.585  0.00  0.00    -0.073 C 
ATOM    100  H27 non d ame     -31.375  13.313  28.615  0.00  0.00     0.028 H 
ATOM    101  H28 non d ame     -31.981  14.610  29.672  0.00  0.00     0.028 H 
ATOM    102  H29 non d ame     -30.251  14.195  29.677  0.00  0.00     0.028 H 
ENDBRANCH  93  99
ENDBRANCH  90  93
ENDBRANCH   1  90
TORSDOF 26
ENDMDL
MODEL 10
REMARK VINA RESULT:      -6.5      3.221      8.122
REMARK  26 active torsions:
REMARK  status: ('A' for Active; 'I' for Inactive)
REMARK    1  A    between atoms: C2_2  and  C3_3 
REMARK    2  A    between atoms: C4_6  and  C5_7 
REMARK       I    between atoms: C5_7  and  N2_9 
REMARK    3  A    between atoms: N2_9  and  C6_10 
REMARK    4  A    between atoms: C6_10  and  C7_11 
REMARK    5  A    between atoms: C6_10  and  C8_13 
REMARK       I    between atoms: C7_11  and  N3_14 
REMARK    6  A    between atoms: N3_14  and  C9_15 
REMARK    7  A    between atoms: C9_15  and  C10_16 
REMARK    8  A    between atoms: C9_15  and  C11_18 
REMARK       I    between atoms: C10_16  and  N4_21 
REMARK    9  A    between atoms: C11_18  and  C12_19 
REMARK   10  A    between atoms: C11_18  and  C13_20 
REMARK   11  A    between atoms: N4_21  and  C14_22 
REMARK   12  A    between atoms: C14_22  and  C15_23 
REMARK   13  A    between atoms: C14_22  and  C16_25 
REMARK       I    between atoms: C15_23  and  N6_40 
REMARK   14  A    between atoms: C16_25  and  C17_26 
REMARK   15  A    between atoms: C17_26  and  C18_27 
REMARK   16  A    between atoms: C17_26  and  C19_28 
REMARK   17  A    between atoms: C20_29  and  C21_30 
REMARK   18  A    between atoms: C20_29  and  C24_33 
REMARK   19  A    between atoms: C20_29  and  N6_40 
REMARK   20  A    between atoms: C21_30  and  C22_31 
REMARK   21  A    between atoms: C22_31  and  C23_32 
REMARK   22  A    between atoms: C23_32  and  O8_43 
REMARK   23  A    between atoms: C24_33  and  C25_34 
REMARK   24  A    between atoms: C28_38  and  O6_39 
REMARK   25  A    between atoms: C29_42  and  O8_43 
REMARK   26  A    between atoms: C29_42  and  C35_49 
ROOT
ATOM      1  C14 non d ame     -36.922  15.485  26.207  0.00  0.00     0.089 C 
ATOM      2  H20 non d ame     -37.561  15.942  26.963  0.00  0.00     0.087 H 
ENDROOT
BRANCH   1   3
ATOM      3  N4  non d ame     -35.543  15.802  26.549  0.00  0.00    -0.346 N 
ATOM      4  C10 non d ame     -35.238  16.830  27.609  0.00  0.00     0.241 C 
ATOM      5  O4  non d ame     -36.120  17.393  28.171  0.00  0.00    -0.271 OA
ATOM      6  H19 non d ame     -34.807  15.314  26.058  0.00  0.00     0.163 HD
BRANCH   4   7
ATOM      7  C9  non d ame     -33.805  17.141  27.955  0.00  0.00     0.092 C 
ATOM      8  H11 non d ame     -33.779  17.752  28.857  0.00  0.00     0.088 H 
BRANCH   7   9
ATOM      9  N3  non d ame     -33.093  15.895  28.254  0.00  0.00    -0.346 N 
ATOM     10  C7  non d ame     -32.115  15.861  29.314  0.00  0.00     0.240 C 
ATOM     11  O3  non d ame     -31.889  16.827  29.935  0.00  0.00    -0.271 OA
ATOM     12  H10 non d ame     -33.277  15.055  27.725  0.00  0.00     0.163 HD
BRANCH  10  13
ATOM     13  C6  non d ame     -31.358  14.533  29.625  0.00  0.00     0.086 C 
ATOM     14  H6  non d ame     -30.772  14.587  30.542  0.00  0.00     0.086 H 
BRANCH  13  15
ATOM     15  N2  non d ame     -32.330  13.470  29.815  0.00  0.00    -0.343 N 
ATOM     16  C5  non d ame     -31.968  12.294  30.610  0.00  0.00     0.273 C 
ATOM     17  O2  non d ame     -30.891  12.213  31.091  0.00  0.00    -0.266 OA
ATOM     18  H5  non d ame     -33.247  13.546  29.398  0.00  0.00     0.163 HD
BRANCH  16  19
ATOM     19  C4  non d ame     -32.986  11.163  30.820  0.00  0.00     0.154 A 
ATOM     20  C1  non d ame     -34.032  11.111  31.796  0.00  0.00    -0.017 A 
ATOM     21  C2  non d ame     -34.677   9.874  31.572  0.00  0.00     0.077 A 
ATOM     22  H1  non d ame     -34.285  11.857  32.550  0.00  0.00     0.091 H 
ATOM     23  O1  non d ame     -34.067   9.293  30.581  0.00  0.00    -0.218 OA
ATOM     24  N1  non d ame     -33.076  10.025  30.126  0.00  0.00    -0.123 NA
BRANCH  21  25
ATOM     25  C3  non d ame     -35.868   9.325  32.346  0.00  0.00    -0.029 C 
ATOM     26  H2  non d ame     -35.520   8.597  33.079  0.00  0.00     0.036 H 
ATOM     27  H3  non d ame     -36.376  10.142  32.859  0.00  0.00     0.036 H 
ATOM     28  H4  non d ame     -36.560   8.843  31.656  0.00  0.00     0.036 H 
ENDBRANCH  21  25
ENDBRANCH  16  19
ENDBRANCH  13  15
BRANCH  13  29
ATOM     29  C8  non d ame     -30.439  14.195  28.479  0.00  0.00    -0.049 C 
ATOM     30  H7  non d ame     -30.148  15.110  27.964  0.00  0.00     0.030 H 
ATOM     31  H8  non d ame     -29.550  13.695  28.862  0.00  0.00     0.030 H 
ATOM     32  H9  non d ame     -30.955  13.534  27.782  0.00  0.00     0.030 H 
ENDBRANCH  13  29
ENDBRANCH  10  13
ENDBRANCH   7   9
BRANCH   7  33
ATOM     33  C11 non d ame     -33.123  17.849  26.748  0.00  0.00    -0.033 C 
ATOM     34  H12 non d ame     -33.911  18.169  26.066  0.00  0.00     0.042 H 
BRANCH  33  35
ATOM     35  C12 non d ame     -32.348  19.125  27.201  0.00  0.00    -0.071 C 
ATOM     36  H13 non d ame     -32.346  19.856  26.393  0.00  0.00     0.028 H 
ATOM     37  H14 non d ame     -32.834  19.554  28.077  0.00  0.00     0.028 H 
ATOM     38  H15 non d ame     -31.321  18.857  27.450  0.00  0.00     0.028 H 
ENDBRANCH  33  35
BRANCH  33  39
ATOM     39  C13 non d ame     -32.188  16.863  25.977  0.00  0.00    -0.071 C 
ATOM     40  H16 non d ame     -32.274  15.866  26.411  0.00  0.00     0.028 H 
ATOM     41  H17 non d ame     -32.482  16.829  24.927  0.00  0.00     0.028 H 
ATOM     42  H18 non d ame     -31.156  17.205  26.053  0.00  0.00     0.028 H 
ENDBRANCH  33  39
ENDBRANCH   7  33
ENDBRANCH   4   7
ENDBRANCH   1   3
BRANCH   1  43
ATOM     43  C15 non d ame     -37.078  13.938  26.162  0.00  0.00     0.240 C 
ATOM     44  O5  non d ame     -37.827  13.443  25.383  0.00  0.00    -0.271 OA
ATOM     45  N6  non d ame     -36.287  13.074  27.084  0.00  0.00    -0.355 N 
ATOM     46  H46 non d ame     -35.645  13.483  27.746  0.00  0.00     0.162 HD
BRANCH  45  47
ATOM     47  C20 non d ame     -36.447  11.605  27.027  0.00  0.00     0.013 C 
ATOM     48  H30 non d ame     -36.534  11.317  25.980  0.00  0.00     0.072 H 
BRANCH  47  49
ATOM     49  C21 non d ame     -37.697  11.208  27.779  0.00  0.00    -0.038 C 
ATOM     50  H31 non d ame     -38.227  12.139  27.982  0.00  0.00     0.036 H 
ATOM     51  H32 non d ame     -38.170  10.433  27.175  0.00  0.00     0.036 H 
BRANCH  49  52
ATOM     52  C22 non d ame     -37.395  10.569  29.151  0.00  0.00     0.018 C 
ATOM     53  H33 non d ame     -36.309  10.502  29.213  0.00  0.00     0.048 H 
ATOM     54  H34 non d ame     -37.947  11.162  29.881  0.00  0.00     0.048 H 
BRANCH  52  55
ATOM     55  C23 non d ame     -37.922   9.115  29.295  0.00  0.00     0.259 C 
ATOM     56  O7  non d ame     -39.062   8.910  29.561  0.00  0.00    -0.265 OA
BRANCH  55  57
ATOM     57  O8  non d ame     -37.023   8.027  29.118  0.00  0.00    -0.317 OA
BRANCH  57  58
ATOM     58  C29 non d ame     -37.322   6.886  29.928  0.00  0.00     0.052 C 
ATOM     59  H47 non d ame     -37.616   7.284  30.899  0.00  0.00     0.082 H 
ATOM     60  H48 non d ame     -38.024   6.289  29.348  0.00  0.00     0.082 H 
BRANCH  58  61
ATOM     61  C35 non d ame     -36.014   6.070  30.107  0.00  0.00    -0.034 A 
ATOM     62  C30 non d ame     -35.305   5.637  28.991  0.00  0.00    -0.075 A 
ATOM     63  C31 non d ame     -34.130   4.903  29.151  0.00  0.00    -0.082 A 
ATOM     64  H49 non d ame     -35.670   5.871  27.991  0.00  0.00     0.084 H 
ATOM     65  C32 non d ame     -33.666   4.601  30.435  0.00  0.00    -0.083 A 
ATOM     66  H50 non d ame     -33.576   4.566  28.275  0.00  0.00     0.083 H 
ATOM     67  C33 non d ame     -34.379   5.033  31.545  0.00  0.00    -0.082 A 
ATOM     68  H51 non d ame     -32.749   4.029  30.569  0.00  0.00     0.083 H 
ATOM     69  C34 non d ame     -35.552   5.768  31.389  0.00  0.00    -0.075 A 
ATOM     70  H52 non d ame     -34.015   4.793  32.545  0.00  0.00     0.083 H 
ATOM     71  H53 non d ame     -36.106   6.104  32.266  0.00  0.00     0.084 H 
ENDBRANCH  58  61
ENDBRANCH  57  58
ENDBRANCH  55  57
ENDBRANCH  52  55
ENDBRANCH  49  52
ENDBRANCH  47  49
BRANCH  47  72
ATOM     72  C24 non d ame     -35.234  10.929  27.663  0.00  0.00    -0.039 C 
ATOM     73  H35 non d ame     -34.616  11.742  28.046  0.00  0.00     0.036 H 
ATOM     74  H36 non d ame     -35.642  10.186  28.349  0.00  0.00     0.036 H 
BRANCH  72  75
ATOM     75  C25 non d ame     -34.358  10.140  26.579  0.00  0.00    -0.001 C 
ATOM     76  C26 non d ame     -34.265   8.549  26.984  0.00  0.00    -0.035 C 
ATOM     77  C27 non d ame     -32.964   8.172  26.976  0.00  0.00     0.085 C 
ATOM     78  H38 non d ame     -34.564   8.410  28.023  0.00  0.00     0.036 H 
ATOM     79  H39 non d ame     -34.712   7.936  26.201  0.00  0.00     0.036 H 
ATOM     80  N5  non d ame     -32.139   9.435  26.923  0.00  0.00    -0.049 N 
ATOM     81  H40 non d ame     -32.798   7.679  27.934  0.00  0.00     0.075 H 
ATOM     82  H41 non d ame     -32.826   7.619  26.048  0.00  0.00     0.075 H 
ATOM     83  C28 non d ame     -33.160  10.616  26.510  0.00  0.00     0.193 C 
ATOM     84  H42 non d ame     -31.815   9.605  27.864  0.00  0.00     0.280 HD
ATOM     85  H43 non d ame     -31.472   9.309  26.175  0.00  0.00     0.280 HD
ATOM     86  H44 non d ame     -33.163  11.015  25.495  0.00  0.00     0.129 H 
ATOM     87  H37 non d ame     -34.657  10.374  25.557  0.00  0.00     0.046 H 
BRANCH  83  88
ATOM     88  O6  non d ame     -32.978  11.746  27.364  0.00  0.00    -0.369 OA
ATOM     89  H45 non d ame     -33.667  11.755  28.034  0.00  0.00     0.212 HD
ENDBRANCH  83  88
ENDBRANCH  72  75
ENDBRANCH  47  72
ENDBRANCH  45  47
ENDBRANCH   1  43
BRANCH   1  90
ATOM     90  C16 non d ame     -37.241  16.072  24.841  0.00  0.00    -0.035 C 
ATOM     91  H21 non d ame     -36.274  16.283  24.385  0.00  0.00     0.037 H 
ATOM     92  H22 non d ame     -37.921  15.360  24.373  0.00  0.00     0.037 H 
BRANCH  90  93
ATOM     93  C17 non d ame     -38.004  17.433  24.906  0.00  0.00    -0.059 C 
ATOM     94  H23 non d ame     -38.623  17.508  24.013  0.00  0.00     0.038 H 
BRANCH  93  95
ATOM     95  C18 non d ame     -38.947  17.521  26.149  0.00  0.00    -0.073 C 
ATOM     96  H24 non d ame     -38.720  18.424  26.715  0.00  0.00     0.028 H 
ATOM     97  H25 non d ame     -39.984  17.553  25.816  0.00  0.00     0.028 H 
ATOM     98  H26 non d ame     -38.796  16.647  26.782  0.00  0.00     0.028 H 
ENDBRANCH  93  95
BRANCH  93  99
ATOM     99  C19 non d ame     -37.025  18.610  24.882  0.00  0.00    -0.073 C 
ATOM    100  H27 non d ame     -37.111  19.135  23.930  0.00  0.00     0.028 H 
ATOM    101  H28 non d ame     -37.259  19.295  25.697  0.00  0.00     0.028 H 
ATOM    102  H29 non d ame     -36.007  18.239  25.002  0.00  0.00     0.028 H 
ENDBRANCH  93  99
ENDBRANCH  90  93
ENDBRANCH   1  90
TORSDOF 26
ENDMDL
MODEL 11
REMARK VINA RESULT:      -6.5      2.689      7.722
REMARK  26 active torsions:
REMARK  status: ('A' for Active; 'I' for Inactive)
REMARK    1  A    between atoms: C2_2  and  C3_3 
REMARK    2  A    between atoms: C4_6  and  C5_7 
REMARK       I    between atoms: C5_7  and  N2_9 
REMARK    3  A    between atoms: N2_9  and  C6_10 
REMARK    4  A    between atoms: C6_10  and  C7_11 
REMARK    5  A    between atoms: C6_10  and  C8_13 
REMARK       I    between atoms: C7_11  and  N3_14 
REMARK    6  A    between atoms: N3_14  and  C9_15 
REMARK    7  A    between atoms: C9_15  and  C10_16 
REMARK    8  A    between atoms: C9_15  and  C11_18 
REMARK       I    between atoms: C10_16  and  N4_21 
REMARK    9  A    between atoms: C11_18  and  C12_19 
REMARK   10  A    between atoms: C11_18  and  C13_20 
REMARK   11  A    between atoms: N4_21  and  C14_22 
REMARK   12  A    between atoms: C14_22  and  C15_23 
REMARK   13  A    between atoms: C14_22  and  C16_25 
REMARK       I    between atoms: C15_23  and  N6_40 
REMARK   14  A    between atoms: C16_25  and  C17_26 
REMARK   15  A    between atoms: C17_26  and  C18_27 
REMARK   16  A    between atoms: C17_26  and  C19_28 
REMARK   17  A    between atoms: C20_29  and  C21_30 
REMARK   18  A    between atoms: C20_29  and  C24_33 
REMARK   19  A    between atoms: C20_29  and  N6_40 
REMARK   20  A    between atoms: C21_30  and  C22_31 
REMARK   21  A    between atoms: C22_31  and  C23_32 
REMARK   22  A    between atoms: C23_32  and  O8_43 
REMARK   23  A    between atoms: C24_33  and  C25_34 
REMARK   24  A    between atoms: C28_38  and  O6_39 
REMARK   25  A    between atoms: C29_42  and  O8_43 
REMARK   26  A    between atoms: C29_42  and  C35_49 
ROOT
ATOM      1  C14 non d ame     -37.234  16.037  26.978  0.00  0.00     0.089 C 
ATOM      2  H20 non d ame     -37.522  16.207  28.015  0.00  0.00     0.087 H 
ENDROOT
BRANCH   1   3
ATOM      3  N4  non d ame     -35.795  16.236  26.884  0.00  0.00    -0.346 N 
ATOM      4  C10 non d ame     -35.077  17.090  27.898  0.00  0.00     0.241 C 
ATOM      5  O4  non d ame     -35.678  17.610  28.779  0.00  0.00    -0.271 OA
ATOM      6  H19 non d ame     -35.302  15.786  26.126  0.00  0.00     0.163 HD
BRANCH   4   7
ATOM      7  C9  non d ame     -33.587  17.280  27.789  0.00  0.00     0.092 C 
ATOM      8  H11 non d ame     -33.263  18.009  28.532  0.00  0.00     0.088 H 
BRANCH   7   9
ATOM      9  N3  non d ame     -32.909  16.017  28.098  0.00  0.00    -0.346 N 
ATOM     10  C7  non d ame     -32.044  15.926  29.249  0.00  0.00     0.240 C 
ATOM     11  O3  non d ame     -31.882  16.860  29.937  0.00  0.00    -0.271 OA
ATOM     12  H10 non d ame     -33.038  15.204  27.513  0.00  0.00     0.163 HD
BRANCH  10  13
ATOM     13  C6  non d ame     -31.323  14.581  29.570  0.00  0.00     0.086 C 
ATOM     14  H6  non d ame     -30.728  14.629  30.482  0.00  0.00     0.086 H 
BRANCH  13  15
ATOM     15  N2  non d ame     -32.324  13.548  29.781  0.00  0.00    -0.343 N 
ATOM     16  C5  non d ame     -31.986  12.368  30.579  0.00  0.00     0.273 C 
ATOM     17  O2  non d ame     -30.905  12.257  31.045  0.00  0.00    -0.266 OA
ATOM     18  H5  non d ame     -33.244  13.649  29.376  0.00  0.00     0.163 HD
BRANCH  16  19
ATOM     19  C4  non d ame     -33.034  11.269  30.811  0.00  0.00     0.154 A 
ATOM     20  C1  non d ame     -33.372  10.195  29.927  0.00  0.00    -0.017 A 
ATOM     21  C2  non d ame     -34.382   9.473  30.600  0.00  0.00     0.077 A 
ATOM     22  H1  non d ame     -32.948   9.974  28.947  0.00  0.00     0.091 H 
ATOM     23  O1  non d ame     -34.592  10.070  31.737  0.00  0.00    -0.218 OA
ATOM     24  N1  non d ame     -33.818  11.120  31.883  0.00  0.00    -0.123 NA
BRANCH  21  25
ATOM     25  C3  non d ame     -35.093   8.227  30.089  0.00  0.00    -0.029 C 
ATOM     26  H2  non d ame     -35.753   7.841  30.866  0.00  0.00     0.036 H 
ATOM     27  H3  non d ame     -35.680   8.480  29.207  0.00  0.00     0.036 H 
ATOM     28  H4  non d ame     -34.355   7.469  29.829  0.00  0.00     0.036 H 
ENDBRANCH  21  25
ENDBRANCH  16  19
ENDBRANCH  13  15
BRANCH  13  29
ATOM     29  C8  non d ame     -30.424  14.202  28.421  0.00  0.00    -0.049 C 
ATOM     30  H7  non d ame     -30.689  13.207  28.065  0.00  0.00     0.030 H 
ATOM     31  H8  non d ame     -30.546  14.922  27.612  0.00  0.00     0.030 H 
ATOM     32  H9  non d ame     -29.386  14.203  28.756  0.00  0.00     0.030 H 
ENDBRANCH  13  29
ENDBRANCH  10  13
ENDBRANCH   7   9
BRANCH   7  33
ATOM     33  C11 non d ame     -33.224  17.720  26.340  0.00  0.00    -0.033 C 
ATOM     34  H12 non d ame     -34.129  17.641  25.737  0.00  0.00     0.042 H 
BRANCH  33  35
ATOM     35  C12 non d ame     -32.760  19.209  26.297  0.00  0.00    -0.071 C 
ATOM     36  H13 non d ame     -31.701  19.253  26.046  0.00  0.00     0.028 H 
ATOM     37  H14 non d ame     -33.335  19.747  25.544  0.00  0.00     0.028 H 
ATOM     38  H15 non d ame     -32.921  19.668  27.273  0.00  0.00     0.028 H 
ENDBRANCH  33  35
BRANCH  33  39
ATOM     39  C13 non d ame     -32.146  16.773  25.722  0.00  0.00    -0.071 C 
ATOM     40  H16 non d ame     -31.153  17.182  25.908  0.00  0.00     0.028 H 
ATOM     41  H17 non d ame     -32.224  15.786  26.179  0.00  0.00     0.028 H 
ATOM     42  H18 non d ame     -32.310  16.689  24.647  0.00  0.00     0.028 H 
ENDBRANCH  33  39
ENDBRANCH   7  33
ENDBRANCH   4   7
ENDBRANCH   1   3
BRANCH   1  43
ATOM     43  C15 non d ame     -37.566  14.593  26.505  0.00  0.00     0.240 C 
ATOM     44  O5  non d ame     -38.555  14.058  26.890  0.00  0.00    -0.271 OA
ATOM     45  N6  non d ame     -36.655  13.879  25.565  0.00  0.00    -0.355 N 
ATOM     46  H46 non d ame     -35.815  14.325  25.228  0.00  0.00     0.162 HD
BRANCH  45  47
ATOM     47  C20 non d ame     -36.986  12.507  25.125  0.00  0.00     0.013 C 
ATOM     48  H30 non d ame     -37.805  12.143  25.745  0.00  0.00     0.072 H 
BRANCH  47  49
ATOM     49  C21 non d ame     -35.773  11.620  25.298  0.00  0.00    -0.038 C 
ATOM     50  H31 non d ame     -36.103  10.615  25.036  0.00  0.00     0.036 H 
ATOM     51  H32 non d ame     -34.976  12.099  24.729  0.00  0.00     0.036 H 
BRANCH  49  52
ATOM     52  C22 non d ame     -35.285  11.552  26.761  0.00  0.00     0.018 C 
ATOM     53  H33 non d ame     -36.107  11.935  27.365  0.00  0.00     0.048 H 
ATOM     54  H34 non d ame     -34.931  10.531  26.907  0.00  0.00     0.048 H 
BRANCH  52  55
ATOM     55  C23 non d ame     -34.070  12.473  27.059  0.00  0.00     0.259 C 
ATOM     56  O7  non d ame     -34.235  13.590  27.430  0.00  0.00    -0.265 OA
BRANCH  55  57
ATOM     57  O8  non d ame     -32.752  11.970  26.872  0.00  0.00    -0.317 OA
BRANCH  57  58
ATOM     58  C29 non d ame     -32.070  12.528  25.745  0.00  0.00     0.052 C 
ATOM     59  H47 non d ame     -32.795  13.177  25.254  0.00  0.00     0.082 H 
ATOM     60  H48 non d ame     -31.143  12.945  26.138  0.00  0.00     0.082 H 
BRANCH  58  61
ATOM     61  C35 non d ame     -31.715  11.368  24.778  0.00  0.00    -0.034 A 
ATOM     62  C30 non d ame     -32.320  10.124  24.930  0.00  0.00    -0.075 A 
ATOM     63  C31 non d ame     -32.000   9.082  24.061  0.00  0.00    -0.082 A 
ATOM     64  H49 non d ame     -33.044   9.966  25.729  0.00  0.00     0.084 H 
ATOM     65  C32 non d ame     -31.070   9.286  23.038  0.00  0.00    -0.083 A 
ATOM     66  H50 non d ame     -32.477   8.109  24.181  0.00  0.00     0.083 H 
ATOM     67  C33 non d ame     -30.466  10.528  22.893  0.00  0.00    -0.082 A 
ATOM     68  H51 non d ame     -30.815   8.477  22.354  0.00  0.00     0.083 H 
ATOM     69  C34 non d ame     -30.784  11.573  23.758  0.00  0.00    -0.075 A 
ATOM     70  H52 non d ame     -29.739  10.683  22.096  0.00  0.00     0.083 H 
ATOM     71  H53 non d ame     -30.307  12.546  23.636  0.00  0.00     0.084 H 
ENDBRANCH  58  61
ENDBRANCH  57  58
ENDBRANCH  55  57
ENDBRANCH  52  55
ENDBRANCH  49  52
ENDBRANCH  47  49
BRANCH  47  72
ATOM     72  C24 non d ame     -37.401  12.522  23.655  0.00  0.00    -0.039 C 
ATOM     73  H35 non d ame     -37.525  13.575  23.400  0.00  0.00     0.036 H 
ATOM     74  H36 non d ame     -36.654  11.921  23.136  0.00  0.00     0.036 H 
BRANCH  72  75
ATOM     75  C25 non d ame     -38.819  11.811  23.432  0.00  0.00    -0.001 C 
ATOM     76  C26 non d ame     -39.450  11.353  24.880  0.00  0.00    -0.035 C 
ATOM     77  C27 non d ame     -39.803  10.047  24.808  0.00  0.00     0.085 C 
ATOM     78  H38 non d ame     -38.675  11.366  25.646  0.00  0.00     0.036 H 
ATOM     79  H39 non d ame     -40.397  11.864  25.053  0.00  0.00     0.036 H 
ATOM     80  N5  non d ame     -39.172   9.487  23.556  0.00  0.00    -0.049 N 
ATOM     81  H40 non d ame     -39.347   9.575  25.678  0.00  0.00     0.075 H 
ATOM     82  H41 non d ame     -40.886  10.045  24.692  0.00  0.00     0.075 H 
ATOM     83  C28 non d ame     -38.704  10.764  22.685  0.00  0.00     0.193 C 
ATOM     84  H42 non d ame     -38.350   8.981  23.852  0.00  0.00     0.280 HD
ATOM     85  H43 non d ame     -39.908   9.008  23.056  0.00  0.00     0.280 HD
ATOM     86  H44 non d ame     -39.277  11.078  21.813  0.00  0.00     0.129 H 
ATOM     87  H37 non d ame     -39.467  12.382  22.767  0.00  0.00     0.046 H 
BRANCH  83  88
ATOM     88  O6  non d ame     -37.367  10.578  22.218  0.00  0.00    -0.369 OA
ATOM     89  H45 non d ame     -36.822  10.241  22.934  0.00  0.00     0.212 HD
ENDBRANCH  83  88
ENDBRANCH  72  75
ENDBRANCH  47  72
ENDBRANCH  45  47
ENDBRANCH   1  43
BRANCH   1  90
ATOM     90  C16 non d ame     -37.933  17.043  26.077  0.00  0.00    -0.035 C 
ATOM     91  H21 non d ame     -38.841  16.545  25.739  0.00  0.00     0.037 H 
ATOM     92  H22 non d ame     -38.000  17.959  26.665  0.00  0.00     0.037 H 
BRANCH  90  93
ATOM     93  C17 non d ame     -37.123  17.402  24.791  0.00  0.00    -0.059 C 
ATOM     94  H23 non d ame     -36.161  16.894  24.854  0.00  0.00     0.038 H 
BRANCH  93  95
ATOM     95  C18 non d ame     -37.836  16.914  23.490  0.00  0.00    -0.073 C 
ATOM     96  H24 non d ame     -37.096  16.510  22.800  0.00  0.00     0.028 H 
ATOM     97  H25 non d ame     -38.560  16.139  23.741  0.00  0.00     0.028 H 
ATOM     98  H26 non d ame     -38.350  17.753  23.021  0.00  0.00     0.028 H 
ENDBRANCH  93  95
BRANCH  93  99
ATOM     99  C19 non d ame     -36.839  18.905  24.726  0.00  0.00    -0.073 C 
ATOM    100  H27 non d ame     -36.310  19.135  23.801  0.00  0.00     0.028 H 
ATOM    101  H28 non d ame     -37.780  19.455  24.752  0.00  0.00     0.028 H 
ATOM    102  H29 non d ame     -36.226  19.196  25.578  0.00  0.00     0.028 H 
ENDBRANCH  93  99
ENDBRANCH  90  93
ENDBRANCH   1  90
TORSDOF 26
ENDMDL
MODEL 12
REMARK VINA RESULT:      -6.5      3.161      9.146
REMARK  26 active torsions:
REMARK  status: ('A' for Active; 'I' for Inactive)
REMARK    1  A    between atoms: C2_2  and  C3_3 
REMARK    2  A    between atoms: C4_6  and  C5_7 
REMARK       I    between atoms: C5_7  and  N2_9 
REMARK    3  A    between atoms: N2_9  and  C6_10 
REMARK    4  A    between atoms: C6_10  and  C7_11 
REMARK    5  A    between atoms: C6_10  and  C8_13 
REMARK       I    between atoms: C7_11  and  N3_14 
REMARK    6  A    between atoms: N3_14  and  C9_15 
REMARK    7  A    between atoms: C9_15  and  C10_16 
REMARK    8  A    between atoms: C9_15  and  C11_18 
REMARK       I    between atoms: C10_16  and  N4_21 
REMARK    9  A    between atoms: C11_18  and  C12_19 
REMARK   10  A    between atoms: C11_18  and  C13_20 
REMARK   11  A    between atoms: N4_21  and  C14_22 
REMARK   12  A    between atoms: C14_22  and  C15_23 
REMARK   13  A    between atoms: C14_22  and  C16_25 
REMARK       I    between atoms: C15_23  and  N6_40 
REMARK   14  A    between atoms: C16_25  and  C17_26 
REMARK   15  A    between atoms: C17_26  and  C18_27 
REMARK   16  A    between atoms: C17_26  and  C19_28 
REMARK   17  A    between atoms: C20_29  and  C21_30 
REMARK   18  A    between atoms: C20_29  and  C24_33 
REMARK   19  A    between atoms: C20_29  and  N6_40 
REMARK   20  A    between atoms: C21_30  and  C22_31 
REMARK   21  A    between atoms: C22_31  and  C23_32 
REMARK   22  A    between atoms: C23_32  and  O8_43 
REMARK   23  A    between atoms: C24_33  and  C25_34 
REMARK   24  A    between atoms: C28_38  and  O6_39 
REMARK   25  A    between atoms: C29_42  and  O8_43 
REMARK   26  A    between atoms: C29_42  and  C35_49 
ROOT
ATOM      1  C14 non d ame     -33.729   6.869  27.458  0.00  0.00     0.089 C 
ATOM      2  H20 non d ame     -33.258   6.553  28.389  0.00  0.00     0.087 H 
ENDROOT
BRANCH   1   3
ATOM      3  N4  non d ame     -34.050   8.283  27.586  0.00  0.00    -0.346 N 
ATOM      4  C10 non d ame     -34.460   8.852  28.921  0.00  0.00     0.241 C 
ATOM      5  O4  non d ame     -34.528   8.152  29.877  0.00  0.00    -0.271 OA
ATOM      6  H19 non d ame     -33.988   8.861  26.761  0.00  0.00     0.163 HD
BRANCH   4   7
ATOM      7  C9  non d ame     -34.783  10.319  29.037  0.00  0.00     0.092 C 
ATOM      8  H11 non d ame     -35.173  10.522  30.035  0.00  0.00     0.088 H 
BRANCH   7   9
ATOM      9  N3  non d ame     -33.555  11.104  28.884  0.00  0.00    -0.346 N 
ATOM     10  C7  non d ame     -32.719  11.365  30.030  0.00  0.00     0.240 C 
ATOM     11  O3  non d ame     -33.021  10.952  31.083  0.00  0.00    -0.271 OA
ATOM     12  H10 non d ame     -33.283  11.468  27.983  0.00  0.00     0.163 HD
BRANCH  10  13
ATOM     13  C6  non d ame     -31.414  12.204  29.862  0.00  0.00     0.086 C 
ATOM     14  H6  non d ame     -30.872  11.961  28.948  0.00  0.00     0.086 H 
BRANCH  13  15
ATOM     15  N2  non d ame     -31.767  13.611  29.774  0.00  0.00    -0.343 N 
ATOM     16  C5  non d ame     -31.964  14.224  28.458  0.00  0.00     0.273 C 
ATOM     17  O2  non d ame     -31.834  13.578  27.477  0.00  0.00    -0.266 OA
ATOM     18  H5  non d ame     -31.874  14.157  30.617  0.00  0.00     0.163 HD
BRANCH  16  19
ATOM     19  C4  non d ame     -32.339  15.711  28.351  0.00  0.00     0.154 A 
ATOM     20  C1  non d ame     -32.803  16.403  27.187  0.00  0.00    -0.017 A 
ATOM     21  C2  non d ame     -33.003  17.735  27.613  0.00  0.00     0.077 A 
ATOM     22  H1  non d ame     -32.969  16.001  26.188  0.00  0.00     0.091 H 
ATOM     23  O1  non d ame     -32.689  17.790  28.875  0.00  0.00    -0.218 OA
ATOM     24  N1  non d ame     -32.298  16.621  29.327  0.00  0.00    -0.123 NA
BRANCH  21  25
ATOM     25  C3  non d ame     -33.496  18.892  26.754  0.00  0.00    -0.029 C 
ATOM     26  H2  non d ame     -34.031  19.607  27.379  0.00  0.00     0.036 H 
ATOM     27  H3  non d ame     -32.645  19.385  26.286  0.00  0.00     0.036 H 
ATOM     28  H4  non d ame     -34.165  18.512  25.982  0.00  0.00     0.036 H 
ENDBRANCH  21  25
ENDBRANCH  16  19
ENDBRANCH  13  15
BRANCH  13  29
ATOM     29  C8  non d ame     -30.508  11.971  31.043  0.00  0.00    -0.049 C 
ATOM     30  H7  non d ame     -30.046  12.914  31.338  0.00  0.00     0.030 H 
ATOM     31  H8  non d ame     -31.090  11.576  31.876  0.00  0.00     0.030 H 
ATOM     32  H9  non d ame     -29.731  11.256  30.771  0.00  0.00     0.030 H 
ENDBRANCH  13  29
ENDBRANCH  10  13
ENDBRANCH   7   9
BRANCH   7  33
ATOM     33  C11 non d ame     -35.793  10.717  27.922  0.00  0.00    -0.033 C 
ATOM     34  H12 non d ame     -35.799   9.916  27.182  0.00  0.00     0.042 H 
BRANCH  33  35
ATOM     35  C12 non d ame     -37.242  10.846  28.486  0.00  0.00    -0.071 C 
ATOM     36  H13 non d ame     -37.923  10.250  27.878  0.00  0.00     0.028 H 
ATOM     37  H14 non d ame     -37.265  10.487  29.514  0.00  0.00     0.028 H 
ATOM     38  H15 non d ame     -37.552  11.891  28.458  0.00  0.00     0.028 H 
ENDBRANCH  33  35
BRANCH  33  39
ATOM     39  C13 non d ame     -35.345  12.032  27.206  0.00  0.00    -0.071 C 
ATOM     40  H16 non d ame     -35.442  11.909  26.127  0.00  0.00     0.028 H 
ATOM     41  H17 non d ame     -35.976  12.858  27.536  0.00  0.00     0.028 H 
ATOM     42  H18 non d ame     -34.306  12.246  27.456  0.00  0.00     0.028 H 
ENDBRANCH  33  39
ENDBRANCH   7  33
ENDBRANCH   4   7
ENDBRANCH   1   3
BRANCH   1  43
ATOM     43  C15 non d ame     -32.788   6.685  26.233  0.00  0.00     0.240 C 
ATOM     44  O5  non d ame     -31.877   5.924  26.296  0.00  0.00    -0.271 OA
ATOM     45  N6  non d ame     -33.027   7.451  24.976  0.00  0.00    -0.355 N 
ATOM     46  H46 non d ame     -33.801   8.096  24.909  0.00  0.00     0.162 HD
BRANCH  45  47
ATOM     47  C20 non d ame     -32.124   7.263  23.820  0.00  0.00     0.013 C 
ATOM     48  H30 non d ame     -31.293   6.636  24.142  0.00  0.00     0.072 H 
BRANCH  47  49
ATOM     49  C21 non d ame     -31.609   8.609  23.365  0.00  0.00    -0.038 C 
ATOM     50  H31 non d ame     -30.621   8.714  23.813  0.00  0.00     0.036 H 
ATOM     51  H32 non d ame     -31.720   8.615  22.280  0.00  0.00     0.036 H 
BRANCH  49  52
ATOM     52  C22 non d ame     -32.456   9.786  23.896  0.00  0.00     0.018 C 
ATOM     53  H33 non d ame     -32.519  10.499  23.074  0.00  0.00     0.048 H 
ATOM     54  H34 non d ame     -33.365   9.338  24.299  0.00  0.00     0.048 H 
BRANCH  52  55
ATOM     55  C23 non d ame     -31.796  10.551  25.076  0.00  0.00     0.259 C 
ATOM     56  O7  non d ame     -31.970  10.196  26.197  0.00  0.00    -0.265 OA
BRANCH  55  57
ATOM     57  O8  non d ame     -30.988  11.690  24.804  0.00  0.00    -0.317 OA
BRANCH  57  58
ATOM     58  C29 non d ame     -30.464  11.727  23.473  0.00  0.00     0.052 C 
ATOM     59  H47 non d ame     -29.454  11.323  23.543  0.00  0.00     0.082 H 
ATOM     60  H48 non d ame     -31.208  11.232  22.849  0.00  0.00     0.082 H 
BRANCH  58  61
ATOM     61  C35 non d ame     -30.370  13.214  23.037  0.00  0.00    -0.034 A 
ATOM     62  C30 non d ame     -31.044  14.195  23.758  0.00  0.00    -0.075 A 
ATOM     63  C31 non d ame     -30.960  15.530  23.366  0.00  0.00    -0.082 A 
ATOM     64  H49 non d ame     -31.638  13.918  24.629  0.00  0.00     0.084 H 
ATOM     65  C32 non d ame     -30.200  15.883  22.248  0.00  0.00    -0.083 A 
ATOM     66  H50 non d ame     -31.487  16.297  23.934  0.00  0.00     0.083 H 
ATOM     67  C33 non d ame     -29.533  14.900  21.530  0.00  0.00    -0.082 A 
ATOM     68  H51 non d ame     -30.128  16.925  21.935  0.00  0.00     0.083 H 
ATOM     69  C34 non d ame     -29.612  13.564  21.919  0.00  0.00    -0.075 A 
ATOM     70  H52 non d ame     -28.943  15.178  20.656  0.00  0.00     0.083 H 
ATOM     71  H53 non d ame     -29.084  12.798  21.350  0.00  0.00     0.084 H 
ENDBRANCH  58  61
ENDBRANCH  57  58
ENDBRANCH  55  57
ENDBRANCH  52  55
ENDBRANCH  49  52
ENDBRANCH  47  49
BRANCH  47  72
ATOM     72  C24 non d ame     -32.883   6.593  22.676  0.00  0.00    -0.039 C 
ATOM     73  H35 non d ame     -32.294   5.714  22.413  0.00  0.00     0.036 H 
ATOM     74  H36 non d ame     -33.905   6.477  23.035  0.00  0.00     0.036 H 
BRANCH  72  75
ATOM     75  C25 non d ame     -32.942   7.528  21.377  0.00  0.00    -0.001 C 
ATOM     76  C26 non d ame     -34.491   8.006  21.100  0.00  0.00    -0.035 C 
ATOM     77  C27 non d ame     -34.806   7.739  19.810  0.00  0.00     0.085 C 
ATOM     78  H38 non d ame     -35.181   7.381  21.666  0.00  0.00     0.036 H 
ATOM     79  H39 non d ame     -34.563   9.092  21.161  0.00  0.00     0.036 H 
ATOM     80  N5  non d ame     -33.730   6.827  19.272  0.00  0.00    -0.049 N 
ATOM     81  H40 non d ame     -35.748   7.193  19.848  0.00  0.00     0.075 H 
ATOM     82  H41 non d ame     -34.751   8.697  19.293  0.00  0.00     0.075 H 
ATOM     83  C28 non d ame     -32.513   6.903  20.331  0.00  0.00     0.193 C 
ATOM     84  H42 non d ame     -34.112   5.893  19.288  0.00  0.00     0.280 HD
ATOM     85  H43 non d ame     -33.422   7.233  18.399  0.00  0.00     0.280 HD
ATOM     86  H44 non d ame     -31.618   7.483  20.106  0.00  0.00     0.129 H 
ATOM     87  H37 non d ame     -32.178   8.306  21.393  0.00  0.00     0.046 H 
BRANCH  83  88
ATOM     88  O6  non d ame     -32.048   5.588  20.642  0.00  0.00    -0.369 OA
ATOM     89  H45 non d ame     -32.581   4.941  20.174  0.00  0.00     0.212 HD
ENDBRANCH  83  88
ENDBRANCH  72  75
ENDBRANCH  47  72
ENDBRANCH  45  47
ENDBRANCH   1  43
BRANCH   1  90
ATOM     90  C16 non d ame     -35.013   6.087  27.238  0.00  0.00    -0.035 C 
ATOM     91  H21 non d ame     -35.806   6.712  27.647  0.00  0.00     0.037 H 
ATOM     92  H22 non d ame     -35.016   5.828  26.179  0.00  0.00     0.037 H 
BRANCH  90  93
ATOM     93  C17 non d ame     -35.067   4.738  28.022  0.00  0.00    -0.059 C 
ATOM     94  H23 non d ame     -36.051   4.664  28.486  0.00  0.00     0.038 H 
BRANCH  93  95
ATOM     95  C18 non d ame     -34.890   3.502  27.083  0.00  0.00    -0.073 C 
ATOM     96  H24 non d ame     -34.985   2.586  27.665  0.00  0.00     0.028 H 
ATOM     97  H25 non d ame     -35.656   3.521  26.309  0.00  0.00     0.028 H 
ATOM     98  H26 non d ame     -33.904   3.537  26.619  0.00  0.00     0.028 H 
ENDBRANCH  93  95
BRANCH  93  99
ATOM     99  C19 non d ame     -34.031   4.719  29.149  0.00  0.00    -0.073 C 
ATOM    100  H27 non d ame     -34.495   5.059  30.075  0.00  0.00     0.028 H 
ATOM    101  H28 non d ame     -33.657   3.703  29.283  0.00  0.00     0.028 H 
ATOM    102  H29 non d ame     -33.203   5.379  28.893  0.00  0.00     0.028 H 
ENDBRANCH  93  99
ENDBRANCH  90  93
ENDBRANCH   1  90
TORSDOF 26
ENDMDL
MODEL 13
REMARK VINA RESULT:      -6.5      3.133      7.533
REMARK  26 active torsions:
REMARK  status: ('A' for Active; 'I' for Inactive)
REMARK    1  A    between atoms: C2_2  and  C3_3 
REMARK    2  A    between atoms: C4_6  and  C5_7 
REMARK       I    between atoms: C5_7  and  N2_9 
REMARK    3  A    between atoms: N2_9  and  C6_10 
REMARK    4  A    between atoms: C6_10  and  C7_11 
REMARK    5  A    between atoms: C6_10  and  C8_13 
REMARK       I    between atoms: C7_11  and  N3_14 
REMARK    6  A    between atoms: N3_14  and  C9_15 
REMARK    7  A    between atoms: C9_15  and  C10_16 
REMARK    8  A    between atoms: C9_15  and  C11_18 
REMARK       I    between atoms: C10_16  and  N4_21 
REMARK    9  A    between atoms: C11_18  and  C12_19 
REMARK   10  A    between atoms: C11_18  and  C13_20 
REMARK   11  A    between atoms: N4_21  and  C14_22 
REMARK   12  A    between atoms: C14_22  and  C15_23 
REMARK   13  A    between atoms: C14_22  and  C16_25 
REMARK       I    between atoms: C15_23  and  N6_40 
REMARK   14  A    between atoms: C16_25  and  C17_26 
REMARK   15  A    between atoms: C17_26  and  C18_27 
REMARK   16  A    between atoms: C17_26  and  C19_28 
REMARK   17  A    between atoms: C20_29  and  C21_30 
REMARK   18  A    between atoms: C20_29  and  C24_33 
REMARK   19  A    between atoms: C20_29  and  N6_40 
REMARK   20  A    between atoms: C21_30  and  C22_31 
REMARK   21  A    between atoms: C22_31  and  C23_32 
REMARK   22  A    between atoms: C23_32  and  O8_43 
REMARK   23  A    between atoms: C24_33  and  C25_34 
REMARK   24  A    between atoms: C28_38  and  O6_39 
REMARK   25  A    between atoms: C29_42  and  O8_43 
REMARK   26  A    between atoms: C29_42  and  C35_49 
ROOT
ATOM      1  C14 non d ame     -31.374  10.190  23.391  0.00  0.00     0.089 C 
ATOM      2  H20 non d ame     -31.721   9.981  22.378  0.00  0.00     0.087 H 
ENDROOT
BRANCH   1   3
ATOM      3  N4  non d ame     -31.365  11.635  23.561  0.00  0.00    -0.346 N 
ATOM      4  C10 non d ame     -30.433  12.493  22.742  0.00  0.00     0.241 C 
ATOM      5  O4  non d ame     -29.697  11.997  21.955  0.00  0.00    -0.271 OA
ATOM      6  H19 non d ame     -31.997  12.038  24.238  0.00  0.00     0.163 HD
BRANCH   4   7
ATOM      7  C9  non d ame     -30.441  13.988  22.928  0.00  0.00     0.092 C 
ATOM      8  H11 non d ame     -31.418  14.379  22.644  0.00  0.00     0.088 H 
BRANCH   7   9
ATOM      9  N3  non d ame     -30.242  14.306  24.345  0.00  0.00    -0.346 N 
ATOM     10  C7  non d ame     -31.383  14.494  25.208  0.00  0.00     0.240 C 
ATOM     11  O3  non d ame     -32.467  14.395  24.778  0.00  0.00    -0.271 OA
ATOM     12  H10 non d ame     -29.313  14.396  24.730  0.00  0.00     0.163 HD
BRANCH  10  13
ATOM     13  C6  non d ame     -31.165  14.836  26.715  0.00  0.00     0.086 C 
ATOM     14  H6  non d ame     -30.343  15.534  26.874  0.00  0.00     0.086 H 
BRANCH  13  15
ATOM     15  N2  non d ame     -32.362  15.477  27.231  0.00  0.00    -0.343 N 
ATOM     16  C5  non d ame     -32.578  16.905  26.986  0.00  0.00     0.273 C 
ATOM     17  O2  non d ame     -31.781  17.529  26.376  0.00  0.00    -0.266 OA
ATOM     18  H5  non d ame     -33.037  14.937  27.753  0.00  0.00     0.163 HD
BRANCH  16  19
ATOM     19  C4  non d ame     -33.841  17.596  27.524  0.00  0.00     0.154 A 
ATOM     20  C1  non d ame     -34.293  18.922  27.230  0.00  0.00    -0.017 A 
ATOM     21  C2  non d ame     -35.489  19.070  27.968  0.00  0.00     0.077 A 
ATOM     22  H1  non d ame     -33.825  19.662  26.582  0.00  0.00     0.091 H 
ATOM     23  O1  non d ame     -35.691  17.954  28.606  0.00  0.00    -0.218 OA
ATOM     24  N1  non d ame     -34.743  17.079  28.363  0.00  0.00    -0.123 NA
BRANCH  21  25
ATOM     25  C3  non d ame     -36.376  20.307  28.007  0.00  0.00    -0.029 C 
ATOM     26  H2  non d ame     -37.408  20.008  28.189  0.00  0.00     0.036 H 
ATOM     27  H3  non d ame     -36.043  20.967  28.808  0.00  0.00     0.036 H 
ATOM     28  H4  non d ame     -36.312  20.831  27.054  0.00  0.00     0.036 H 
ENDBRANCH  21  25
ENDBRANCH  16  19
ENDBRANCH  13  15
BRANCH  13  29
ATOM     29  C8  non d ame     -30.885  13.570  27.484  0.00  0.00    -0.049 C 
ATOM     30  H7  non d ame     -30.983  12.711  26.820  0.00  0.00     0.030 H 
ATOM     31  H8  non d ame     -29.872  13.605  27.885  0.00  0.00     0.030 H 
ATOM     32  H9  non d ame     -31.597  13.478  28.304  0.00  0.00     0.030 H 
ENDBRANCH  13  29
ENDBRANCH  10  13
ENDBRANCH   7   9
BRANCH   7  33
ATOM     33  C11 non d ame     -29.290  14.620  22.091  0.00  0.00    -0.033 C 
ATOM     34  H12 non d ame     -28.916  13.852  21.414  0.00  0.00     0.042 H 
BRANCH  33  35
ATOM     35  C12 non d ame     -29.808  15.805  21.217  0.00  0.00    -0.071 C 
ATOM     36  H13 non d ame     -30.240  15.415  20.295  0.00  0.00     0.028 H 
ATOM     37  H14 non d ame     -30.568  16.358  21.768  0.00  0.00     0.028 H 
ATOM     38  H15 non d ame     -28.978  16.469  20.976  0.00  0.00     0.028 H 
ENDBRANCH  33  35
BRANCH  33  39
ATOM     39  C13 non d ame     -28.111  15.069  23.012  0.00  0.00    -0.071 C 
ATOM     40  H16 non d ame     -27.998  14.358  23.830  0.00  0.00     0.028 H 
ATOM     41  H17 non d ame     -27.189  15.103  22.430  0.00  0.00     0.028 H 
ATOM     42  H18 non d ame     -28.321  16.059  23.415  0.00  0.00     0.028 H 
ENDBRANCH  33  39
ENDBRANCH   7  33
ENDBRANCH   4   7
ENDBRANCH   1   3
BRANCH   1  43
ATOM     43  C15 non d ame     -32.306   9.570  24.471  0.00  0.00     0.240 C 
ATOM     44  O5  non d ame     -33.382   9.171  24.164  0.00  0.00    -0.271 OA
ATOM     45  N6  non d ame     -31.852   9.465  25.887  0.00  0.00    -0.355 N 
ATOM     46  H46 non d ame     -30.937   9.796  26.159  0.00  0.00     0.162 HD
BRANCH  45  47
ATOM     47  C20 non d ame     -32.749   8.872  26.902  0.00  0.00     0.013 C 
ATOM     48  H30 non d ame     -33.742   8.783  26.462  0.00  0.00     0.072 H 
BRANCH  47  49
ATOM     49  C21 non d ame     -32.800   9.775  28.113  0.00  0.00    -0.038 C 
ATOM     50  H31 non d ame     -31.850   9.631  28.629  0.00  0.00     0.036 H 
ATOM     51  H32 non d ame     -33.070  10.761  27.734  0.00  0.00     0.036 H 
BRANCH  49  52
ATOM     52  C22 non d ame     -33.905   9.374  29.114  0.00  0.00     0.018 C 
ATOM     53  H33 non d ame     -34.847   9.645  28.638  0.00  0.00     0.048 H 
ATOM     54  H34 non d ame     -33.705   8.334  29.374  0.00  0.00     0.048 H 
BRANCH  52  55
ATOM     55  C23 non d ame     -33.858  10.166  30.450  0.00  0.00     0.259 C 
ATOM     56  O7  non d ame     -32.825  10.570  30.876  0.00  0.00    -0.265 OA
BRANCH  55  57
ATOM     57  O8  non d ame     -35.064  10.393  31.168  0.00  0.00    -0.317 OA
BRANCH  57  58
ATOM     58  C29 non d ame     -35.259   9.508  32.274  0.00  0.00     0.052 C 
ATOM     59  H47 non d ame     -34.260   9.230  32.609  0.00  0.00     0.082 H 
ATOM     60  H48 non d ame     -35.937  10.027  32.952  0.00  0.00     0.082 H 
BRANCH  58  61
ATOM     61  C35 non d ame     -35.973   8.234  31.748  0.00  0.00    -0.034 A 
ATOM     62  C30 non d ame     -37.336   8.262  31.474  0.00  0.00    -0.075 A 
ATOM     63  C31 non d ame     -37.977   7.118  31.001  0.00  0.00    -0.082 A 
ATOM     64  H49 non d ame     -37.903   9.180  31.629  0.00  0.00     0.084 H 
ATOM     65  C32 non d ame     -37.250   5.941  30.805  0.00  0.00    -0.083 A 
ATOM     66  H50 non d ame     -39.046   7.144  30.786  0.00  0.00     0.083 H 
ATOM     67  C33 non d ame     -35.890   5.917  31.084  0.00  0.00    -0.082 A 
ATOM     68  H51 non d ame     -37.743   5.042  30.435  0.00  0.00     0.083 H 
ATOM     69  C34 non d ame     -35.245   7.058  31.554  0.00  0.00    -0.075 A 
ATOM     70  H52 non d ame     -35.326   4.996  30.932  0.00  0.00     0.083 H 
ATOM     71  H53 non d ame     -34.176   7.032  31.769  0.00  0.00     0.084 H 
ENDBRANCH  58  61
ENDBRANCH  57  58
ENDBRANCH  55  57
ENDBRANCH  52  55
ENDBRANCH  49  52
ENDBRANCH  47  49
BRANCH  47  72
ATOM     72  C24 non d ame     -32.225   7.497  27.313  0.00  0.00    -0.039 C 
ATOM     73  H35 non d ame     -31.223   7.430  26.891  0.00  0.00     0.036 H 
ATOM     74  H36 non d ame     -32.366   7.444  28.393  0.00  0.00     0.036 H 
BRANCH  72  75
ATOM     75  C25 non d ame     -33.091   6.315  26.665  0.00  0.00    -0.001 C 
ATOM     76  C26 non d ame     -34.694   6.653  26.806  0.00  0.00    -0.035 C 
ATOM     77  C27 non d ame     -35.318   5.584  27.358  0.00  0.00     0.085 C 
ATOM     78  H38 non d ame     -34.846   7.443  27.541  0.00  0.00     0.036 H 
ATOM     79  H39 non d ame     -35.149   6.731  25.819  0.00  0.00     0.036 H 
ATOM     80  N5  non d ame     -34.242   4.678  27.905  0.00  0.00    -0.049 N 
ATOM     81  H40 non d ame     -35.902   5.984  28.186  0.00  0.00     0.075 H 
ATOM     82  H41 non d ame     -35.819   5.081  26.531  0.00  0.00     0.075 H 
ATOM     83  C28 non d ame     -32.857   5.188  27.250  0.00  0.00     0.193 C 
ATOM     84  H42 non d ame     -34.207   4.844  28.901  0.00  0.00     0.280 HD
ATOM     85  H43 non d ame     -34.442   3.753  27.554  0.00  0.00     0.280 HD
ATOM     86  H44 non d ame     -32.393   4.634  26.435  0.00  0.00     0.129 H 
ATOM     87  H37 non d ame     -32.729   6.033  25.676  0.00  0.00     0.046 H 
BRANCH  83  88
ATOM     88  O6  non d ame     -31.849   5.303  28.256  0.00  0.00    -0.369 OA
ATOM     89  H45 non d ame     -31.116   4.720  28.043  0.00  0.00     0.212 HD
ENDBRANCH  83  88
ENDBRANCH  72  75
ENDBRANCH  47  72
ENDBRANCH  45  47
ENDBRANCH   1  43
BRANCH   1  90
ATOM     90  C16 non d ame     -29.960   9.660  23.570  0.00  0.00    -0.035 C 
ATOM     91  H21 non d ame     -29.306  10.497  23.328  0.00  0.00     0.037 H 
ATOM     92  H22 non d ame     -29.940   9.223  24.568  0.00  0.00     0.037 H 
BRANCH  90  93
ATOM     93  C17 non d ame     -29.591   8.512  22.577  0.00  0.00    -0.059 C 
ATOM     94  H23 non d ame     -29.926   8.812  21.585  0.00  0.00     0.038 H 
BRANCH  93  95
ATOM     95  C18 non d ame     -28.050   8.268  22.506  0.00  0.00    -0.073 C 
ATOM     96  H24 non d ame     -27.627   8.318  23.509  0.00  0.00     0.028 H 
ATOM     97  H25 non d ame     -27.857   7.283  22.081  0.00  0.00     0.028 H 
ATOM     98  H26 non d ame     -27.589   9.031  21.879  0.00  0.00     0.028 H 
ENDBRANCH  93  95
BRANCH  93  99
ATOM     99  C19 non d ame     -30.331   7.221  22.936  0.00  0.00    -0.073 C 
ATOM    100  H27 non d ame     -29.706   6.363  22.688  0.00  0.00     0.028 H 
ATOM    101  H28 non d ame     -30.552   7.213  24.003  0.00  0.00     0.028 H 
ATOM    102  H29 non d ame     -31.263   7.168  22.373  0.00  0.00     0.028 H 
ENDBRANCH  93  99
ENDBRANCH  90  93
ENDBRANCH   1  90
TORSDOF 26
ENDMDL
MODEL 14
REMARK VINA RESULT:      -6.4      3.137      7.844
REMARK  26 active torsions:
REMARK  status: ('A' for Active; 'I' for Inactive)
REMARK    1  A    between atoms: C2_2  and  C3_3 
REMARK    2  A    between atoms: C4_6  and  C5_7 
REMARK       I    between atoms: C5_7  and  N2_9 
REMARK    3  A    between atoms: N2_9  and  C6_10 
REMARK    4  A    between atoms: C6_10  and  C7_11 
REMARK    5  A    between atoms: C6_10  and  C8_13 
REMARK       I    between atoms: C7_11  and  N3_14 
REMARK    6  A    between atoms: N3_14  and  C9_15 
REMARK    7  A    between atoms: C9_15  and  C10_16 
REMARK    8  A    between atoms: C9_15  and  C11_18 
REMARK       I    between atoms: C10_16  and  N4_21 
REMARK    9  A    between atoms: C11_18  and  C12_19 
REMARK   10  A    between atoms: C11_18  and  C13_20 
REMARK   11  A    between atoms: N4_21  and  C14_22 
REMARK   12  A    between atoms: C14_22  and  C15_23 
REMARK   13  A    between atoms: C14_22  and  C16_25 
REMARK       I    between atoms: C15_23  and  N6_40 
REMARK   14  A    between atoms: C16_25  and  C17_26 
REMARK   15  A    between atoms: C17_26  and  C18_27 
REMARK   16  A    between atoms: C17_26  and  C19_28 
REMARK   17  A    between atoms: C20_29  and  C21_30 
REMARK   18  A    between atoms: C20_29  and  C24_33 
REMARK   19  A    between atoms: C20_29  and  N6_40 
REMARK   20  A    between atoms: C21_30  and  C22_31 
REMARK   21  A    between atoms: C22_31  and  C23_32 
REMARK   22  A    between atoms: C23_32  and  O8_43 
REMARK   23  A    between atoms: C24_33  and  C25_34 
REMARK   24  A    between atoms: C28_38  and  O6_39 
REMARK   25  A    between atoms: C29_42  and  O8_43 
REMARK   26  A    between atoms: C29_42  and  C35_49 
ROOT
ATOM      1  C14 non d ame     -35.674  14.027  26.946  0.00  0.00     0.089 C 
ATOM      2  H20 non d ame     -35.919  14.316  27.968  0.00  0.00     0.087 H 
ENDROOT
BRANCH   1   3
ATOM      3  N4  non d ame     -34.603  14.900  26.489  0.00  0.00    -0.346 N 
ATOM      4  C10 non d ame     -33.993  15.913  27.425  0.00  0.00     0.241 C 
ATOM      5  O4  non d ame     -34.383  16.009  28.542  0.00  0.00    -0.271 OA
ATOM      6  H19 non d ame     -34.287  14.804  25.534  0.00  0.00     0.163 HD
BRANCH   4   7
ATOM      7  C9  non d ame     -32.882  16.804  26.936  0.00  0.00     0.092 C 
ATOM      8  H11 non d ame     -32.031  16.719  27.611  0.00  0.00     0.088 H 
BRANCH   7   9
ATOM      9  N3  non d ame     -32.436  16.350  25.616  0.00  0.00    -0.346 N 
ATOM     10  C7  non d ame     -31.452  15.300  25.509  0.00  0.00     0.240 C 
ATOM     11  O3  non d ame     -31.009  14.810  26.476  0.00  0.00    -0.271 OA
ATOM     12  H10 non d ame     -32.808  16.764  24.773  0.00  0.00     0.163 HD
BRANCH  10  13
ATOM     13  C6  non d ame     -30.979  14.823  24.101  0.00  0.00     0.086 C 
ATOM     14  H6  non d ame     -29.920  15.011  23.926  0.00  0.00     0.086 H 
BRANCH  13  15
ATOM     15  N2  non d ame     -31.167  13.385  24.003  0.00  0.00    -0.343 N 
ATOM     16  C5  non d ame     -30.308  12.605  23.110  0.00  0.00     0.273 C 
ATOM     17  O2  non d ame     -29.471  13.143  22.473  0.00  0.00    -0.266 OA
ATOM     18  H5  non d ame     -31.887  12.933  24.549  0.00  0.00     0.163 HD
BRANCH  16  19
ATOM     19  C4  non d ame     -30.495  11.083  22.997  0.00  0.00     0.154 A 
ATOM     20  C1  non d ame     -31.476  10.281  23.661  0.00  0.00    -0.017 A 
ATOM     21  C2  non d ame     -31.224   8.962  23.223  0.00  0.00     0.077 A 
ATOM     22  H1  non d ame     -32.252  10.606  24.354  0.00  0.00     0.091 H 
ATOM     23  O1  non d ame     -30.216   9.012  22.403  0.00  0.00    -0.218 OA
ATOM     24  N1  non d ame     -29.773  10.239  22.255  0.00  0.00    -0.123 NA
BRANCH  21  25
ATOM     25  C3  non d ame     -31.992   7.713  23.634  0.00  0.00    -0.029 C 
ATOM     26  H2  non d ame     -31.866   6.942  22.875  0.00  0.00     0.036 H 
ATOM     27  H3  non d ame     -31.610   7.349  24.588  0.00  0.00     0.036 H 
ATOM     28  H4  non d ame     -33.050   7.954  23.735  0.00  0.00     0.036 H 
ENDBRANCH  21  25
ENDBRANCH  16  19
ENDBRANCH  13  15
BRANCH  13  29
ATOM     29  C8  non d ame     -31.781  15.523  23.034  0.00  0.00    -0.049 C 
ATOM     30  H7  non d ame     -31.419  16.545  22.919  0.00  0.00     0.030 H 
ATOM     31  H8  non d ame     -31.672  14.990  22.090  0.00  0.00     0.030 H 
ATOM     32  H9  non d ame     -32.832  15.541  23.323  0.00  0.00     0.030 H 
ENDBRANCH  13  29
ENDBRANCH  10  13
ENDBRANCH   7   9
BRANCH   7  33
ATOM     33  C11 non d ame     -33.400  18.268  26.830  0.00  0.00    -0.033 C 
ATOM     34  H12 non d ame     -34.118  18.422  27.636  0.00  0.00     0.042 H 
BRANCH  33  35
ATOM     35  C12 non d ame     -32.244  19.297  27.029  0.00  0.00    -0.071 C 
ATOM     36  H13 non d ame     -31.786  19.520  26.065  0.00  0.00     0.028 H 
ATOM     37  H14 non d ame     -32.643  20.213  27.463  0.00  0.00     0.028 H 
ATOM     38  H15 non d ame     -31.493  18.875  27.698  0.00  0.00     0.028 H 
ENDBRANCH  33  35
BRANCH  33  39
ATOM     39  C13 non d ame     -34.140  18.503  25.474  0.00  0.00    -0.071 C 
ATOM     40  H16 non d ame     -33.658  19.319  24.934  0.00  0.00     0.028 H 
ATOM     41  H17 non d ame     -34.095  17.593  24.873  0.00  0.00     0.028 H 
ATOM     42  H18 non d ame     -35.181  18.759  25.667  0.00  0.00     0.028 H 
ENDBRANCH  33  39
ENDBRANCH   7  33
ENDBRANCH   4   7
ENDBRANCH   1   3
BRANCH   1  43
ATOM     43  C15 non d ame     -35.184  12.553  26.855  0.00  0.00     0.240 C 
ATOM     44  O5  non d ame     -34.808  12.119  25.814  0.00  0.00    -0.271 OA
ATOM     45  N6  non d ame     -35.177  11.685  28.067  0.00  0.00    -0.355 N 
ATOM     46  H46 non d ame     -35.490  12.044  28.957  0.00  0.00     0.162 HD
BRANCH  45  47
ATOM     47  C20 non d ame     -34.707  10.286  27.963  0.00  0.00     0.013 C 
ATOM     48  H30 non d ame     -34.598  10.046  26.906  0.00  0.00     0.072 H 
BRANCH  47  49
ATOM     49  C21 non d ame     -35.728   9.369  28.599  0.00  0.00    -0.038 C 
ATOM     50  H31 non d ame     -36.470   9.172  27.825  0.00  0.00     0.036 H 
ATOM     51  H32 non d ame     -35.156   8.546  29.028  0.00  0.00     0.036 H 
BRANCH  49  52
ATOM     52  C22 non d ame     -36.484  10.033  29.770  0.00  0.00     0.018 C 
ATOM     53  H33 non d ame     -35.734  10.600  30.321  0.00  0.00     0.048 H 
ATOM     54  H34 non d ame     -37.334  10.546  29.320  0.00  0.00     0.048 H 
BRANCH  52  55
ATOM     55  C23 non d ame     -37.083   9.019  30.784  0.00  0.00     0.259 C 
ATOM     56  O7  non d ame     -36.858   9.123  31.946  0.00  0.00    -0.265 OA
BRANCH  55  57
ATOM     57  O8  non d ame     -37.895   7.953  30.305  0.00  0.00    -0.317 OA
BRANCH  57  58
ATOM     58  C29 non d ame     -37.734   6.729  31.027  0.00  0.00     0.052 C 
ATOM     59  H47 non d ame     -37.585   7.017  32.068  0.00  0.00     0.082 H 
ATOM     60  H48 non d ame     -38.586   6.108  30.750  0.00  0.00     0.082 H 
BRANCH  58  61
ATOM     61  C35 non d ame     -36.439   6.040  30.519  0.00  0.00    -0.034 A 
ATOM     62  C30 non d ame     -36.309   5.707  29.175  0.00  0.00    -0.075 A 
ATOM     63  C31 non d ame     -35.146   5.088  28.718  0.00  0.00    -0.082 A 
ATOM     64  H49 non d ame     -37.118   5.931  28.479  0.00  0.00     0.084 H 
ATOM     65  C32 non d ame     -34.112   4.800  29.612  0.00  0.00    -0.083 A 
ATOM     66  H50 non d ame     -35.047   4.830  27.663  0.00  0.00     0.083 H 
ATOM     67  C33 non d ame     -34.248   5.131  30.953  0.00  0.00    -0.082 A 
ATOM     68  H51 non d ame     -33.199   4.317  29.263  0.00  0.00     0.083 H 
ATOM     69  C34 non d ame     -35.407   5.751  31.414  0.00  0.00    -0.075 A 
ATOM     70  H52 non d ame     -33.440   4.902  31.649  0.00  0.00     0.083 H 
ATOM     71  H53 non d ame     -35.506   6.009  32.469  0.00  0.00     0.084 H 
ENDBRANCH  58  61
ENDBRANCH  57  58
ENDBRANCH  55  57
ENDBRANCH  52  55
ENDBRANCH  49  52
ENDBRANCH  47  49
BRANCH  47  72
ATOM     72  C24 non d ame     -33.369  10.136  28.683  0.00  0.00    -0.039 C 
ATOM     73  H35 non d ame     -33.505   9.310  29.381  0.00  0.00     0.036 H 
ATOM     74  H36 non d ame     -32.621  10.064  27.893  0.00  0.00     0.036 H 
BRANCH  72  75
ATOM     75  C25 non d ame     -33.014  11.435  29.551  0.00  0.00    -0.001 C 
ATOM     76  C26 non d ame     -31.626  12.119  28.995  0.00  0.00    -0.035 C 
ATOM     77  C27 non d ame     -30.782  12.303  30.038  0.00  0.00     0.085 C 
ATOM     78  H38 non d ame     -31.092  11.415  28.356  0.00  0.00     0.036 H 
ATOM     79  H39 non d ame     -31.823  13.132  28.644  0.00  0.00     0.036 H 
ATOM     80  N5  non d ame     -31.334  11.511  31.198  0.00  0.00    -0.049 N 
ATOM     81  H40 non d ame     -29.834  11.865  29.726  0.00  0.00     0.075 H 
ATOM     82  H41 non d ame     -30.839  13.366  30.274  0.00  0.00     0.075 H 
ATOM     83  C28 non d ame     -32.851  11.134  30.797  0.00  0.00     0.193 C 
ATOM     84  H42 non d ame     -30.793  10.660  31.247  0.00  0.00     0.280 HD
ATOM     85  H43 non d ame     -31.357  12.141  31.988  0.00  0.00     0.280 HD
ATOM     86  H44 non d ame     -33.691  11.669  31.241  0.00  0.00     0.129 H 
ATOM     87  H37 non d ame     -33.873  12.093  29.681  0.00  0.00     0.046 H 
BRANCH  83  88
ATOM     88  O6  non d ame     -33.100   9.751  31.054  0.00  0.00    -0.369 OA
ATOM     89  H45 non d ame     -34.047   9.592  31.060  0.00  0.00     0.212 HD
ENDBRANCH  83  88
ENDBRANCH  72  75
ENDBRANCH  47  72
ENDBRANCH  45  47
ENDBRANCH   1  43
BRANCH   1  90
ATOM     90  C16 non d ame     -36.887  14.219  26.051  0.00  0.00    -0.035 C 
ATOM     91  H21 non d ame     -37.204  13.214  25.774  0.00  0.00     0.037 H 
ATOM     92  H22 non d ame     -37.560  14.867  26.613  0.00  0.00     0.037 H 
BRANCH  90  93
ATOM     93  C17 non d ame     -36.569  14.965  24.716  0.00  0.00    -0.059 C 
ATOM     94  H23 non d ame     -35.486  15.067  24.644  0.00  0.00     0.038 H 
BRANCH  93  95
ATOM     95  C18 non d ame     -37.057  14.167  23.464  0.00  0.00    -0.073 C 
ATOM     96  H24 non d ame     -37.178  13.116  23.728  0.00  0.00     0.028 H 
ATOM     97  H25 non d ame     -38.012  14.568  23.127  0.00  0.00     0.028 H 
ATOM     98  H26 non d ame     -36.321  14.259  22.666  0.00  0.00     0.028 H 
ENDBRANCH  93  95
BRANCH  93  99
ATOM     99  C19 non d ame     -37.159  16.377  24.725  0.00  0.00    -0.073 C 
ATOM    100  H27 non d ame     -38.240  16.319  24.858  0.00  0.00     0.028 H 
ATOM    101  H28 non d ame     -36.723  16.949  25.544  0.00  0.00     0.028 H 
ATOM    102  H29 non d ame     -36.935  16.871  23.779  0.00  0.00     0.028 H 
ENDBRANCH  93  99
ENDBRANCH  90  93
ENDBRANCH   1  90
TORSDOF 26
ENDMDL
MODEL 15
REMARK VINA RESULT:      -6.4      3.955      7.992
REMARK  26 active torsions:
REMARK  status: ('A' for Active; 'I' for Inactive)
REMARK    1  A    between atoms: C2_2  and  C3_3 
REMARK    2  A    between atoms: C4_6  and  C5_7 
REMARK       I    between atoms: C5_7  and  N2_9 
REMARK    3  A    between atoms: N2_9  and  C6_10 
REMARK    4  A    between atoms: C6_10  and  C7_11 
REMARK    5  A    between atoms: C6_10  and  C8_13 
REMARK       I    between atoms: C7_11  and  N3_14 
REMARK    6  A    between atoms: N3_14  and  C9_15 
REMARK    7  A    between atoms: C9_15  and  C10_16 
REMARK    8  A    between atoms: C9_15  and  C11_18 
REMARK       I    between atoms: C10_16  and  N4_21 
REMARK    9  A    between atoms: C11_18  and  C12_19 
REMARK   10  A    between atoms: C11_18  and  C13_20 
REMARK   11  A    between atoms: N4_21  and  C14_22 
REMARK   12  A    between atoms: C14_22  and  C15_23 
REMARK   13  A    between atoms: C14_22  and  C16_25 
REMARK       I    between atoms: C15_23  and  N6_40 
REMARK   14  A    between atoms: C16_25  and  C17_26 
REMARK   15  A    between atoms: C17_26  and  C18_27 
REMARK   16  A    between atoms: C17_26  and  C19_28 
REMARK   17  A    between atoms: C20_29  and  C21_30 
REMARK   18  A    between atoms: C20_29  and  C24_33 
REMARK   19  A    between atoms: C20_29  and  N6_40 
REMARK   20  A    between atoms: C21_30  and  C22_31 
REMARK   21  A    between atoms: C22_31  and  C23_32 
REMARK   22  A    between atoms: C23_32  and  O8_43 
REMARK   23  A    between atoms: C24_33  and  C25_34 
REMARK   24  A    between atoms: C28_38  and  O6_39 
REMARK   25  A    between atoms: C29_42  and  O8_43 
REMARK   26  A    between atoms: C29_42  and  C35_49 
ROOT
ATOM      1  C14 non d ame     -32.644   9.521  24.928  0.00  0.00     0.089 C 
ATOM      2  H20 non d ame     -32.135   8.582  25.147  0.00  0.00     0.087 H 
ENDROOT
BRANCH   1   3
ATOM      3  N4  non d ame     -33.748   9.650  25.868  0.00  0.00    -0.346 N 
ATOM      4  C10 non d ame     -34.570   8.444  26.247  0.00  0.00     0.241 C 
ATOM      5  O4  non d ame     -34.326   7.380  25.781  0.00  0.00    -0.271 OA
ATOM      6  H19 non d ame     -33.940  10.564  26.253  0.00  0.00     0.163 HD
BRANCH   4   7
ATOM      7  C9  non d ame     -35.705   8.595  27.226  0.00  0.00     0.092 C 
ATOM      8  H11 non d ame     -36.423   7.790  27.068  0.00  0.00     0.088 H 
BRANCH   7   9
ATOM      9  N3  non d ame     -35.193   8.457  28.593  0.00  0.00    -0.346 N 
ATOM     10  C7  non d ame     -35.992   7.799  29.598  0.00  0.00     0.240 C 
ATOM     11  O3  non d ame     -37.048   7.376  29.325  0.00  0.00    -0.271 OA
ATOM     12  H10 non d ame     -34.285   8.819  28.844  0.00  0.00     0.163 HD
BRANCH  10  13
ATOM     13  C6  non d ame     -35.443   7.659  31.052  0.00  0.00     0.086 C 
ATOM     14  H6  non d ame     -36.193   7.289  31.752  0.00  0.00     0.086 H 
BRANCH  13  15
ATOM     15  N2  non d ame     -34.358   6.692  31.056  0.00  0.00    -0.343 N 
ATOM     16  C5  non d ame     -34.621   5.313  31.473  0.00  0.00     0.273 C 
ATOM     17  O2  non d ame     -35.709   4.993  31.807  0.00  0.00    -0.266 OA
ATOM     18  H5  non d ame     -33.431   6.975  30.771  0.00  0.00     0.163 HD
BRANCH  16  19
ATOM     19  C4  non d ame     -33.484   4.280  31.480  0.00  0.00     0.154 A 
ATOM     20  C1  non d ame     -33.057   3.472  32.581  0.00  0.00    -0.017 A 
ATOM     21  C2  non d ame     -31.989   2.699  32.071  0.00  0.00     0.077 A 
ATOM     22  H1  non d ame     -33.459   3.449  33.593  0.00  0.00     0.091 H 
ATOM     23  O1  non d ame     -31.831   3.031  30.823  0.00  0.00    -0.218 OA
ATOM     24  N1  non d ame     -32.692   3.953  30.455  0.00  0.00    -0.123 NA
BRANCH  21  25
ATOM     25  C3  non d ame     -31.175   1.667  32.841  0.00  0.00    -0.029 C 
ATOM     26  H2  non d ame     -31.638   1.490  33.812  0.00  0.00     0.036 H 
ATOM     27  H3  non d ame     -31.145   0.735  32.278  0.00  0.00     0.036 H 
ATOM     28  H4  non d ame     -30.161   2.038  32.985  0.00  0.00     0.036 H 
ENDBRANCH  21  25
ENDBRANCH  16  19
ENDBRANCH  13  15
BRANCH  13  29
ATOM     29  C8  non d ame     -34.944   8.997  31.535  0.00  0.00    -0.049 C 
ATOM     30  H7  non d ame     -34.329   9.456  30.762  0.00  0.00     0.030 H 
ATOM     31  H8  non d ame     -35.794   9.643  31.755  0.00  0.00     0.030 H 
ATOM     32  H9  non d ame     -34.349   8.859  32.438  0.00  0.00     0.030 H 
ENDBRANCH  13  29
ENDBRANCH  10  13
ENDBRANCH   7   9
BRANCH   7  33
ATOM     33  C11 non d ame     -36.353  10.000  27.056  0.00  0.00    -0.033 C 
ATOM     34  H12 non d ame     -35.975  10.426  26.127  0.00  0.00     0.042 H 
BRANCH  33  35
ATOM     35  C12 non d ame     -37.905   9.898  26.928  0.00  0.00    -0.071 C 
ATOM     36  H13 non d ame     -38.375  10.527  27.684  0.00  0.00     0.028 H 
ATOM     37  H14 non d ame     -38.210  10.233  25.936  0.00  0.00     0.028 H 
ATOM     38  H15 non d ame     -38.215   8.863  27.074  0.00  0.00     0.028 H 
ENDBRANCH  33  35
BRANCH  33  39
ATOM     39  C13 non d ame     -35.943  10.950  28.227  0.00  0.00    -0.071 C 
ATOM     40  H16 non d ame     -36.485  11.892  28.137  0.00  0.00     0.028 H 
ATOM     41  H17 non d ame     -36.187  10.479  29.180  0.00  0.00     0.028 H 
ATOM     42  H18 non d ame     -34.871  11.141  28.181  0.00  0.00     0.028 H 
ENDBRANCH  33  39
ENDBRANCH   7  33
ENDBRANCH   4   7
ENDBRANCH   1   3
BRANCH   1  43
ATOM     43  C15 non d ame     -31.706  10.751  25.095  0.00  0.00     0.240 C 
ATOM     44  O5  non d ame     -31.032  10.852  26.069  0.00  0.00    -0.271 OA
ATOM     45  N6  non d ame     -31.640  11.797  24.036  0.00  0.00    -0.355 N 
ATOM     46  H46 non d ame     -32.204  11.720  23.202  0.00  0.00     0.162 HD
BRANCH  45  47
ATOM     47  C20 non d ame     -30.742  12.959  24.209  0.00  0.00     0.013 C 
ATOM     48  H30 non d ame     -29.934  12.662  24.877  0.00  0.00     0.072 H 
BRANCH  47  49
ATOM     49  C21 non d ame     -31.519  14.106  24.815  0.00  0.00    -0.038 C 
ATOM     50  H31 non d ame     -31.224  14.992  24.252  0.00  0.00     0.036 H 
ATOM     51  H32 non d ame     -32.560  13.785  24.821  0.00  0.00     0.036 H 
BRANCH  49  52
ATOM     52  C22 non d ame     -31.137  14.377  26.286  0.00  0.00     0.018 C 
ATOM     53  H33 non d ame     -30.469  13.565  26.572  0.00  0.00     0.048 H 
ATOM     54  H34 non d ame     -30.784  15.408  26.315  0.00  0.00     0.048 H 
BRANCH  52  55
ATOM     55  C23 non d ame     -32.339  14.308  27.268  0.00  0.00     0.259 C 
ATOM     56  O7  non d ame     -33.144  13.439  27.176  0.00  0.00    -0.265 OA
BRANCH  55  57
ATOM     57  O8  non d ame     -32.475  15.305  28.274  0.00  0.00    -0.317 OA
BRANCH  57  58
ATOM     58  C29 non d ame     -33.700  16.041  28.202  0.00  0.00     0.052 C 
ATOM     59  H47 non d ame     -34.355  15.460  27.553  0.00  0.00     0.082 H 
ATOM     60  H48 non d ame     -33.989  16.235  29.235  0.00  0.00     0.082 H 
BRANCH  58  61
ATOM     61  C35 non d ame     -33.403  17.399  27.513  0.00  0.00    -0.034 A 
ATOM     62  C30 non d ame     -33.793  17.611  26.194  0.00  0.00    -0.075 A 
ATOM     63  C31 non d ame     -33.526  18.831  25.575  0.00  0.00    -0.082 A 
ATOM     64  H49 non d ame     -34.307  16.821  25.646  0.00  0.00     0.084 H 
ATOM     65  C32 non d ame     -32.864  19.841  26.278  0.00  0.00    -0.083 A 
ATOM     66  H50 non d ame     -33.834  18.994  24.542  0.00  0.00     0.083 H 
ATOM     67  C33 non d ame     -32.474  19.623  27.592  0.00  0.00    -0.082 A 
ATOM     68  H51 non d ame     -32.652  20.798  25.801  0.00  0.00     0.083 H 
ATOM     69  C34 non d ame     -32.740  18.406  28.216  0.00  0.00    -0.075 A 
ATOM     70  H52 non d ame     -31.955  20.412  28.138  0.00  0.00     0.083 H 
ATOM     71  H53 non d ame     -32.431  18.244  29.249  0.00  0.00     0.084 H 
ENDBRANCH  58  61
ENDBRANCH  57  58
ENDBRANCH  55  57
ENDBRANCH  52  55
ENDBRANCH  49  52
ENDBRANCH  47  49
BRANCH  47  72
ATOM     72  C24 non d ame     -30.180  13.384  22.853  0.00  0.00    -0.039 C 
ATOM     73  H35 non d ame     -29.131  13.089  22.869  0.00  0.00     0.036 H 
ATOM     74  H36 non d ame     -30.855  12.956  22.113  0.00  0.00     0.036 H 
BRANCH  72  75
ATOM     75  C25 non d ame     -30.221  14.975  22.667  0.00  0.00    -0.001 C 
ATOM     76  C26 non d ame     -31.172  15.364  21.383  0.00  0.00    -0.035 C 
ATOM     77  C27 non d ame     -30.482  16.195  20.565  0.00  0.00     0.085 C 
ATOM     78  H38 non d ame     -31.344  14.483  20.765  0.00  0.00     0.036 H 
ATOM     79  H39 non d ame     -32.014  15.972  21.712  0.00  0.00     0.036 H 
ATOM     80  N5  non d ame     -29.038  16.147  21.003  0.00  0.00    -0.049 N 
ATOM     81  H40 non d ame     -30.566  15.759  19.570  0.00  0.00     0.075 H 
ATOM     82  H41 non d ame     -30.879  17.190  20.759  0.00  0.00     0.075 H 
ATOM     83  C28 non d ame     -29.039  15.452  22.461  0.00  0.00     0.193 C 
ATOM     84  H42 non d ame     -28.562  15.535  20.356  0.00  0.00     0.280 HD
ATOM     85  H43 non d ame     -28.739  17.106  21.105  0.00  0.00     0.280 HD
ATOM     86  H44 non d ame     -28.907  16.053  23.361  0.00  0.00     0.129 H 
ATOM     87  H37 non d ame     -30.416  15.495  23.605  0.00  0.00     0.046 H 
BRANCH  83  88
ATOM     88  O6  non d ame     -28.031  14.441  22.525  0.00  0.00    -0.369 OA
ATOM     89  H45 non d ame     -27.968  13.997  21.676  0.00  0.00     0.212 HD
ENDBRANCH  83  88
ENDBRANCH  72  75
ENDBRANCH  47  72
ENDBRANCH  45  47
ENDBRANCH   1  43
BRANCH   1  90
ATOM     90  C16 non d ame     -33.199   9.490  23.513  0.00  0.00    -0.035 C 
ATOM     91  H21 non d ame     -34.270   9.330  23.627  0.00  0.00     0.037 H 
ATOM     92  H22 non d ame     -32.831  10.400  23.039  0.00  0.00     0.037 H 
BRANCH  90  93
ATOM     93  C17 non d ame     -32.664   8.298  22.657  0.00  0.00    -0.059 C 
ATOM     94  H23 non d ame     -32.645   7.415  23.295  0.00  0.00     0.038 H 
BRANCH  93  95
ATOM     95  C18 non d ame     -33.590   7.985  21.438  0.00  0.00    -0.073 C 
ATOM     96  H24 non d ame     -33.326   7.015  21.020  0.00  0.00     0.028 H 
ATOM     97  H25 non d ame     -34.629   7.968  21.766  0.00  0.00     0.028 H 
ATOM     98  H26 non d ame     -33.462   8.755  20.678  0.00  0.00     0.028 H 
ENDBRANCH  93  95
BRANCH  93  99
ATOM     99  C19 non d ame     -31.227   8.557  22.197  0.00  0.00    -0.073 C 
ATOM    100  H27 non d ame     -30.964   9.597  22.393  0.00  0.00     0.028 H 
ATOM    101  H28 non d ame     -30.546   7.902  22.741  0.00  0.00     0.028 H 
ATOM    102  H29 non d ame     -31.146   8.357  21.129  0.00  0.00     0.028 H 
ENDBRANCH  93  99
ENDBRANCH  90  93
ENDBRANCH   1  90
TORSDOF 26
ENDMDL
MODEL 16
REMARK VINA RESULT:      -6.3      3.159      7.514
REMARK  26 active torsions:
REMARK  status: ('A' for Active; 'I' for Inactive)
REMARK    1  A    between atoms: C2_2  and  C3_3 
REMARK    2  A    between atoms: C4_6  and  C5_7 
REMARK       I    between atoms: C5_7  and  N2_9 
REMARK    3  A    between atoms: N2_9  and  C6_10 
REMARK    4  A    between atoms: C6_10  and  C7_11 
REMARK    5  A    between atoms: C6_10  and  C8_13 
REMARK       I    between atoms: C7_11  and  N3_14 
REMARK    6  A    between atoms: N3_14  and  C9_15 
REMARK    7  A    between atoms: C9_15  and  C10_16 
REMARK    8  A    between atoms: C9_15  and  C11_18 
REMARK       I    between atoms: C10_16  and  N4_21 
REMARK    9  A    between atoms: C11_18  and  C12_19 
REMARK   10  A    between atoms: C11_18  and  C13_20 
REMARK   11  A    between atoms: N4_21  and  C14_22 
REMARK   12  A    between atoms: C14_22  and  C15_23 
REMARK   13  A    between atoms: C14_22  and  C16_25 
REMARK       I    between atoms: C15_23  and  N6_40 
REMARK   14  A    between atoms: C16_25  and  C17_26 
REMARK   15  A    between atoms: C17_26  and  C18_27 
REMARK   16  A    between atoms: C17_26  and  C19_28 
REMARK   17  A    between atoms: C20_29  and  C21_30 
REMARK   18  A    between atoms: C20_29  and  C24_33 
REMARK   19  A    between atoms: C20_29  and  N6_40 
REMARK   20  A    between atoms: C21_30  and  C22_31 
REMARK   21  A    between atoms: C22_31  and  C23_32 
REMARK   22  A    between atoms: C23_32  and  O8_43 
REMARK   23  A    between atoms: C24_33  and  C25_34 
REMARK   24  A    between atoms: C28_38  and  O6_39 
REMARK   25  A    between atoms: C29_42  and  O8_43 
REMARK   26  A    between atoms: C29_42  and  C35_49 
ROOT
ATOM      1  C14 non d ame     -31.206  10.631  23.907  0.00  0.00     0.089 C 
ATOM      2  H20 non d ame     -31.982  10.236  23.251  0.00  0.00     0.087 H 
ENDROOT
BRANCH   1   3
ATOM      3  N4  non d ame     -31.238  12.082  23.801  0.00  0.00    -0.346 N 
ATOM      4  C10 non d ame     -30.371  12.791  22.792  0.00  0.00     0.241 C 
ATOM      5  O4  non d ame     -29.652  12.173  22.078  0.00  0.00    -0.271 OA
ATOM      6  H19 non d ame     -31.855  12.590  24.419  0.00  0.00     0.163 HD
BRANCH   4   7
ATOM      7  C9  non d ame     -30.421  14.293  22.691  0.00  0.00     0.092 C 
ATOM      8  H11 non d ame     -31.355  14.589  22.213  0.00  0.00     0.088 H 
BRANCH   7   9
ATOM      9  N3  non d ame     -30.421  14.874  24.037  0.00  0.00    -0.346 N 
ATOM     10  C7  non d ame     -31.659  15.313  24.633  0.00  0.00     0.240 C 
ATOM     11  O3  non d ame     -32.664  15.208  24.042  0.00  0.00    -0.271 OA
ATOM     12  H10 non d ame     -29.561  14.973  24.558  0.00  0.00     0.163 HD
BRANCH  10  13
ATOM     13  C6  non d ame     -31.651  15.933  26.064  0.00  0.00     0.086 C 
ATOM     14  H6  non d ame     -30.854  16.662  26.204  0.00  0.00     0.086 H 
BRANCH  13  15
ATOM     15  N2  non d ame     -32.903  16.640  26.279  0.00  0.00    -0.343 N 
ATOM     16  C5  non d ame     -32.881  18.076  26.565  0.00  0.00     0.273 C 
ATOM     17  O2  non d ame     -31.851  18.653  26.624  0.00  0.00    -0.266 OA
ATOM     18  H5  non d ame     -33.779  16.139  26.229  0.00  0.00     0.163 HD
BRANCH  16  19
ATOM     19  C4  non d ame     -34.197  18.836  26.792  0.00  0.00     0.154 A 
ATOM     20  C1  non d ame     -34.692  19.358  28.029  0.00  0.00    -0.017 A 
ATOM     21  C2  non d ame     -35.926  19.961  27.701  0.00  0.00     0.077 A 
ATOM     22  H1  non d ame     -34.227  19.306  29.014  0.00  0.00     0.091 H 
ATOM     23  O1  non d ame     -36.109  19.801  26.423  0.00  0.00    -0.218 OA
ATOM     24  N1  non d ame     -35.113  19.147  25.871  0.00  0.00    -0.123 NA
BRANCH  21  25
ATOM     25  C3  non d ame     -36.868  20.669  28.666  0.00  0.00    -0.029 C 
ATOM     26  H2  non d ame     -37.830  20.158  28.676  0.00  0.00     0.036 H 
ATOM     27  H3  non d ame     -36.439  20.656  29.668  0.00  0.00     0.036 H 
ATOM     28  H4  non d ame     -37.009  21.701  28.345  0.00  0.00     0.036 H 
ENDBRANCH  21  25
ENDBRANCH  16  19
ENDBRANCH  13  15
BRANCH  13  29
ATOM     29  C8  non d ame     -31.495  14.838  27.089  0.00  0.00    -0.049 C 
ATOM     30  H7  non d ame     -31.077  15.254  28.005  0.00  0.00     0.030 H 
ATOM     31  H8  non d ame     -32.469  14.398  27.301  0.00  0.00     0.030 H 
ATOM     32  H9  non d ame     -30.826  14.070  26.700  0.00  0.00     0.030 H 
ENDBRANCH  13  29
ENDBRANCH  10  13
ENDBRANCH   7   9
BRANCH   7  33
ATOM     33  C11 non d ame     -29.176  14.803  21.909  0.00  0.00    -0.033 C 
ATOM     34  H12 non d ame     -28.850  13.999  21.248  0.00  0.00     0.042 H 
BRANCH  33  35
ATOM     35  C12 non d ame     -29.530  16.031  21.013  0.00  0.00    -0.071 C 
ATOM     36  H13 non d ame     -30.605  16.210  21.051  0.00  0.00     0.028 H 
ATOM     37  H14 non d ame     -29.002  16.911  21.377  0.00  0.00     0.028 H 
ATOM     38  H15 non d ame     -29.233  15.827  19.984  0.00  0.00     0.028 H 
ENDBRANCH  33  35
BRANCH  33  39
ATOM     39  C13 non d ame     -28.000  15.134  22.883  0.00  0.00    -0.071 C 
ATOM     40  H16 non d ame     -28.404  15.448  23.846  0.00  0.00     0.028 H 
ATOM     41  H17 non d ame     -27.381  14.246  23.021  0.00  0.00     0.028 H 
ATOM     42  H18 non d ame     -27.394  15.936  22.462  0.00  0.00     0.028 H 
ENDBRANCH  33  39
ENDBRANCH   7  33
ENDBRANCH   4   7
ENDBRANCH   1   3
BRANCH   1  43
ATOM     43  C15 non d ame     -31.438  10.238  25.394  0.00  0.00     0.240 C 
ATOM     44  O5  non d ame     -31.087  10.972  26.261  0.00  0.00    -0.271 OA
ATOM     45  N6  non d ame     -32.107   8.951  25.738  0.00  0.00    -0.355 N 
ATOM     46  H46 non d ame     -32.414   8.322  25.010  0.00  0.00     0.162 HD
BRANCH  45  47
ATOM     47  C20 non d ame     -32.322   8.593  27.157  0.00  0.00     0.013 C 
ATOM     48  H30 non d ame     -31.509   9.027  27.739  0.00  0.00     0.072 H 
BRANCH  47  49
ATOM     49  C21 non d ame     -32.313   7.088  27.299  0.00  0.00    -0.038 C 
ATOM     50  H31 non d ame     -31.384   6.846  27.816  0.00  0.00     0.036 H 
ATOM     51  H32 non d ame     -33.271   6.829  27.749  0.00  0.00     0.036 H 
BRANCH  49  52
ATOM     52  C22 non d ame     -32.258   6.357  25.939  0.00  0.00     0.018 C 
ATOM     53  H33 non d ame     -32.713   7.038  25.220  0.00  0.00     0.048 H 
ATOM     54  H34 non d ame     -31.221   6.045  25.814  0.00  0.00     0.048 H 
BRANCH  52  55
ATOM     55  C23 non d ame     -33.107   5.056  25.893  0.00  0.00     0.259 C 
ATOM     56  O7  non d ame     -33.314   4.508  24.859  0.00  0.00    -0.265 OA
BRANCH  55  57
ATOM     57  O8  non d ame     -33.646   4.533  27.100  0.00  0.00    -0.317 OA
BRANCH  57  58
ATOM     58  C29 non d ame     -35.073   4.601  27.178  0.00  0.00     0.052 C 
ATOM     59  H47 non d ame     -35.369   5.388  26.485  0.00  0.00     0.082 H 
ATOM     60  H48 non d ame     -35.426   3.581  27.029  0.00  0.00     0.082 H 
BRANCH  58  61
ATOM     61  C35 non d ame     -35.452   5.046  28.616  0.00  0.00    -0.034 A 
ATOM     62  C30 non d ame     -34.469   5.157  29.594  0.00  0.00    -0.075 A 
ATOM     63  C31 non d ame     -34.810   5.556  30.885  0.00  0.00    -0.082 A 
ATOM     64  H49 non d ame     -33.431   4.930  29.348  0.00  0.00     0.084 H 
ATOM     65  C32 non d ame     -36.141   5.842  31.198  0.00  0.00    -0.083 A 
ATOM     66  H50 non d ame     -34.036   5.643  31.649  0.00  0.00     0.083 H 
ATOM     67  C33 non d ame     -37.120   5.727  30.220  0.00  0.00    -0.082 A 
ATOM     68  H51 non d ame     -36.416   6.155  32.205  0.00  0.00     0.083 H 
ATOM     69  C34 non d ame     -36.783   5.331  28.928  0.00  0.00    -0.075 A 
ATOM     70  H52 non d ame     -38.158   5.949  30.469  0.00  0.00     0.083 H 
ATOM     71  H53 non d ame     -37.557   5.243  28.165  0.00  0.00     0.084 H 
ENDBRANCH  58  61
ENDBRANCH  57  58
ENDBRANCH  55  57
ENDBRANCH  52  55
ENDBRANCH  49  52
ENDBRANCH  47  49
BRANCH  47  72
ATOM     72  C24 non d ame     -33.666   9.142  27.630  0.00  0.00    -0.039 C 
ATOM     73  H35 non d ame     -33.694  10.176  27.287  0.00  0.00     0.036 H 
ATOM     74  H36 non d ame     -34.411   8.430  27.275  0.00  0.00     0.036 H 
BRANCH  72  75
ATOM     75  C25 non d ame     -33.764   9.171  29.229  0.00  0.00    -0.001 C 
ATOM     76  C26 non d ame     -35.327   8.965  29.698  0.00  0.00    -0.035 C 
ATOM     77  C27 non d ame     -35.657   9.953  30.563  0.00  0.00     0.085 C 
ATOM     78  H38 non d ame     -35.995   9.131  28.853  0.00  0.00     0.036 H 
ATOM     79  H39 non d ame     -35.421   8.059  30.297  0.00  0.00     0.036 H 
ATOM     80  N5  non d ame     -34.571  10.998  30.475  0.00  0.00    -0.049 N 
ATOM     81  H40 non d ame     -36.588  10.374  30.183  0.00  0.00     0.075 H 
ATOM     82  H41 non d ame     -35.630   9.495  31.551  0.00  0.00     0.075 H 
ATOM     83  C28 non d ame     -33.340  10.295  29.703  0.00  0.00     0.193 C 
ATOM     84  H42 non d ame     -34.934  11.740  29.894  0.00  0.00     0.280 HD
ATOM     85  H43 non d ame     -34.286  11.193  31.424  0.00  0.00     0.280 HD
ATOM     86  H44 non d ame     -32.461   9.959  30.252  0.00  0.00     0.129 H 
ATOM     87  H37 non d ame     -33.017   8.533  29.700  0.00  0.00     0.046 H 
BRANCH  83  88
ATOM     88  O6  non d ame     -32.843  11.159  28.679  0.00  0.00    -0.369 OA
ATOM     89  H45 non d ame     -31.883  11.156  28.695  0.00  0.00     0.212 HD
ENDBRANCH  83  88
ENDBRANCH  72  75
ENDBRANCH  47  72
ENDBRANCH  45  47
ENDBRANCH   1  43
BRANCH   1  90
ATOM     90  C16 non d ame     -29.844  10.131  23.453  0.00  0.00    -0.035 C 
ATOM     91  H21 non d ame     -29.361  10.990  22.988  0.00  0.00     0.037 H 
ATOM     92  H22 non d ame     -29.399   9.666  24.333  0.00  0.00     0.037 H 
BRANCH  90  93
ATOM     93  C17 non d ame     -29.917   9.020  22.358  0.00  0.00    -0.059 C 
ATOM     94  H23 non d ame     -29.607   9.466  21.413  0.00  0.00     0.038 H 
BRANCH  93  95
ATOM     95  C18 non d ame     -28.953   7.828  22.661  0.00  0.00    -0.073 C 
ATOM     96  H24 non d ame     -29.284   6.946  22.114  0.00  0.00     0.028 H 
ATOM     97  H25 non d ame     -27.942   8.090  22.349  0.00  0.00     0.028 H 
ATOM     98  H26 non d ame     -28.961   7.618  23.730  0.00  0.00     0.028 H 
ENDBRANCH  93  95
BRANCH  93  99
ATOM     99  C19 non d ame     -31.355   8.525  22.177  0.00  0.00    -0.073 C 
ATOM    100  H27 non d ame     -31.948   8.805  23.048  0.00  0.00     0.028 H 
ATOM    101  H28 non d ame     -31.785   8.977  21.283  0.00  0.00     0.028 H 
ATOM    102  H29 non d ame     -31.355   7.441  22.070  0.00  0.00     0.028 H 
ENDBRANCH  93  99
ENDBRANCH  90  93
ENDBRANCH   1  90
TORSDOF 26
ENDMDL
MODEL 17
REMARK VINA RESULT:      -6.3      2.904      7.525
REMARK  26 active torsions:
REMARK  status: ('A' for Active; 'I' for Inactive)
REMARK    1  A    between atoms: C2_2  and  C3_3 
REMARK    2  A    between atoms: C4_6  and  C5_7 
REMARK       I    between atoms: C5_7  and  N2_9 
REMARK    3  A    between atoms: N2_9  and  C6_10 
REMARK    4  A    between atoms: C6_10  and  C7_11 
REMARK    5  A    between atoms: C6_10  and  C8_13 
REMARK       I    between atoms: C7_11  and  N3_14 
REMARK    6  A    between atoms: N3_14  and  C9_15 
REMARK    7  A    between atoms: C9_15  and  C10_16 
REMARK    8  A    between atoms: C9_15  and  C11_18 
REMARK       I    between atoms: C10_16  and  N4_21 
REMARK    9  A    between atoms: C11_18  and  C12_19 
REMARK   10  A    between atoms: C11_18  and  C13_20 
REMARK   11  A    between atoms: N4_21  and  C14_22 
REMARK   12  A    between atoms: C14_22  and  C15_23 
REMARK   13  A    between atoms: C14_22  and  C16_25 
REMARK       I    between atoms: C15_23  and  N6_40 
REMARK   14  A    between atoms: C16_25  and  C17_26 
REMARK   15  A    between atoms: C17_26  and  C18_27 
REMARK   16  A    between atoms: C17_26  and  C19_28 
REMARK   17  A    between atoms: C20_29  and  C21_30 
REMARK   18  A    between atoms: C20_29  and  C24_33 
REMARK   19  A    between atoms: C20_29  and  N6_40 
REMARK   20  A    between atoms: C21_30  and  C22_31 
REMARK   21  A    between atoms: C22_31  and  C23_32 
REMARK   22  A    between atoms: C23_32  and  O8_43 
REMARK   23  A    between atoms: C24_33  and  C25_34 
REMARK   24  A    between atoms: C28_38  and  O6_39 
REMARK   25  A    between atoms: C29_42  and  O8_43 
REMARK   26  A    between atoms: C29_42  and  C35_49 
ROOT
ATOM      1  C14 non d ame     -33.911   9.780  28.942  0.00  0.00     0.089 C 
ATOM      2  H20 non d ame     -34.925  10.106  28.710  0.00  0.00     0.087 H 
ENDROOT
BRANCH   1   3
ATOM      3  N4  non d ame     -33.813   8.370  28.595  0.00  0.00    -0.346 N 
ATOM      4  C10 non d ame     -35.027   7.620  28.107  0.00  0.00     0.241 C 
ATOM      5  O4  non d ame     -36.072   8.172  28.004  0.00  0.00    -0.271 OA
ATOM      6  H19 non d ame     -32.915   7.918  28.692  0.00  0.00     0.163 HD
BRANCH   4   7
ATOM      7  C9  non d ame     -34.906   6.163  27.747  0.00  0.00     0.092 C 
ATOM      8  H11 non d ame     -35.880   5.685  27.856  0.00  0.00     0.088 H 
BRANCH   7   9
ATOM      9  N3  non d ame     -34.517   6.037  26.340  0.00  0.00    -0.346 N 
ATOM     10  C7  non d ame     -35.518   5.771  25.336  0.00  0.00     0.240 C 
ATOM     11  O3  non d ame     -36.641   5.654  25.644  0.00  0.00    -0.271 OA
ATOM     12  H10 non d ame     -33.551   6.133  26.059  0.00  0.00     0.163 HD
BRANCH  10  13
ATOM     13  C6  non d ame     -35.097   5.635  23.840  0.00  0.00     0.086 C 
ATOM     14  H6  non d ame     -35.792   6.127  23.160  0.00  0.00     0.086 H 
BRANCH  13  15
ATOM     15  N2  non d ame     -33.807   6.278  23.653  0.00  0.00    -0.343 N 
ATOM     16  C5  non d ame     -33.749   7.629  23.090  0.00  0.00     0.273 C 
ATOM     17  O2  non d ame     -34.746   8.188  22.787  0.00  0.00    -0.266 OA
ATOM     18  H5  non d ame     -32.960   5.792  23.912  0.00  0.00     0.163 HD
BRANCH  16  19
ATOM     19  C4  non d ame     -32.393   8.321  22.888  0.00  0.00     0.154 A 
ATOM     20  C1  non d ame     -31.158   7.709  22.503  0.00  0.00    -0.017 A 
ATOM     21  C2  non d ame     -30.225   8.769  22.458  0.00  0.00     0.077 A 
ATOM     22  H1  non d ame     -30.968   6.657  22.289  0.00  0.00     0.091 H 
ATOM     23  O1  non d ame     -30.860   9.858  22.780  0.00  0.00    -0.218 OA
ATOM     24  N1  non d ame     -32.126   9.622  23.035  0.00  0.00    -0.123 NA
BRANCH  21  25
ATOM     25  C3  non d ame     -28.749   8.657  22.099  0.00  0.00    -0.029 C 
ATOM     26  H2  non d ame     -28.150   8.694  23.008  0.00  0.00     0.036 H 
ATOM     27  H3  non d ame     -28.572   7.712  21.586  0.00  0.00     0.036 H 
ATOM     28  H4  non d ame     -28.470   9.483  21.445  0.00  0.00     0.036 H 
ENDBRANCH  21  25
ENDBRANCH  16  19
ENDBRANCH  13  15
BRANCH  13  29
ATOM     29  C8  non d ame     -35.005   4.176  23.472  0.00  0.00    -0.049 C 
ATOM     30  H7  non d ame     -34.204   3.707  24.043  0.00  0.00     0.030 H 
ATOM     31  H8  non d ame     -35.950   3.683  23.700  0.00  0.00     0.030 H 
ATOM     32  H9  non d ame     -34.794   4.083  22.406  0.00  0.00     0.030 H 
ENDBRANCH  13  29
ENDBRANCH  10  13
ENDBRANCH   7   9
BRANCH   7  33
ATOM     33  C11 non d ame     -33.823   5.495  28.644  0.00  0.00    -0.033 C 
ATOM     34  H12 non d ame     -33.032   6.227  28.804  0.00  0.00     0.042 H 
BRANCH  33  35
ATOM     35  C12 non d ame     -34.399   5.114  30.044  0.00  0.00    -0.071 C 
ATOM     36  H13 non d ame     -33.597   5.124  30.782  0.00  0.00     0.028 H 
ATOM     37  H14 non d ame     -35.166   5.834  30.329  0.00  0.00     0.028 H 
ATOM     38  H15 non d ame     -34.837   4.117  29.997  0.00  0.00     0.028 H 
ENDBRANCH  33  35
BRANCH  33  39
ATOM     39  C13 non d ame     -33.195   4.253  27.933  0.00  0.00    -0.071 C 
ATOM     40  H16 non d ame     -33.953   3.764  27.321  0.00  0.00     0.028 H 
ATOM     41  H17 non d ame     -32.369   4.577  27.299  0.00  0.00     0.028 H 
ATOM     42  H18 non d ame     -32.825   3.554  28.683  0.00  0.00     0.028 H 
ENDBRANCH  33  39
ENDBRANCH   7  33
ENDBRANCH   4   7
ENDBRANCH   1   3
BRANCH   1  43
ATOM     43  C15 non d ame     -32.842  10.565  28.129  0.00  0.00     0.240 C 
ATOM     44  O5  non d ame     -32.234  10.017  27.268  0.00  0.00    -0.271 OA
ATOM     45  N6  non d ame     -32.582  12.004  28.419  0.00  0.00    -0.355 N 
ATOM     46  H46 non d ame     -33.096  12.483  29.145  0.00  0.00     0.162 HD
BRANCH  45  47
ATOM     47  C20 non d ame     -31.563  12.737  27.636  0.00  0.00     0.013 C 
ATOM     48  H30 non d ame     -30.772  12.035  27.374  0.00  0.00     0.072 H 
BRANCH  47  49
ATOM     49  C21 non d ame     -30.999  13.860  28.478  0.00  0.00    -0.038 C 
ATOM     50  H31 non d ame     -30.199  13.412  29.068  0.00  0.00     0.036 H 
ATOM     51  H32 non d ame     -30.776  14.667  27.780  0.00  0.00     0.036 H 
BRANCH  49  52
ATOM     52  C22 non d ame     -32.022  14.425  29.487  0.00  0.00     0.018 C 
ATOM     53  H33 non d ame     -32.993  14.052  29.163  0.00  0.00     0.048 H 
ATOM     54  H34 non d ame     -31.639  14.164  30.473  0.00  0.00     0.048 H 
BRANCH  52  55
ATOM     55  C23 non d ame     -32.131  15.975  29.466  0.00  0.00     0.259 C 
ATOM     56  O7  non d ame     -31.442  16.637  30.173  0.00  0.00    -0.265 OA
BRANCH  55  57
ATOM     57  O8  non d ame     -33.074  16.596  28.601  0.00  0.00    -0.317 OA
BRANCH  57  58
ATOM     58  C29 non d ame     -32.640  17.853  28.074  0.00  0.00     0.052 C 
ATOM     59  H47 non d ame     -32.348  18.450  28.938  0.00  0.00     0.082 H 
ATOM     60  H48 non d ame     -31.907  17.614  27.304  0.00  0.00     0.082 H 
BRANCH  58  61
ATOM     61  C35 non d ame     -33.859  18.534  27.396  0.00  0.00    -0.034 A 
ATOM     62  C30 non d ame     -34.539  19.556  28.050  0.00  0.00    -0.075 A 
ATOM     63  C31 non d ame     -35.634  20.167  27.441  0.00  0.00    -0.082 A 
ATOM     64  H49 non d ame     -34.215  19.878  29.040  0.00  0.00     0.084 H 
ATOM     65  C32 non d ame     -36.050  19.751  26.173  0.00  0.00    -0.083 A 
ATOM     66  H50 non d ame     -36.164  20.969  27.956  0.00  0.00     0.083 H 
ATOM     67  C33 non d ame     -35.370  18.729  25.526  0.00  0.00    -0.082 A 
ATOM     68  H51 non d ame     -36.905  20.224  25.690  0.00  0.00     0.083 H 
ATOM     69  C34 non d ame     -34.274  18.116  26.130  0.00  0.00    -0.075 A 
ATOM     70  H52 non d ame     -35.699  18.405  24.538  0.00  0.00     0.083 H 
ATOM     71  H53 non d ame     -33.745  17.314  25.614  0.00  0.00     0.084 H 
ENDBRANCH  58  61
ENDBRANCH  57  58
ENDBRANCH  55  57
ENDBRANCH  52  55
ENDBRANCH  49  52
ENDBRANCH  47  49
BRANCH  47  72
ATOM     72  C24 non d ame     -32.199  13.316  26.374  0.00  0.00    -0.039 C 
ATOM     73  H35 non d ame     -32.552  12.455  25.806  0.00  0.00     0.036 H 
ATOM     74  H36 non d ame     -32.909  14.065  26.724  0.00  0.00     0.036 H 
BRANCH  72  75
ATOM     75  C25 non d ame     -31.122  14.074  25.462  0.00  0.00    -0.001 C 
ATOM     76  C26 non d ame     -31.590  15.632  25.222  0.00  0.00    -0.035 C 
ATOM     77  C27 non d ame     -31.559  15.897  23.894  0.00  0.00     0.085 C 
ATOM     78  H38 non d ame     -32.642  15.751  25.481  0.00  0.00     0.036 H 
ATOM     79  H39 non d ame     -30.846  16.314  25.635  0.00  0.00     0.036 H 
ATOM     80  N5  non d ame     -31.430  14.572  23.182  0.00  0.00    -0.049 N 
ATOM     81  H40 non d ame     -32.531  16.332  23.661  0.00  0.00     0.075 H 
ATOM     82  H41 non d ame     -30.650  16.476  23.734  0.00  0.00     0.075 H 
ATOM     83  C28 non d ame     -30.999  13.502  24.311  0.00  0.00     0.193 C 
ATOM     84  H42 non d ame     -32.353  14.334  22.850  0.00  0.00     0.280 HD
ATOM     85  H43 non d ame     -30.668  14.673  22.527  0.00  0.00     0.280 HD
ATOM     86  H44 non d ame     -29.969  13.149  24.375  0.00  0.00     0.129 H 
ATOM     87  H37 non d ame     -30.101  13.910  25.807  0.00  0.00     0.046 H 
BRANCH  83  88
ATOM     88  O6  non d ame     -31.801  12.324  24.206  0.00  0.00    -0.369 OA
ATOM     89  H45 non d ame     -31.591  11.866  23.388  0.00  0.00     0.212 HD
ENDBRANCH  83  88
ENDBRANCH  72  75
ENDBRANCH  47  72
ENDBRANCH  45  47
ENDBRANCH   1  43
BRANCH   1  90
ATOM     90  C16 non d ame     -33.645   9.945  30.430  0.00  0.00    -0.035 C 
ATOM     91  H21 non d ame     -33.009   9.104  30.704  0.00  0.00     0.037 H 
ATOM     92  H22 non d ame     -33.279  10.966  30.546  0.00  0.00     0.037 H 
BRANCH  90  93
ATOM     93  C17 non d ame     -34.929   9.833  31.312  0.00  0.00    -0.059 C 
ATOM     94  H23 non d ame     -35.788  10.041  30.674  0.00  0.00     0.038 H 
BRANCH  93  95
ATOM     95  C18 non d ame     -35.113   8.399  31.905  0.00  0.00    -0.073 C 
ATOM     96  H24 non d ame     -35.143   7.672  31.095  0.00  0.00     0.028 H 
ATOM     97  H25 non d ame     -34.278   8.169  32.567  0.00  0.00     0.028 H 
ATOM     98  H26 non d ame     -36.045   8.356  32.468  0.00  0.00     0.028 H 
ENDBRANCH  93  95
BRANCH  93  99
ATOM     99  C19 non d ame     -34.922  10.885  32.424  0.00  0.00    -0.073 C 
ATOM    100  H27 non d ame     -34.681  11.860  32.000  0.00  0.00     0.028 H 
ATOM    101  H28 non d ame     -35.905  10.926  32.892  0.00  0.00     0.028 H 
ATOM    102  H29 non d ame     -34.175  10.619  33.171  0.00  0.00     0.028 H 
ENDBRANCH  93  99
ENDBRANCH  90  93
ENDBRANCH   1  90
TORSDOF 26
ENDMDL
