MODEL 1
REMARK VINA RESULT:      -7.5      0.000      0.000
REMARK  26 active torsions:
REMARK  status: ('A' for Active; 'I' for Inactive)
REMARK    1  A    between atoms: C2_2  and  C3_3 
REMARK    2  A    between atoms: C4_6  and  C5_7 
REMARK       I    between atoms: C5_7  and  N2_9 
REMARK    3  A    between atoms: N2_9  and  C6_10 
REMARK    4  A    between atoms: C6_10  and  C7_11 
REMARK    5  A    between atoms: C6_10  and  C8_13 
REMARK       I    between atoms: C7_11  and  N3_14 
REMARK    6  A    between atoms: N3_14  and  C9_15 
REMARK    7  A    between atoms: C9_15  and  C10_16 
REMARK    8  A    between atoms: C9_15  and  C11_18 
REMARK       I    between atoms: C10_16  and  N4_21 
REMARK    9  A    between atoms: C11_18  and  C12_19 
REMARK   10  A    between atoms: C11_18  and  C13_20 
REMARK   11  A    between atoms: N4_21  and  C14_22 
REMARK   12  A    between atoms: C14_22  and  C15_23 
REMARK   13  A    between atoms: C14_22  and  C16_25 
REMARK       I    between atoms: C15_23  and  N6_40 
REMARK   14  A    between atoms: C16_25  and  C17_26 
REMARK   15  A    between atoms: C17_26  and  C18_27 
REMARK   16  A    between atoms: C17_26  and  C19_28 
REMARK   17  A    between atoms: C20_29  and  C21_30 
REMARK   18  A    between atoms: C20_29  and  C24_33 
REMARK   19  A    between atoms: C20_29  and  N6_40 
REMARK   20  A    between atoms: C21_30  and  C22_31 
REMARK   21  A    between atoms: C22_31  and  C23_32 
REMARK   22  A    between atoms: C23_32  and  O8_43 
REMARK   23  A    between atoms: C24_33  and  C25_34 
REMARK   24  A    between atoms: C28_38  and  O6_39 
REMARK   25  A    between atoms: C29_42  and  O8_43 
REMARK   26  A    between atoms: C29_42  and  C35_49 
ROOT
ATOM      1  C14 non d ame     -30.683  14.395  23.798  0.00  0.00     0.089 C 
ATOM      2  H20 non d ame     -29.605  14.428  23.636  0.00  0.00     0.087 H 
ENDROOT
BRANCH   1   3
ATOM      3  N4  non d ame     -31.044  13.009  24.058  0.00  0.00    -0.346 N 
ATOM      4  C10 non d ame     -30.442  11.898  23.235  0.00  0.00     0.241 C 
ATOM      5  O4  non d ame     -29.671  12.144  22.367  0.00  0.00    -0.271 OA
ATOM      6  H19 non d ame     -31.703  12.821  24.800  0.00  0.00     0.163 HD
BRANCH   4   7
ATOM      7  C9  non d ame     -30.823  10.469  23.522  0.00  0.00     0.092 C 
ATOM      8  H11 non d ame     -30.408  10.174  24.485  0.00  0.00     0.088 H 
BRANCH   7   9
ATOM      9  N3  non d ame     -32.281  10.364  23.627  0.00  0.00    -0.346 N 
ATOM     10  C7  non d ame     -32.892  10.067  24.899  0.00  0.00     0.240 C 
ATOM     11  O3  non d ame     -32.225   9.910  25.848  0.00  0.00    -0.271 OA
ATOM     12  H10 non d ame     -32.870  10.495  22.817  0.00  0.00     0.163 HD
BRANCH  10  13
ATOM     13  C6  non d ame     -34.445   9.953  25.005  0.00  0.00     0.086 C 
ATOM     14  H6  non d ame     -34.772   9.515  25.947  0.00  0.00     0.086 H 
BRANCH  13  15
ATOM     15  N2  non d ame     -35.021  11.286  24.943  0.00  0.00    -0.343 N 
ATOM     16  C5  non d ame     -35.282  12.017  26.184  0.00  0.00     0.273 C 
ATOM     17  O2  non d ame     -35.028  11.524  27.228  0.00  0.00    -0.266 OA
ATOM     18  H5  non d ame     -35.237  11.699  24.047  0.00  0.00     0.163 HD
BRANCH  16  19
ATOM     19  C4  non d ame     -35.889  13.428  26.133  0.00  0.00     0.154 A 
ATOM     20  C1  non d ame     -35.613  14.455  25.176  0.00  0.00    -0.017 A 
ATOM     21  C2  non d ame     -36.420  15.545  25.568  0.00  0.00     0.077 A 
ATOM     22  H1  non d ame     -34.931  14.414  24.326  0.00  0.00     0.091 H 
ATOM     23  O1  non d ame     -37.080  15.177  26.627  0.00  0.00    -0.218 OA
ATOM     24  N1  non d ame     -36.787  13.946  26.977  0.00  0.00    -0.123 NA
BRANCH  21  25
ATOM     25  C3  non d ame     -36.503  16.901  24.878  0.00  0.00    -0.029 C 
ATOM     26  H2  non d ame     -36.013  17.653  25.495  0.00  0.00     0.036 H 
ATOM     27  H3  non d ame     -36.005  16.846  23.910  0.00  0.00     0.036 H 
ATOM     28  H4  non d ame     -37.548  17.172  24.735  0.00  0.00     0.036 H 
ENDBRANCH  21  25
ENDBRANCH  16  19
ENDBRANCH  13  15
BRANCH  13  29
ATOM     29  C8  non d ame     -34.968   9.111  23.869  0.00  0.00    -0.049 C 
ATOM     30  H7  non d ame     -36.055   9.063  23.922  0.00  0.00     0.030 H 
ATOM     31  H8  non d ame     -34.670   9.556  22.920  0.00  0.00     0.030 H 
ATOM     32  H9  non d ame     -34.556   8.104  23.943  0.00  0.00     0.030 H 
ENDBRANCH  13  29
ENDBRANCH  10  13
ENDBRANCH   7   9
BRANCH   7  33
ATOM     33  C11 non d ame     -30.322   9.557  22.364  0.00  0.00    -0.033 C 
ATOM     34  H12 non d ame     -30.099  10.199  21.512  0.00  0.00     0.042 H 
BRANCH  33  35
ATOM     35  C12 non d ame     -29.003   8.818  22.753  0.00  0.00    -0.071 C 
ATOM     36  H13 non d ame     -29.038   7.793  22.383  0.00  0.00     0.028 H 
ATOM     37  H14 non d ame     -28.153   9.336  22.309  0.00  0.00     0.028 H 
ATOM     38  H15 non d ame     -28.898   8.809  23.837  0.00  0.00     0.028 H 
ENDBRANCH  33  35
BRANCH  33  39
ATOM     39  C13 non d ame     -31.431   8.546  21.929  0.00  0.00    -0.071 C 
ATOM     40  H16 non d ame     -32.119   8.382  22.758  0.00  0.00     0.028 H 
ATOM     41  H17 non d ame     -31.978   8.951  21.077  0.00  0.00     0.028 H 
ATOM     42  H18 non d ame     -30.969   7.600  21.646  0.00  0.00     0.028 H 
ENDBRANCH  33  39
ENDBRANCH   7  33
ENDBRANCH   4   7
ENDBRANCH   1   3
BRANCH   1  43
ATOM     43  C15 non d ame     -31.120  15.258  25.016  0.00  0.00     0.240 C 
ATOM     44  O5  non d ame     -30.869  16.419  25.039  0.00  0.00    -0.271 OA
ATOM     45  N6  non d ame     -31.860  14.637  26.152  0.00  0.00    -0.355 N 
ATOM     46  H46 non d ame     -32.083  13.653  26.142  0.00  0.00     0.162 HD
BRANCH  45  47
ATOM     47  C20 non d ame     -32.271  15.471  27.302  0.00  0.00     0.013 C 
ATOM     48  H30 non d ame     -31.368  15.853  27.778  0.00  0.00     0.072 H 
BRANCH  47  49
ATOM     49  C21 non d ame     -33.052  14.624  28.281  0.00  0.00    -0.038 C 
ATOM     50  H31 non d ame     -33.704  15.315  28.814  0.00  0.00     0.036 H 
ATOM     51  H32 non d ame     -33.481  13.814  27.691  0.00  0.00     0.036 H 
BRANCH  49  52
ATOM     52  C22 non d ame     -32.154  13.959  29.347  0.00  0.00     0.018 C 
ATOM     53  H33 non d ame     -31.238  14.548  29.371  0.00  0.00     0.048 H 
ATOM     54  H34 non d ame     -32.772  13.875  30.242  0.00  0.00     0.048 H 
BRANCH  52  55
ATOM     55  C23 non d ame     -31.722  12.510  28.987  0.00  0.00     0.259 C 
ATOM     56  O7  non d ame     -31.045  12.303  28.033  0.00  0.00    -0.265 OA
BRANCH  55  57
ATOM     57  O8  non d ame     -32.156  11.430  29.805  0.00  0.00    -0.317 OA
BRANCH  57  58
ATOM     58  C29 non d ame     -32.936  11.832  30.934  0.00  0.00     0.052 C 
ATOM     59  H47 non d ame     -32.232  11.927  31.761  0.00  0.00     0.082 H 
ATOM     60  H48 non d ame     -33.509  12.698  30.604  0.00  0.00     0.082 H 
BRANCH  58  61
ATOM     61  C35 non d ame     -33.927  10.684  31.264  0.00  0.00    -0.034 A 
ATOM     62  C30 non d ame     -33.975   9.551  30.458  0.00  0.00    -0.075 A 
ATOM     63  C31 non d ame     -34.865   8.520  30.754  0.00  0.00    -0.082 A 
ATOM     64  H49 non d ame     -33.314   9.471  29.594  0.00  0.00     0.084 H 
ATOM     65  C32 non d ame     -35.713   8.627  31.860  0.00  0.00    -0.083 A 
ATOM     66  H50 non d ame     -34.898   7.633  30.121  0.00  0.00     0.083 H 
ATOM     67  C33 non d ame     -35.665   9.761  32.659  0.00  0.00    -0.082 A 
ATOM     68  H51 non d ame     -36.412   7.825  32.099  0.00  0.00     0.083 H 
ATOM     69  C34 non d ame     -34.775  10.792  32.369  0.00  0.00    -0.075 A 
ATOM     70  H52 non d ame     -36.329   9.841  33.520  0.00  0.00     0.083 H 
ATOM     71  H53 non d ame     -34.742  11.679  33.002  0.00  0.00     0.084 H 
ENDBRANCH  58  61
ENDBRANCH  57  58
ENDBRANCH  55  57
ENDBRANCH  52  55
ENDBRANCH  49  52
ENDBRANCH  47  49
BRANCH  47  72
ATOM     72  C24 non d ame     -33.144  16.626  26.817  0.00  0.00    -0.039 C 
ATOM     73  H35 non d ame     -32.541  17.157  26.080  0.00  0.00     0.036 H 
ATOM     74  H36 non d ame     -34.089  16.171  26.521  0.00  0.00     0.036 H 
BRANCH  72  75
ATOM     75  C25 non d ame     -33.467  17.661  27.996  0.00  0.00    -0.001 C 
ATOM     76  C26 non d ame     -35.089  17.916  28.090  0.00  0.00    -0.035 C 
ATOM     77  C27 non d ame     -35.322  19.250  28.081  0.00  0.00     0.085 C 
ATOM     78  H38 non d ame     -35.575  17.566  27.180  0.00  0.00     0.036 H 
ATOM     79  H39 non d ame     -35.461  17.599  29.064  0.00  0.00     0.036 H 
ATOM     80  N5  non d ame     -34.037  19.920  27.660  0.00  0.00    -0.049 N 
ATOM     81  H40 non d ame     -36.075  19.408  27.309  0.00  0.00     0.075 H 
ATOM     82  H41 non d ame     -35.539  19.515  29.115  0.00  0.00     0.075 H 
ATOM     83  C28 non d ame     -32.886  18.796  27.794  0.00  0.00     0.193 C 
ATOM     84  H42 non d ame     -34.143  20.157  26.684  0.00  0.00     0.280 HD
ATOM     85  H43 non d ame     -33.858  20.646  28.340  0.00  0.00     0.280 HD
ATOM     86  H44 non d ame     -32.189  18.815  28.632  0.00  0.00     0.129 H 
ATOM     87  H37 non d ame     -32.951  17.407  28.922  0.00  0.00     0.046 H 
BRANCH  83  88
ATOM     88  O6  non d ame     -32.071  18.783  26.621  0.00  0.00    -0.369 OA
ATOM     89  H45 non d ame     -32.626  18.657  25.847  0.00  0.00     0.212 HD
ENDBRANCH  83  88
ENDBRANCH  72  75
ENDBRANCH  47  72
ENDBRANCH  45  47
ENDBRANCH   1  43
BRANCH   1  90
ATOM     90  C16 non d ame     -31.406  14.870  22.549  0.00  0.00    -0.035 C 
ATOM     91  H21 non d ame     -31.702  13.963  22.023  0.00  0.00     0.037 H 
ATOM     92  H22 non d ame     -32.166  15.567  22.903  0.00  0.00     0.037 H 
BRANCH  90  93
ATOM     93  C17 non d ame     -30.497  15.673  21.565  0.00  0.00    -0.059 C 
ATOM     94  H23 non d ame     -30.774  16.724  21.640  0.00  0.00     0.038 H 
BRANCH  93  95
ATOM     95  C18 non d ame     -28.983  15.552  21.931  0.00  0.00    -0.073 C 
ATOM     96  H24 non d ame     -28.395  15.450  21.019  0.00  0.00     0.028 H 
ATOM     97  H25 non d ame     -28.666  16.447  22.467  0.00  0.00     0.028 H 
ATOM     98  H26 non d ame     -28.830  14.677  22.562  0.00  0.00     0.028 H 
ENDBRANCH  93  95
BRANCH  93  99
ATOM     99  C19 non d ame     -30.743  15.240  20.117  0.00  0.00    -0.073 C 
ATOM    100  H27 non d ame     -31.678  14.683  20.058  0.00  0.00     0.028 H 
ATOM    101  H28 non d ame     -30.804  16.122  19.479  0.00  0.00     0.028 H 
ATOM    102  H29 non d ame     -29.921  14.607  19.782  0.00  0.00     0.028 H 
ENDBRANCH  93  99
ENDBRANCH  90  93
ENDBRANCH   1  90
TORSDOF 26
ENDMDL
MODEL 2
REMARK VINA RESULT:      -7.4      1.693      2.313
REMARK  26 active torsions:
REMARK  status: ('A' for Active; 'I' for Inactive)
REMARK    1  A    between atoms: C2_2  and  C3_3 
REMARK    2  A    between atoms: C4_6  and  C5_7 
REMARK       I    between atoms: C5_7  and  N2_9 
REMARK    3  A    between atoms: N2_9  and  C6_10 
REMARK    4  A    between atoms: C6_10  and  C7_11 
REMARK    5  A    between atoms: C6_10  and  C8_13 
REMARK       I    between atoms: C7_11  and  N3_14 
REMARK    6  A    between atoms: N3_14  and  C9_15 
REMARK    7  A    between atoms: C9_15  and  C10_16 
REMARK    8  A    between atoms: C9_15  and  C11_18 
REMARK       I    between atoms: C10_16  and  N4_21 
REMARK    9  A    between atoms: C11_18  and  C12_19 
REMARK   10  A    between atoms: C11_18  and  C13_20 
REMARK   11  A    between atoms: N4_21  and  C14_22 
REMARK   12  A    between atoms: C14_22  and  C15_23 
REMARK   13  A    between atoms: C14_22  and  C16_25 
REMARK       I    between atoms: C15_23  and  N6_40 
REMARK   14  A    between atoms: C16_25  and  C17_26 
REMARK   15  A    between atoms: C17_26  and  C18_27 
REMARK   16  A    between atoms: C17_26  and  C19_28 
REMARK   17  A    between atoms: C20_29  and  C21_30 
REMARK   18  A    between atoms: C20_29  and  C24_33 
REMARK   19  A    between atoms: C20_29  and  N6_40 
REMARK   20  A    between atoms: C21_30  and  C22_31 
REMARK   21  A    between atoms: C22_31  and  C23_32 
REMARK   22  A    between atoms: C23_32  and  O8_43 
REMARK   23  A    between atoms: C24_33  and  C25_34 
REMARK   24  A    between atoms: C28_38  and  O6_39 
REMARK   25  A    between atoms: C29_42  and  O8_43 
REMARK   26  A    between atoms: C29_42  and  C35_49 
ROOT
ATOM      1  C14 non d ame     -31.062  14.055  24.568  0.00  0.00     0.089 C 
ATOM      2  H20 non d ame     -30.076  13.631  24.758  0.00  0.00     0.087 H 
ENDROOT
BRANCH   1   3
ATOM      3  N4  non d ame     -32.037  12.987  24.729  0.00  0.00    -0.346 N 
ATOM      4  C10 non d ame     -31.848  11.937  25.794  0.00  0.00     0.241 C 
ATOM      5  O4  non d ame     -30.902  11.971  26.510  0.00  0.00    -0.271 OA
ATOM      6  H19 non d ame     -32.834  12.975  24.109  0.00  0.00     0.163 HD
BRANCH   4   7
ATOM      7  C9  non d ame     -32.871  10.842  25.950  0.00  0.00     0.092 C 
ATOM      8  H11 non d ame     -33.071  10.686  27.010  0.00  0.00     0.088 H 
BRANCH   7   9
ATOM      9  N3  non d ame     -34.131  11.258  25.328  0.00  0.00    -0.346 N 
ATOM     10  C7  non d ame     -35.365  11.169  26.070  0.00  0.00     0.240 C 
ATOM     11  O3  non d ame     -35.361  10.765  27.168  0.00  0.00    -0.271 OA
ATOM     12  H10 non d ame     -34.150  11.608  24.381  0.00  0.00     0.163 HD
BRANCH  10  13
ATOM     13  C6  non d ame     -36.704  11.611  25.402  0.00  0.00     0.086 C 
ATOM     14  H6  non d ame     -37.580  11.316  25.978  0.00  0.00     0.086 H 
BRANCH  13  15
ATOM     15  N2  non d ame     -36.732  13.061  25.315  0.00  0.00    -0.343 N 
ATOM     16  C5  non d ame     -37.533  13.826  26.274  0.00  0.00     0.273 C 
ATOM     17  O2  non d ame     -38.153  13.264  27.109  0.00  0.00    -0.266 OA
ATOM     18  H5  non d ame     -36.201  13.533  24.596  0.00  0.00     0.163 HD
BRANCH  16  19
ATOM     19  C4  non d ame     -37.571  15.360  26.195  0.00  0.00     0.154 A 
ATOM     20  C1  non d ame     -37.327  16.173  25.043  0.00  0.00    -0.017 A 
ATOM     21  C2  non d ame     -37.484  17.502  25.496  0.00  0.00     0.077 A 
ATOM     22  H1  non d ame     -37.074  15.848  24.033  0.00  0.00     0.091 H 
ATOM     23  O1  non d ame     -37.784  17.447  26.760  0.00  0.00    -0.218 OA
ATOM     24  N1  non d ame     -37.840  16.208  27.191  0.00  0.00    -0.123 NA
BRANCH  21  25
ATOM     25  C3  non d ame     -37.331  18.764  24.658  0.00  0.00    -0.029 C 
ATOM     26  H2  non d ame     -36.498  18.642  23.965  0.00  0.00     0.036 H 
ATOM     27  H3  non d ame     -38.248  18.939  24.095  0.00  0.00     0.036 H 
ATOM     28  H4  non d ame     -37.138  19.614  25.312  0.00  0.00     0.036 H 
ENDBRANCH  21  25
ENDBRANCH  16  19
ENDBRANCH  13  15
BRANCH  13  29
ATOM     29  C8  non d ame     -36.802  11.009  24.023  0.00  0.00    -0.049 C 
ATOM     30  H7  non d ame     -35.825  10.633  23.720  0.00  0.00     0.030 H 
ATOM     31  H8  non d ame     -37.519  10.188  24.035  0.00  0.00     0.030 H 
ATOM     32  H9  non d ame     -37.133  11.771  23.316  0.00  0.00     0.030 H 
ENDBRANCH  13  29
ENDBRANCH  10  13
ENDBRANCH   7   9
BRANCH   7  33
ATOM     33  C11 non d ame     -32.355   9.548  25.255  0.00  0.00    -0.033 C 
ATOM     34  H12 non d ame     -31.268   9.613  25.206  0.00  0.00     0.042 H 
BRANCH  33  35
ATOM     35  C12 non d ame     -32.713   8.276  26.084  0.00  0.00    -0.071 C 
ATOM     36  H13 non d ame     -33.633   7.837  25.698  0.00  0.00     0.028 H 
ATOM     37  H14 non d ame     -31.903   7.551  26.005  0.00  0.00     0.028 H 
ATOM     38  H15 non d ame     -32.853   8.551  27.130  0.00  0.00     0.028 H 
ENDBRANCH  33  35
BRANCH  33  39
ATOM     39  C13 non d ame     -32.898   9.443  23.794  0.00  0.00    -0.071 C 
ATOM     40  H16 non d ame     -33.932   9.787  23.765  0.00  0.00     0.028 H 
ATOM     41  H17 non d ame     -32.290  10.064  23.134  0.00  0.00     0.028 H 
ATOM     42  H18 non d ame     -32.850   8.407  23.461  0.00  0.00     0.028 H 
ENDBRANCH  33  39
ENDBRANCH   7  33
ENDBRANCH   4   7
ENDBRANCH   1   3
BRANCH   1  43
ATOM     43  C15 non d ame     -31.410  15.198  25.565  0.00  0.00     0.240 C 
ATOM     44  O5  non d ame     -31.039  16.306  25.347  0.00  0.00    -0.271 OA
ATOM     45  N6  non d ame     -32.214  14.912  26.787  0.00  0.00    -0.355 N 
ATOM     46  H46 non d ame     -32.539  13.976  26.981  0.00  0.00     0.162 HD
BRANCH  45  47
ATOM     47  C20 non d ame     -32.538  16.010  27.724  0.00  0.00     0.013 C 
ATOM     48  H30 non d ame     -31.831  16.821  27.549  0.00  0.00     0.072 H 
BRANCH  47  49
ATOM     49  C21 non d ame     -32.407  15.509  29.145  0.00  0.00    -0.038 C 
ATOM     50  H31 non d ame     -32.172  16.387  29.747  0.00  0.00     0.036 H 
ATOM     51  H32 non d ame     -33.317  14.941  29.342  0.00  0.00     0.036 H 
BRANCH  49  52
ATOM     52  C22 non d ame     -31.231  14.526  29.328  0.00  0.00     0.018 C 
ATOM     53  H33 non d ame     -30.944  14.219  28.323  0.00  0.00     0.048 H 
ATOM     54  H34 non d ame     -30.513  15.040  29.967  0.00  0.00     0.048 H 
BRANCH  52  55
ATOM     55  C23 non d ame     -31.616  13.222  30.080  0.00  0.00     0.259 C 
ATOM     56  O7  non d ame     -30.959  12.835  30.992  0.00  0.00    -0.265 OA
BRANCH  55  57
ATOM     57  O8  non d ame     -32.757  12.485  29.658  0.00  0.00    -0.317 OA
BRANCH  57  58
ATOM     58  C29 non d ame     -32.585  11.066  29.707  0.00  0.00     0.052 C 
ATOM     59  H47 non d ame     -32.803  10.708  28.701  0.00  0.00     0.082 H 
ATOM     60  H48 non d ame     -31.599  10.903  30.141  0.00  0.00     0.082 H 
BRANCH  58  61
ATOM     61  C35 non d ame     -33.650  10.487  30.676  0.00  0.00    -0.034 A 
ATOM     62  C30 non d ame     -34.146   9.203  30.479  0.00  0.00    -0.075 A 
ATOM     63  C31 non d ame     -35.103   8.682  31.349  0.00  0.00    -0.082 A 
ATOM     64  H49 non d ame     -33.786   8.603  29.643  0.00  0.00     0.084 H 
ATOM     65  C32 non d ame     -35.566   9.453  32.419  0.00  0.00    -0.083 A 
ATOM     66  H50 non d ame     -35.489   7.675  31.193  0.00  0.00     0.083 H 
ATOM     67  C33 non d ame     -35.070  10.736  32.610  0.00  0.00    -0.082 A 
ATOM     68  H51 non d ame     -36.313   9.054  33.105  0.00  0.00     0.083 H 
ATOM     69  C34 non d ame     -34.112  11.259  31.744  0.00  0.00    -0.075 A 
ATOM     70  H52 non d ame     -35.434  11.336  33.444  0.00  0.00     0.083 H 
ATOM     71  H53 non d ame     -33.727  12.267  31.901  0.00  0.00     0.084 H 
ENDBRANCH  58  61
ENDBRANCH  57  58
ENDBRANCH  55  57
ENDBRANCH  52  55
ENDBRANCH  49  52
ENDBRANCH  47  49
BRANCH  47  72
ATOM     72  C24 non d ame     -33.968  16.490  27.482  0.00  0.00    -0.039 C 
ATOM     73  H35 non d ame     -34.352  15.862  26.678  0.00  0.00     0.036 H 
ATOM     74  H36 non d ame     -34.448  16.477  28.461  0.00  0.00     0.036 H 
BRANCH  72  75
ATOM     75  C25 non d ame     -34.003  18.004  26.958  0.00  0.00    -0.001 C 
ATOM     76  C26 non d ame     -32.515  18.685  27.113  0.00  0.00    -0.035 C 
ATOM     77  C27 non d ame     -32.641  19.864  27.768  0.00  0.00     0.085 C 
ATOM     78  H38 non d ame     -31.897  18.086  27.782  0.00  0.00     0.036 H 
ATOM     79  H39 non d ame     -32.134  18.977  26.134  0.00  0.00     0.036 H 
ATOM     80  N5  non d ame     -34.028  19.894  28.362  0.00  0.00    -0.049 N 
ATOM     81  H40 non d ame     -31.909  19.828  28.575  0.00  0.00     0.075 H 
ATOM     82  H41 non d ame     -32.567  20.633  27.000  0.00  0.00     0.075 H 
ATOM     83  C28 non d ame     -34.849  18.711  27.630  0.00  0.00     0.193 C 
ATOM     84  H42 non d ame     -33.927  19.658  29.338  0.00  0.00     0.280 HD
ATOM     85  H43 non d ame     -34.434  20.779  28.095  0.00  0.00     0.280 HD
ATOM     86  H44 non d ame     -35.577  18.942  26.852  0.00  0.00     0.129 H 
ATOM     87  H37 non d ame     -34.492  18.093  25.988  0.00  0.00     0.046 H 
BRANCH  83  88
ATOM     88  O6  non d ame     -35.556  17.932  28.597  0.00  0.00    -0.369 OA
ATOM     89  H45 non d ame     -35.455  18.329  29.465  0.00  0.00     0.212 HD
ENDBRANCH  83  88
ENDBRANCH  72  75
ENDBRANCH  47  72
ENDBRANCH  45  47
ENDBRANCH   1  43
BRANCH   1  90
ATOM     90  C16 non d ame     -31.131  14.581  23.144  0.00  0.00    -0.035 C 
ATOM     91  H21 non d ame     -31.727  13.852  22.596  0.00  0.00     0.037 H 
ATOM     92  H22 non d ame     -31.477  15.611  23.232  0.00  0.00     0.037 H 
BRANCH  90  93
ATOM     93  C17 non d ame     -29.743  14.642  22.430  0.00  0.00    -0.059 C 
ATOM     94  H23 non d ame     -29.010  14.981  23.161  0.00  0.00     0.038 H 
BRANCH  93  95
ATOM     95  C18 non d ame     -29.286  13.241  21.911  0.00  0.00    -0.073 C 
ATOM     96  H24 non d ame     -28.298  13.325  21.460  0.00  0.00     0.028 H 
ATOM     97  H25 non d ame     -29.246  12.540  22.744  0.00  0.00     0.028 H 
ATOM     98  H26 non d ame     -29.995  12.880  21.167  0.00  0.00     0.028 H 
ENDBRANCH  93  95
BRANCH  93  99
ATOM     99  C19 non d ame     -29.758  15.666  21.292  0.00  0.00    -0.073 C 
ATOM    100  H27 non d ame     -30.596  16.349  21.429  0.00  0.00     0.028 H 
ATOM    101  H28 non d ame     -28.825  16.229  21.297  0.00  0.00     0.028 H 
ATOM    102  H29 non d ame     -29.863  15.148  20.339  0.00  0.00     0.028 H 
ENDBRANCH  93  99
ENDBRANCH  90  93
ENDBRANCH   1  90
TORSDOF 26
ENDMDL
MODEL 3
REMARK VINA RESULT:      -7.4      3.305      6.604
REMARK  26 active torsions:
REMARK  status: ('A' for Active; 'I' for Inactive)
REMARK    1  A    between atoms: C2_2  and  C3_3 
REMARK    2  A    between atoms: C4_6  and  C5_7 
REMARK       I    between atoms: C5_7  and  N2_9 
REMARK    3  A    between atoms: N2_9  and  C6_10 
REMARK    4  A    between atoms: C6_10  and  C7_11 
REMARK    5  A    between atoms: C6_10  and  C8_13 
REMARK       I    between atoms: C7_11  and  N3_14 
REMARK    6  A    between atoms: N3_14  and  C9_15 
REMARK    7  A    between atoms: C9_15  and  C10_16 
REMARK    8  A    between atoms: C9_15  and  C11_18 
REMARK       I    between atoms: C10_16  and  N4_21 
REMARK    9  A    between atoms: C11_18  and  C12_19 
REMARK   10  A    between atoms: C11_18  and  C13_20 
REMARK   11  A    between atoms: N4_21  and  C14_22 
REMARK   12  A    between atoms: C14_22  and  C15_23 
REMARK   13  A    between atoms: C14_22  and  C16_25 
REMARK       I    between atoms: C15_23  and  N6_40 
REMARK   14  A    between atoms: C16_25  and  C17_26 
REMARK   15  A    between atoms: C17_26  and  C18_27 
REMARK   16  A    between atoms: C17_26  and  C19_28 
REMARK   17  A    between atoms: C20_29  and  C21_30 
REMARK   18  A    between atoms: C20_29  and  C24_33 
REMARK   19  A    between atoms: C20_29  and  N6_40 
REMARK   20  A    between atoms: C21_30  and  C22_31 
REMARK   21  A    between atoms: C22_31  and  C23_32 
REMARK   22  A    between atoms: C23_32  and  O8_43 
REMARK   23  A    between atoms: C24_33  and  C25_34 
REMARK   24  A    between atoms: C28_38  and  O6_39 
REMARK   25  A    between atoms: C29_42  and  O8_43 
REMARK   26  A    between atoms: C29_42  and  C35_49 
ROOT
ATOM      1  C14 non d ame     -32.618  10.462  25.824  0.00  0.00     0.089 C 
ATOM      2  H20 non d ame     -33.521  10.533  25.216  0.00  0.00     0.087 H 
ENDROOT
BRANCH   1   3
ATOM      3  N4  non d ame     -32.102   9.108  25.687  0.00  0.00    -0.346 N 
ATOM      4  C10 non d ame     -32.928   8.043  25.011  0.00  0.00     0.241 C 
ATOM      5  O4  non d ame     -34.007   8.299  24.588  0.00  0.00    -0.271 OA
ATOM      6  H19 non d ame     -31.183   8.911  26.057  0.00  0.00     0.163 HD
BRANCH   4   7
ATOM      7  C9  non d ame     -32.376   6.649  24.873  0.00  0.00     0.092 C 
ATOM      8  H11 non d ame     -31.315   6.657  25.124  0.00  0.00     0.088 H 
BRANCH   7   9
ATOM      9  N3  non d ame     -33.041   5.762  25.833  0.00  0.00    -0.346 N 
ATOM     10  C7  non d ame     -32.696   5.825  27.232  0.00  0.00     0.240 C 
ATOM     11  O3  non d ame     -31.884   6.583  27.602  0.00  0.00    -0.271 OA
ATOM     12  H10 non d ame     -33.742   5.102  25.528  0.00  0.00     0.163 HD
BRANCH  10  13
ATOM     13  C6  non d ame     -33.405   4.877  28.248  0.00  0.00     0.086 C 
ATOM     14  H6  non d ame     -32.803   4.685  29.136  0.00  0.00     0.086 H 
BRANCH  13  15
ATOM     15  N2  non d ame     -34.631   5.509  28.705  0.00  0.00    -0.343 N 
ATOM     16  C5  non d ame     -34.947   5.521  30.136  0.00  0.00     0.273 C 
ATOM     17  O2  non d ame     -34.209   5.016  30.909  0.00  0.00    -0.266 OA
ATOM     18  H5  non d ame     -35.257   5.936  28.037  0.00  0.00     0.163 HD
BRANCH  16  19
ATOM     19  C4  non d ame     -36.239   6.187  30.634  0.00  0.00     0.154 A 
ATOM     20  C1  non d ame     -36.529   7.587  30.675  0.00  0.00    -0.017 A 
ATOM     21  C2  non d ame     -37.834   7.672  31.210  0.00  0.00     0.077 A 
ATOM     22  H1  non d ame     -35.891   8.415  30.363  0.00  0.00     0.091 H 
ATOM     23  O1  non d ame     -38.236   6.458  31.445  0.00  0.00    -0.218 OA
ATOM     24  N1  non d ame     -37.323   5.573  31.117  0.00  0.00    -0.123 NA
BRANCH  21  25
ATOM     25  C3  non d ame     -38.622   8.950  31.465  0.00  0.00    -0.029 C 
ATOM     26  H2  non d ame     -38.177   9.492  32.299  0.00  0.00     0.036 H 
ATOM     27  H3  non d ame     -38.599   9.575  30.572  0.00  0.00     0.036 H 
ATOM     28  H4  non d ame     -39.655   8.698  31.705  0.00  0.00     0.036 H 
ENDBRANCH  21  25
ENDBRANCH  16  19
ENDBRANCH  13  15
BRANCH  13  29
ATOM     29  C8  non d ame     -33.720   3.564  27.578  0.00  0.00    -0.049 C 
ATOM     30  H7  non d ame     -32.928   2.846  27.795  0.00  0.00     0.030 H 
ATOM     31  H8  non d ame     -34.669   3.182  27.954  0.00  0.00     0.030 H 
ATOM     32  H9  non d ame     -33.789   3.713  26.500  0.00  0.00     0.030 H 
ENDBRANCH  13  29
ENDBRANCH  10  13
ENDBRANCH   7   9
BRANCH   7  33
ATOM     33  C11 non d ame     -32.632   6.130  23.428  0.00  0.00    -0.033 C 
ATOM     34  H12 non d ame     -33.439   6.727  23.003  0.00  0.00     0.042 H 
BRANCH  33  35
ATOM     35  C12 non d ame     -31.376   6.326  22.523  0.00  0.00    -0.071 C 
ATOM     36  H13 non d ame     -31.372   7.340  22.122  0.00  0.00     0.028 H 
ATOM     37  H14 non d ame     -30.474   6.165  23.113  0.00  0.00     0.028 H 
ATOM     38  H15 non d ame     -31.405   5.611  21.701  0.00  0.00     0.028 H 
ENDBRANCH  33  35
BRANCH  33  39
ATOM     39  C13 non d ame     -33.091   4.637  23.443  0.00  0.00    -0.071 C 
ATOM     40  H16 non d ame     -33.949   4.514  22.781  0.00  0.00     0.028 H 
ATOM     41  H17 non d ame     -32.274   4.001  23.101  0.00  0.00     0.028 H 
ATOM     42  H18 non d ame     -33.371   4.353  24.457  0.00  0.00     0.028 H 
ENDBRANCH  33  39
ENDBRANCH   7  33
ENDBRANCH   4   7
ENDBRANCH   1   3
BRANCH   1  43
ATOM     43  C15 non d ame     -31.519  11.461  25.361  0.00  0.00     0.240 C 
ATOM     44  O5  non d ame     -30.418  11.069  25.143  0.00  0.00    -0.271 OA
ATOM     45  N6  non d ame     -31.841  12.905  25.179  0.00  0.00    -0.355 N 
ATOM     46  H46 non d ame     -32.774  13.249  25.356  0.00  0.00     0.162 HD
BRANCH  45  47
ATOM     47  C20 non d ame     -30.785  13.841  24.737  0.00  0.00     0.013 C 
ATOM     48  H30 non d ame     -29.831  13.474  25.115  0.00  0.00     0.072 H 
BRANCH  47  49
ATOM     49  C21 non d ame     -31.068  15.216  25.299  0.00  0.00    -0.038 C 
ATOM     50  H31 non d ame     -30.477  15.288  26.213  0.00  0.00     0.036 H 
ATOM     51  H32 non d ame     -30.892  15.911  24.479  0.00  0.00     0.036 H 
BRANCH  49  52
ATOM     52  C22 non d ame     -32.543  15.400  25.718  0.00  0.00     0.018 C 
ATOM     53  H33 non d ame     -33.044  15.833  24.853  0.00  0.00     0.048 H 
ATOM     54  H34 non d ame     -32.863  14.432  26.104  0.00  0.00     0.048 H 
BRANCH  52  55
ATOM     55  C23 non d ame     -32.743  16.412  26.880  0.00  0.00     0.259 C 
ATOM     56  O7  non d ame     -32.904  17.567  26.653  0.00  0.00    -0.265 OA
BRANCH  55  57
ATOM     57  O8  non d ame     -32.718  15.944  28.223  0.00  0.00    -0.317 OA
BRANCH  57  58
ATOM     58  C29 non d ame     -33.435  14.724  28.428  0.00  0.00     0.052 C 
ATOM     59  H47 non d ame     -34.245  14.969  29.115  0.00  0.00     0.082 H 
ATOM     60  H48 non d ame     -33.662  14.344  27.432  0.00  0.00     0.082 H 
BRANCH  58  61
ATOM     61  C35 non d ame     -32.482  13.721  29.131  0.00  0.00    -0.034 A 
ATOM     62  C30 non d ame     -31.144  13.654  28.758  0.00  0.00    -0.075 A 
ATOM     63  C31 non d ame     -30.287  12.752  29.389  0.00  0.00    -0.082 A 
ATOM     64  H49 non d ame     -30.765  14.307  27.972  0.00  0.00     0.084 H 
ATOM     65  C32 non d ame     -30.775  11.913  30.394  0.00  0.00    -0.083 A 
ATOM     66  H50 non d ame     -29.238  12.704  29.096  0.00  0.00     0.083 H 
ATOM     67  C33 non d ame     -32.112  11.981  30.760  0.00  0.00    -0.082 A 
ATOM     68  H51 non d ame     -30.112  11.206  30.893  0.00  0.00     0.083 H 
ATOM     69  C34 non d ame     -32.971  12.882  30.134  0.00  0.00    -0.075 A 
ATOM     70  H52 non d ame     -32.491  11.324  31.544  0.00  0.00     0.083 H 
ATOM     71  H53 non d ame     -34.020  12.930  30.428  0.00  0.00     0.084 H 
ENDBRANCH  58  61
ENDBRANCH  57  58
ENDBRANCH  55  57
ENDBRANCH  52  55
ENDBRANCH  49  52
ENDBRANCH  47  49
BRANCH  47  72
ATOM     72  C24 non d ame     -30.761  13.909  23.211  0.00  0.00    -0.039 C 
ATOM     73  H35 non d ame     -30.103  13.099  22.895  0.00  0.00     0.036 H 
ATOM     74  H36 non d ame     -31.807  13.913  22.905  0.00  0.00     0.036 H 
BRANCH  72  75
ATOM     75  C25 non d ame     -30.111  15.277  22.689  0.00  0.00    -0.001 C 
ATOM     76  C26 non d ame     -31.251  16.183  21.925  0.00  0.00    -0.035 C 
ATOM     77  C27 non d ame     -30.775  16.550  20.712  0.00  0.00     0.085 C 
ATOM     78  H38 non d ame     -32.117  15.568  21.684  0.00  0.00     0.036 H 
ATOM     79  H39 non d ame     -31.384  17.132  22.445  0.00  0.00     0.036 H 
ATOM     80  N5  non d ame     -29.551  15.708  20.444  0.00  0.00    -0.049 N 
ATOM     81  H40 non d ame     -31.555  16.281  20.000  0.00  0.00     0.075 H 
ATOM     82  H41 non d ame     -30.473  17.591  20.820  0.00  0.00     0.075 H 
ATOM     83  C28 non d ame     -29.146  15.050  21.861  0.00  0.00     0.193 C 
ATOM     84  H42 non d ame     -29.842  14.971  19.818  0.00  0.00     0.280 HD
ATOM     85  H43 non d ame     -28.820  16.347  20.165  0.00  0.00     0.280 HD
ATOM     86  H44 non d ame     -28.301  15.438  22.431  0.00  0.00     0.129 H 
ATOM     87  H37 non d ame     -29.517  15.772  23.458  0.00  0.00     0.046 H 
BRANCH  83  88
ATOM     88  O6  non d ame     -28.890  13.654  21.701  0.00  0.00    -0.369 OA
ATOM     89  H45 non d ame     -28.892  13.433  20.767  0.00  0.00     0.212 HD
ENDBRANCH  83  88
ENDBRANCH  72  75
ENDBRANCH  47  72
ENDBRANCH  45  47
ENDBRANCH   1  43
BRANCH   1  90
ATOM     90  C16 non d ame     -32.959  10.718  27.283  0.00  0.00    -0.035 C 
ATOM     91  H21 non d ame     -32.089  10.381  27.846  0.00  0.00     0.037 H 
ATOM     92  H22 non d ame     -33.266  11.763  27.329  0.00  0.00     0.037 H 
BRANCH  90  93
ATOM     93  C17 non d ame     -34.171   9.879  27.800  0.00  0.00    -0.059 C 
ATOM     94  H23 non d ame     -34.426   9.156  27.026  0.00  0.00     0.038 H 
BRANCH  93  95
ATOM     95  C18 non d ame     -33.825   9.084  29.100  0.00  0.00    -0.073 C 
ATOM     96  H24 non d ame     -34.741   8.872  29.651  0.00  0.00     0.028 H 
ATOM     97  H25 non d ame     -33.338   8.146  28.833  0.00  0.00     0.028 H 
ATOM     98  H26 non d ame     -33.155   9.677  29.721  0.00  0.00     0.028 H 
ENDBRANCH  93  95
BRANCH  93  99
ATOM     99  C19 non d ame     -35.399  10.767  28.016  0.00  0.00    -0.073 C 
ATOM    100  H27 non d ame     -35.510  11.446  27.170  0.00  0.00     0.028 H 
ATOM    101  H28 non d ame     -36.289  10.143  28.100  0.00  0.00     0.028 H 
ATOM    102  H29 non d ame     -35.273  11.345  28.931  0.00  0.00     0.028 H 
ENDBRANCH  93  99
ENDBRANCH  90  93
ENDBRANCH   1  90
TORSDOF 26
ENDMDL
MODEL 4
REMARK VINA RESULT:      -7.2      2.512      8.329
REMARK  26 active torsions:
REMARK  status: ('A' for Active; 'I' for Inactive)
REMARK    1  A    between atoms: C2_2  and  C3_3 
REMARK    2  A    between atoms: C4_6  and  C5_7 
REMARK       I    between atoms: C5_7  and  N2_9 
REMARK    3  A    between atoms: N2_9  and  C6_10 
REMARK    4  A    between atoms: C6_10  and  C7_11 
REMARK    5  A    between atoms: C6_10  and  C8_13 
REMARK       I    between atoms: C7_11  and  N3_14 
REMARK    6  A    between atoms: N3_14  and  C9_15 
REMARK    7  A    between atoms: C9_15  and  C10_16 
REMARK    8  A    between atoms: C9_15  and  C11_18 
REMARK       I    between atoms: C10_16  and  N4_21 
REMARK    9  A    between atoms: C11_18  and  C12_19 
REMARK   10  A    between atoms: C11_18  and  C13_20 
REMARK   11  A    between atoms: N4_21  and  C14_22 
REMARK   12  A    between atoms: C14_22  and  C15_23 
REMARK   13  A    between atoms: C14_22  and  C16_25 
REMARK       I    between atoms: C15_23  and  N6_40 
REMARK   14  A    between atoms: C16_25  and  C17_26 
REMARK   15  A    between atoms: C17_26  and  C18_27 
REMARK   16  A    between atoms: C17_26  and  C19_28 
REMARK   17  A    between atoms: C20_29  and  C21_30 
REMARK   18  A    between atoms: C20_29  and  C24_33 
REMARK   19  A    between atoms: C20_29  and  N6_40 
REMARK   20  A    between atoms: C21_30  and  C22_31 
REMARK   21  A    between atoms: C22_31  and  C23_32 
REMARK   22  A    between atoms: C23_32  and  O8_43 
REMARK   23  A    between atoms: C24_33  and  C25_34 
REMARK   24  A    between atoms: C28_38  and  O6_39 
REMARK   25  A    between atoms: C29_42  and  O8_43 
REMARK   26  A    between atoms: C29_42  and  C35_49 
ROOT
ATOM      1  C14 non d ame     -36.433  15.959  26.493  0.00  0.00     0.089 C 
ATOM      2  H20 non d ame     -37.039  16.515  27.209  0.00  0.00     0.087 H 
ENDROOT
BRANCH   1   3
ATOM      3  N4  non d ame     -35.038  16.145  26.862  0.00  0.00    -0.346 N 
ATOM      4  C10 non d ame     -34.644  17.227  27.835  0.00  0.00     0.241 C 
ATOM      5  O4  non d ame     -35.469  17.938  28.307  0.00  0.00    -0.271 OA
ATOM      6  H19 non d ame     -34.351  15.530  26.448  0.00  0.00     0.163 HD
BRANCH   4   7
ATOM      7  C9  non d ame     -33.196  17.401  28.210  0.00  0.00     0.092 C 
ATOM      8  H11 non d ame     -33.133  17.912  29.171  0.00  0.00     0.088 H 
BRANCH   7   9
ATOM      9  N3  non d ame     -32.573  16.085  28.378  0.00  0.00    -0.346 N 
ATOM     10  C7  non d ame     -31.738  15.824  29.525  0.00  0.00     0.240 C 
ATOM     11  O3  non d ame     -31.556  16.662  30.322  0.00  0.00    -0.271 OA
ATOM     12  H10 non d ame     -32.719  15.352  27.698  0.00  0.00     0.163 HD
BRANCH  10  13
ATOM     13  C6  non d ame     -31.075  14.422  29.697  0.00  0.00     0.086 C 
ATOM     14  H6  non d ame     -30.428  14.366  30.572  0.00  0.00     0.086 H 
BRANCH  13  15
ATOM     15  N2  non d ame     -32.118  13.427  29.886  0.00  0.00    -0.343 N 
ATOM     16  C5  non d ame     -31.804  12.177  30.583  0.00  0.00     0.273 C 
ATOM     17  O2  non d ame     -30.710  11.981  30.984  0.00  0.00    -0.266 OA
ATOM     18  H5  non d ame     -33.049  13.602  29.538  0.00  0.00     0.163 HD
BRANCH  16  19
ATOM     19  C4  non d ame     -32.897  11.118  30.792  0.00  0.00     0.154 A 
ATOM     20  C1  non d ame     -33.275  10.075  29.887  0.00  0.00    -0.017 A 
ATOM     21  C2  non d ame     -34.316   9.383  30.545  0.00  0.00     0.077 A 
ATOM     22  H1  non d ame     -32.858   9.855  28.904  0.00  0.00     0.091 H 
ATOM     23  O1  non d ame     -34.505   9.966  31.692  0.00  0.00    -0.218 OA
ATOM     24  N1  non d ame     -33.689  10.981  31.859  0.00  0.00    -0.123 NA
BRANCH  21  25
ATOM     25  C3  non d ame     -35.075   8.176  30.009  0.00  0.00    -0.029 C 
ATOM     26  H2  non d ame     -36.013   8.505  29.564  0.00  0.00     0.036 H 
ATOM     27  H3  non d ame     -34.471   7.673  29.254  0.00  0.00     0.036 H 
ATOM     28  H4  non d ame     -35.283   7.485  30.826  0.00  0.00     0.036 H 
ENDBRANCH  21  25
ENDBRANCH  16  19
ENDBRANCH  13  15
BRANCH  13  29
ATOM     29  C8  non d ame     -30.264  14.093  28.469  0.00  0.00    -0.049 C 
ATOM     30  H7  non d ame     -30.830  14.361  27.577  0.00  0.00     0.030 H 
ATOM     31  H8  non d ame     -29.331  14.655  28.489  0.00  0.00     0.030 H 
ATOM     32  H9  non d ame     -30.045  13.025  28.453  0.00  0.00     0.030 H 
ENDBRANCH  13  29
ENDBRANCH  10  13
ENDBRANCH   7   9
BRANCH   7  33
ATOM     33  C11 non d ame     -32.459  18.181  27.083  0.00  0.00    -0.033 C 
ATOM     34  H12 non d ame     -31.394  17.965  27.175  0.00  0.00     0.042 H 
BRANCH  33  35
ATOM     35  C12 non d ame     -32.913  17.701  25.669  0.00  0.00    -0.071 C 
ATOM     36  H13 non d ame     -32.107  17.137  25.200  0.00  0.00     0.028 H 
ATOM     37  H14 non d ame     -33.793  17.066  25.766  0.00  0.00     0.028 H 
ATOM     38  H15 non d ame     -33.157  18.567  25.053  0.00  0.00     0.028 H 
ENDBRANCH  33  35
BRANCH  33  39
ATOM     39  C13 non d ame     -32.655  19.722  27.248  0.00  0.00    -0.071 C 
ATOM     40  H16 non d ame     -31.697  20.226  27.119  0.00  0.00     0.028 H 
ATOM     41  H17 non d ame     -33.359  20.082  26.497  0.00  0.00     0.028 H 
ATOM     42  H18 non d ame     -33.047  19.934  28.243  0.00  0.00     0.028 H 
ENDBRANCH  33  39
ENDBRANCH   7  33
ENDBRANCH   4   7
ENDBRANCH   1   3
BRANCH   1  43
ATOM     43  C15 non d ame     -36.752  14.437  26.512  0.00  0.00     0.240 C 
ATOM     44  O5  non d ame     -37.791  14.056  26.947  0.00  0.00    -0.271 OA
ATOM     45  N6  non d ame     -35.766  13.454  25.979  0.00  0.00    -0.355 N 
ATOM     46  H46 non d ame     -34.883  13.766  25.602  0.00  0.00     0.162 HD
BRANCH  45  47
ATOM     47  C20 non d ame     -36.086  12.010  26.002  0.00  0.00     0.013 C 
ATOM     48  H30 non d ame     -36.991  11.876  26.593  0.00  0.00     0.072 H 
BRANCH  47  49
ATOM     49  C21 non d ame     -34.939  11.255  26.635  0.00  0.00    -0.038 C 
ATOM     50  H31 non d ame     -34.740  11.760  27.581  0.00  0.00     0.036 H 
ATOM     51  H32 non d ame     -35.238  10.207  26.629  0.00  0.00     0.036 H 
BRANCH  49  52
ATOM     52  C22 non d ame     -33.636  11.342  25.811  0.00  0.00     0.018 C 
ATOM     53  H33 non d ame     -33.005  10.529  26.169  0.00  0.00     0.048 H 
ATOM     54  H34 non d ame     -33.949  11.370  24.767  0.00  0.00     0.048 H 
BRANCH  52  55
ATOM     55  C23 non d ame     -32.829  12.648  26.051  0.00  0.00     0.259 C 
ATOM     56  O7  non d ame     -33.123  13.385  26.936  0.00  0.00    -0.265 OA
BRANCH  55  57
ATOM     57  O8  non d ame     -31.740  12.962  25.192  0.00  0.00    -0.317 OA
BRANCH  57  58
ATOM     58  C29 non d ame     -31.505  14.365  25.037  0.00  0.00     0.052 C 
ATOM     59  H47 non d ame     -32.481  14.840  25.143  0.00  0.00     0.082 H 
ATOM     60  H48 non d ame     -30.703  14.608  25.733  0.00  0.00     0.082 H 
BRANCH  58  61
ATOM     61  C35 non d ame     -30.994  14.608  23.592  0.00  0.00    -0.034 A 
ATOM     62  C30 non d ame     -31.366  15.760  22.906  0.00  0.00    -0.075 A 
ATOM     63  C31 non d ame     -30.907  15.979  21.609  0.00  0.00    -0.082 A 
ATOM     64  H49 non d ame     -32.018  16.491  23.385  0.00  0.00     0.084 H 
ATOM     65  C32 non d ame     -30.074  15.039  20.995  0.00  0.00    -0.083 A 
ATOM     66  H50 non d ame     -31.199  16.883  21.074  0.00  0.00     0.083 H 
ATOM     67  C33 non d ame     -29.707  13.890  21.683  0.00  0.00    -0.082 A 
ATOM     68  H51 non d ame     -29.709  15.203  19.981  0.00  0.00     0.083 H 
ATOM     69  C34 non d ame     -30.162  13.668  22.981  0.00  0.00    -0.075 A 
ATOM     70  H52 non d ame     -29.059  13.158  21.201  0.00  0.00     0.083 H 
ATOM     71  H53 non d ame     -29.869  12.764  23.515  0.00  0.00     0.084 H 
ENDBRANCH  58  61
ENDBRANCH  57  58
ENDBRANCH  55  57
ENDBRANCH  52  55
ENDBRANCH  49  52
ENDBRANCH  47  49
BRANCH  47  72
ATOM     72  C24 non d ame     -36.303  11.506  24.577  0.00  0.00    -0.039 C 
ATOM     73  H35 non d ame     -35.745  12.191  23.938  0.00  0.00     0.036 H 
ATOM     74  H36 non d ame     -36.041  10.448  24.600  0.00  0.00     0.036 H 
BRANCH  72  75
ATOM     75  C25 non d ame     -37.842  11.602  24.143  0.00  0.00    -0.001 C 
ATOM     76  C26 non d ame     -38.314  10.193  23.438  0.00  0.00    -0.035 C 
ATOM     77  C27 non d ame     -38.900  10.474  22.250  0.00  0.00     0.085 C 
ATOM     78  H38 non d ame     -37.441   9.604  23.159  0.00  0.00     0.036 H 
ATOM     79  H39 non d ame     -39.117   9.736  24.017  0.00  0.00     0.036 H 
ATOM     80  N5  non d ame     -38.579  11.913  21.929  0.00  0.00    -0.049 N 
ATOM     81  H40 non d ame     -38.408   9.828  21.523  0.00  0.00     0.075 H 
ATOM     82  H41 non d ame     -39.972  10.379  22.425  0.00  0.00     0.075 H 
ATOM     83  C28 non d ame     -38.031  12.563  23.301  0.00  0.00     0.193 C 
ATOM     84  H42 non d ame     -37.824  11.895  21.258  0.00  0.00     0.280 HD
ATOM     85  H43 non d ame     -39.456  12.355  21.691  0.00  0.00     0.280 HD
ATOM     86  H44 non d ame     -38.666  13.223  23.894  0.00  0.00     0.129 H 
ATOM     87  H37 non d ame     -38.473  11.993  24.941  0.00  0.00     0.046 H 
BRANCH  83  88
ATOM     88  O6  non d ame     -36.836  13.305  23.053  0.00  0.00    -0.369 OA
ATOM     89  H45 non d ame     -36.836  13.617  22.145  0.00  0.00     0.212 HD
ENDBRANCH  83  88
ENDBRANCH  72  75
ENDBRANCH  47  72
ENDBRANCH  45  47
ENDBRANCH   1  43
BRANCH   1  90
ATOM     90  C16 non d ame     -36.654  16.511  25.094  0.00  0.00    -0.035 C 
ATOM     91  H21 non d ame     -35.656  16.678  24.688  0.00  0.00     0.037 H 
ATOM     92  H22 non d ame     -37.328  15.805  24.608  0.00  0.00     0.037 H 
BRANCH  90  93
ATOM     93  C17 non d ame     -37.375  17.896  25.073  0.00  0.00    -0.059 C 
ATOM     94  H23 non d ame     -37.947  17.957  24.147  0.00  0.00     0.038 H 
BRANCH  93  95
ATOM     95  C18 non d ame     -38.376  18.057  26.262  0.00  0.00    -0.073 C 
ATOM     96  H24 non d ame     -38.330  17.174  26.898  0.00  0.00     0.028 H 
ATOM     97  H25 non d ame     -38.108  18.938  26.845  0.00  0.00     0.028 H 
ATOM     98  H26 non d ame     -39.387  18.173  25.873  0.00  0.00     0.028 H 
ENDBRANCH  93  95
BRANCH  93  99
ATOM     99  C19 non d ame     -36.360  19.041  25.056  0.00  0.00    -0.073 C 
ATOM    100  H27 non d ame     -35.885  19.121  26.034  0.00  0.00     0.028 H 
ATOM    101  H28 non d ame     -35.600  18.843  24.299  0.00  0.00     0.028 H 
ATOM    102  H29 non d ame     -36.869  19.975  24.822  0.00  0.00     0.028 H 
ENDBRANCH  93  99
ENDBRANCH  90  93
ENDBRANCH   1  90
TORSDOF 26
ENDMDL
MODEL 5
REMARK VINA RESULT:      -7.1      2.893      9.164
REMARK  26 active torsions:
REMARK  status: ('A' for Active; 'I' for Inactive)
REMARK    1  A    between atoms: C2_2  and  C3_3 
REMARK    2  A    between atoms: C4_6  and  C5_7 
REMARK       I    between atoms: C5_7  and  N2_9 
REMARK    3  A    between atoms: N2_9  and  C6_10 
REMARK    4  A    between atoms: C6_10  and  C7_11 
REMARK    5  A    between atoms: C6_10  and  C8_13 
REMARK       I    between atoms: C7_11  and  N3_14 
REMARK    6  A    between atoms: N3_14  and  C9_15 
REMARK    7  A    between atoms: C9_15  and  C10_16 
REMARK    8  A    between atoms: C9_15  and  C11_18 
REMARK       I    between atoms: C10_16  and  N4_21 
REMARK    9  A    between atoms: C11_18  and  C12_19 
REMARK   10  A    between atoms: C11_18  and  C13_20 
REMARK   11  A    between atoms: N4_21  and  C14_22 
REMARK   12  A    between atoms: C14_22  and  C15_23 
REMARK   13  A    between atoms: C14_22  and  C16_25 
REMARK       I    between atoms: C15_23  and  N6_40 
REMARK   14  A    between atoms: C16_25  and  C17_26 
REMARK   15  A    between atoms: C17_26  and  C18_27 
REMARK   16  A    between atoms: C17_26  and  C19_28 
REMARK   17  A    between atoms: C20_29  and  C21_30 
REMARK   18  A    between atoms: C20_29  and  C24_33 
REMARK   19  A    between atoms: C20_29  and  N6_40 
REMARK   20  A    between atoms: C21_30  and  C22_31 
REMARK   21  A    between atoms: C22_31  and  C23_32 
REMARK   22  A    between atoms: C23_32  and  O8_43 
REMARK   23  A    between atoms: C24_33  and  C25_34 
REMARK   24  A    between atoms: C28_38  and  O6_39 
REMARK   25  A    between atoms: C29_42  and  O8_43 
REMARK   26  A    between atoms: C29_42  and  C35_49 
ROOT
ATOM      1  C14 non d ame     -33.737   6.959  27.830  0.00  0.00     0.089 C 
ATOM      2  H20 non d ame     -33.253   6.593  28.735  0.00  0.00     0.087 H 
ENDROOT
BRANCH   1   3
ATOM      3  N4  non d ame     -34.157   8.330  28.081  0.00  0.00    -0.346 N 
ATOM      4  C10 non d ame     -34.721   8.719  29.424  0.00  0.00     0.241 C 
ATOM      5  O4  non d ame     -34.831   7.911  30.287  0.00  0.00    -0.271 OA
ATOM      6  H19 non d ame     -34.058   9.002  27.334  0.00  0.00     0.163 HD
BRANCH   4   7
ATOM      7  C9  non d ame     -35.146  10.143  29.669  0.00  0.00     0.092 C 
ATOM      8  H11 non d ame     -35.323  10.286  30.735  0.00  0.00     0.088 H 
BRANCH   7   9
ATOM      9  N3  non d ame     -34.061  11.050  29.284  0.00  0.00    -0.346 N 
ATOM     10  C7  non d ame     -33.017  11.366  30.228  0.00  0.00     0.240 C 
ATOM     11  O3  non d ame     -33.036  10.901  31.302  0.00  0.00    -0.271 OA
ATOM     12  H10 non d ame     -34.032  11.460  28.362  0.00  0.00     0.163 HD
BRANCH  10  13
ATOM     13  C6  non d ame     -31.866  12.335  29.813  0.00  0.00     0.086 C 
ATOM     14  H6  non d ame     -31.320  11.990  28.936  0.00  0.00     0.086 H 
BRANCH  13  15
ATOM     15  N2  non d ame     -32.438  13.625  29.466  0.00  0.00    -0.343 N 
ATOM     16  C5  non d ame     -31.710  14.517  28.561  0.00  0.00     0.273 C 
ATOM     17  O2  non d ame     -30.663  14.189  28.121  0.00  0.00    -0.266 OA
ATOM     18  H5  non d ame     -33.332  13.899  29.849  0.00  0.00     0.163 HD
BRANCH  16  19
ATOM     19  C4  non d ame     -32.303  15.884  28.184  0.00  0.00     0.154 A 
ATOM     20  C1  non d ame     -32.507  16.404  26.867  0.00  0.00    -0.017 A 
ATOM     21  C2  non d ame     -33.073  17.683  27.065  0.00  0.00     0.077 A 
ATOM     22  H1  non d ame     -32.278  15.927  25.914  0.00  0.00     0.091 H 
ATOM     23  O1  non d ame     -33.180  17.865  28.349  0.00  0.00    -0.218 OA
ATOM     24  N1  non d ame     -32.736  16.829  29.023  0.00  0.00    -0.123 NA
BRANCH  21  25
ATOM     25  C3  non d ame     -33.484  18.665  25.976  0.00  0.00    -0.029 C 
ATOM     26  H2  non d ame     -32.980  18.408  25.045  0.00  0.00     0.036 H 
ATOM     27  H3  non d ame     -34.563  18.615  25.830  0.00  0.00     0.036 H 
ATOM     28  H4  non d ame     -33.205  19.676  26.274  0.00  0.00     0.036 H 
ENDBRANCH  21  25
ENDBRANCH  16  19
ENDBRANCH  13  15
BRANCH  13  29
ATOM     29  C8  non d ame     -30.899  12.490  30.959  0.00  0.00    -0.049 C 
ATOM     30  H7  non d ame     -31.434  12.846  31.840  0.00  0.00     0.030 H 
ATOM     31  H8  non d ame     -30.438  11.528  31.178  0.00  0.00     0.030 H 
ATOM     32  H9  non d ame     -30.127  13.210  30.688  0.00  0.00     0.030 H 
ENDBRANCH  13  29
ENDBRANCH  10  13
ENDBRANCH   7   9
BRANCH   7  33
ATOM     33  C11 non d ame     -36.410  10.461  28.818  0.00  0.00    -0.033 C 
ATOM     34  H12 non d ame     -36.970  11.238  29.338  0.00  0.00     0.042 H 
BRANCH  33  35
ATOM     35  C12 non d ame     -36.024  11.021  27.414  0.00  0.00    -0.071 C 
ATOM     36  H13 non d ame     -36.783  11.731  27.085  0.00  0.00     0.028 H 
ATOM     37  H14 non d ame     -35.059  11.522  27.476  0.00  0.00     0.028 H 
ATOM     38  H15 non d ame     -35.963  10.200  26.700  0.00  0.00     0.028 H 
ENDBRANCH  33  35
BRANCH  33  39
ATOM     39  C13 non d ame     -37.331   9.204  28.693  0.00  0.00    -0.071 C 
ATOM     40  H16 non d ame     -37.680   8.910  29.683  0.00  0.00     0.028 H 
ATOM     41  H17 non d ame     -38.187   9.442  28.061  0.00  0.00     0.028 H 
ATOM     42  H18 non d ame     -36.768   8.384  28.247  0.00  0.00     0.028 H 
ENDBRANCH  33  39
ENDBRANCH   7  33
ENDBRANCH   4   7
ENDBRANCH   1   3
BRANCH   1  43
ATOM     43  C15 non d ame     -32.776   6.952  26.606  0.00  0.00     0.240 C 
ATOM     44  O5  non d ame     -31.808   6.263  26.619  0.00  0.00    -0.271 OA
ATOM     45  N6  non d ame     -33.068   7.799  25.415  0.00  0.00    -0.355 N 
ATOM     46  H46 non d ame     -33.890   8.385  25.390  0.00  0.00     0.162 HD
BRANCH  45  47
ATOM     47  C20 non d ame     -32.145   7.780  24.259  0.00  0.00     0.013 C 
ATOM     48  H30 non d ame     -31.217   7.307  24.578  0.00  0.00     0.072 H 
BRANCH  47  49
ATOM     49  C21 non d ame     -31.874   9.199  23.813  0.00  0.00    -0.038 C 
ATOM     50  H31 non d ame     -30.830   9.392  24.060  0.00  0.00     0.036 H 
ATOM     51  H32 non d ame     -32.207   9.250  22.776  0.00  0.00     0.036 H 
BRANCH  49  52
ATOM     52  C22 non d ame     -32.707  10.241  24.590  0.00  0.00     0.018 C 
ATOM     53  H33 non d ame     -32.866  11.068  23.899  0.00  0.00     0.048 H 
ATOM     54  H34 non d ame     -33.561   9.696  24.993  0.00  0.00     0.048 H 
BRANCH  52  55
ATOM     55  C23 non d ame     -31.968  10.845  25.816  0.00  0.00     0.259 C 
ATOM     56  O7  non d ame     -32.143  10.402  26.905  0.00  0.00    -0.265 OA
BRANCH  55  57
ATOM     57  O8  non d ame     -31.086  11.945  25.626  0.00  0.00    -0.317 OA
BRANCH  57  58
ATOM     58  C29 non d ame     -31.721  13.118  25.108  0.00  0.00     0.052 C 
ATOM     59  H47 non d ame     -32.668  12.779  24.688  0.00  0.00     0.082 H 
ATOM     60  H48 non d ame     -31.714  13.841  25.923  0.00  0.00     0.082 H 
BRANCH  58  61
ATOM     61  C35 non d ame     -30.841  13.669  23.954  0.00  0.00    -0.034 A 
ATOM     62  C30 non d ame     -30.630  15.039  23.833  0.00  0.00    -0.075 A 
ATOM     63  C31 non d ame     -29.841  15.534  22.796  0.00  0.00    -0.082 A 
ATOM     64  H49 non d ame     -31.084  15.724  24.549  0.00  0.00     0.084 H 
ATOM     65  C32 non d ame     -29.262  14.654  21.878  0.00  0.00    -0.083 A 
ATOM     66  H50 non d ame     -29.676  16.608  22.705  0.00  0.00     0.083 H 
ATOM     67  C33 non d ame     -29.478  13.288  22.001  0.00  0.00    -0.082 A 
ATOM     68  H51 non d ame     -28.643  15.033  21.065  0.00  0.00     0.083 H 
ATOM     69  C34 non d ame     -30.265  12.789  23.037  0.00  0.00    -0.075 A 
ATOM     70  H52 non d ame     -29.028  12.604  21.282  0.00  0.00     0.083 H 
ATOM     71  H53 non d ame     -30.430  11.714  23.128  0.00  0.00     0.084 H 
ENDBRANCH  58  61
ENDBRANCH  57  58
ENDBRANCH  55  57
ENDBRANCH  52  55
ENDBRANCH  49  52
ENDBRANCH  47  49
BRANCH  47  72
ATOM     72  C24 non d ame     -32.773   6.995  23.109  0.00  0.00    -0.039 C 
ATOM     73  H35 non d ame     -32.086   6.172  22.911  0.00  0.00     0.036 H 
ATOM     74  H36 non d ame     -33.795   6.787  23.424  0.00  0.00     0.036 H 
BRANCH  72  75
ATOM     75  C25 non d ame     -32.859   7.871  21.771  0.00  0.00    -0.001 C 
ATOM     76  C26 non d ame     -34.434   8.140  21.378  0.00  0.00    -0.035 C 
ATOM     77  C27 non d ame     -34.626   7.792  20.083  0.00  0.00     0.085 C 
ATOM     78  H38 non d ame     -35.078   7.452  21.925  0.00  0.00     0.036 H 
ATOM     79  H39 non d ame     -34.644   9.209  21.389  0.00  0.00     0.036 H 
ATOM     80  N5  non d ame     -33.411   7.006  19.652  0.00  0.00    -0.049 N 
ATOM     81  H40 non d ame     -35.494   7.133  20.085  0.00  0.00     0.075 H 
ATOM     82  H41 non d ame     -34.655   8.731  19.531  0.00  0.00     0.075 H 
ATOM     83  C28 non d ame     -32.287   7.271  20.781  0.00  0.00     0.193 C 
ATOM     84  H42 non d ame     -33.675   6.032  19.683  0.00  0.00     0.280 HD
ATOM     85  H43 non d ame     -33.098   7.418  18.784  0.00  0.00     0.280 HD
ATOM     86  H44 non d ame     -31.458   7.951  20.588  0.00  0.00     0.129 H 
ATOM     87  H37 non d ame     -32.201   8.740  21.802  0.00  0.00     0.046 H 
BRANCH  83  88
ATOM     88  O6  non d ame     -31.685   6.037  21.175  0.00  0.00    -0.369 OA
ATOM     89  H45 non d ame     -32.217   5.625  21.860  0.00  0.00     0.212 HD
ENDBRANCH  83  88
ENDBRANCH  72  75
ENDBRANCH  47  72
ENDBRANCH  45  47
ENDBRANCH   1  43
BRANCH   1  90
ATOM     90  C16 non d ame     -34.962   6.113  27.522  0.00  0.00    -0.035 C 
ATOM     91  H21 non d ame     -35.797   6.634  27.988  0.00  0.00     0.037 H 
ATOM     92  H22 non d ame     -34.947   5.965  26.442  0.00  0.00     0.037 H 
BRANCH  90  93
ATOM     93  C17 non d ame     -34.917   4.690  28.163  0.00  0.00    -0.059 C 
ATOM     94  H23 non d ame     -35.906   4.481  28.573  0.00  0.00     0.038 H 
BRANCH  93  95
ATOM     95  C18 non d ame     -34.593   3.580  27.113  0.00  0.00    -0.073 C 
ATOM     96  H24 non d ame     -35.006   2.629  27.448  0.00  0.00     0.028 H 
ATOM     97  H25 non d ame     -35.033   3.848  26.153  0.00  0.00     0.028 H 
ATOM     98  H26 non d ame     -33.512   3.488  27.004  0.00  0.00     0.028 H 
ENDBRANCH  93  95
BRANCH  93  99
ATOM     99  C19 non d ame     -33.924   4.645  29.327  0.00  0.00    -0.073 C 
ATOM    100  H27 non d ame     -33.677   5.662  29.633  0.00  0.00     0.028 H 
ATOM    101  H28 non d ame     -34.371   4.112  30.167  0.00  0.00     0.028 H 
ATOM    102  H29 non d ame     -33.017   4.130  29.012  0.00  0.00     0.028 H 
ENDBRANCH  93  99
ENDBRANCH  90  93
ENDBRANCH   1  90
TORSDOF 26
ENDMDL
MODEL 6
REMARK VINA RESULT:      -7.1      3.252      7.410
REMARK  26 active torsions:
REMARK  status: ('A' for Active; 'I' for Inactive)
REMARK    1  A    between atoms: C2_2  and  C3_3 
REMARK    2  A    between atoms: C4_6  and  C5_7 
REMARK       I    between atoms: C5_7  and  N2_9 
REMARK    3  A    between atoms: N2_9  and  C6_10 
REMARK    4  A    between atoms: C6_10  and  C7_11 
REMARK    5  A    between atoms: C6_10  and  C8_13 
REMARK       I    between atoms: C7_11  and  N3_14 
REMARK    6  A    between atoms: N3_14  and  C9_15 
REMARK    7  A    between atoms: C9_15  and  C10_16 
REMARK    8  A    between atoms: C9_15  and  C11_18 
REMARK       I    between atoms: C10_16  and  N4_21 
REMARK    9  A    between atoms: C11_18  and  C12_19 
REMARK   10  A    between atoms: C11_18  and  C13_20 
REMARK   11  A    between atoms: N4_21  and  C14_22 
REMARK   12  A    between atoms: C14_22  and  C15_23 
REMARK   13  A    between atoms: C14_22  and  C16_25 
REMARK       I    between atoms: C15_23  and  N6_40 
REMARK   14  A    between atoms: C16_25  and  C17_26 
REMARK   15  A    between atoms: C17_26  and  C18_27 
REMARK   16  A    between atoms: C17_26  and  C19_28 
REMARK   17  A    between atoms: C20_29  and  C21_30 
REMARK   18  A    between atoms: C20_29  and  C24_33 
REMARK   19  A    between atoms: C20_29  and  N6_40 
REMARK   20  A    between atoms: C21_30  and  C22_31 
REMARK   21  A    between atoms: C22_31  and  C23_32 
REMARK   22  A    between atoms: C23_32  and  O8_43 
REMARK   23  A    between atoms: C24_33  and  C25_34 
REMARK   24  A    between atoms: C28_38  and  O6_39 
REMARK   25  A    between atoms: C29_42  and  O8_43 
REMARK   26  A    between atoms: C29_42  and  C35_49 
ROOT
ATOM      1  C14 non d ame     -31.163  13.436  24.737  0.00  0.00     0.089 C 
ATOM      2  H20 non d ame     -30.165  13.333  25.164  0.00  0.00     0.087 H 
ENDROOT
BRANCH   1   3
ATOM      3  N4  non d ame     -31.627  12.103  24.383  0.00  0.00    -0.346 N 
ATOM      4  C10 non d ame     -31.530  10.973  25.377  0.00  0.00     0.241 C 
ATOM      5  O4  non d ame     -31.071  11.160  26.455  0.00  0.00    -0.271 OA
ATOM      6  H19 non d ame     -32.011  11.964  23.459  0.00  0.00     0.163 HD
BRANCH   4   7
ATOM      7  C9  non d ame     -32.020   9.601  24.995  0.00  0.00     0.092 C 
ATOM      8  H11 non d ame     -31.241   8.870  25.209  0.00  0.00     0.088 H 
BRANCH   7   9
ATOM      9  N3  non d ame     -33.182   9.251  25.817  0.00  0.00    -0.346 N 
ATOM     10  C7  non d ame     -33.149   8.069  26.644  0.00  0.00     0.240 C 
ATOM     11  O3  non d ame     -32.197   7.389  26.658  0.00  0.00    -0.271 OA
ATOM     12  H10 non d ame     -34.011   9.827  25.814  0.00  0.00     0.163 HD
BRANCH  10  13
ATOM     13  C6  non d ame     -34.390   7.699  27.515  0.00  0.00     0.086 C 
ATOM     14  H6  non d ame     -35.073   7.018  27.008  0.00  0.00     0.086 H 
BRANCH  13  15
ATOM     15  N2  non d ame     -33.937   7.017  28.715  0.00  0.00    -0.343 N 
ATOM     16  C5  non d ame     -34.276   5.606  28.915  0.00  0.00     0.273 C 
ATOM     17  O2  non d ame     -34.917   5.031  28.105  0.00  0.00    -0.266 OA
ATOM     18  H5  non d ame     -33.392   7.517  29.404  0.00  0.00     0.163 HD
BRANCH  16  19
ATOM     19  C4  non d ame     -33.802   4.872  30.179  0.00  0.00     0.154 A 
ATOM     20  C1  non d ame     -32.768   3.887  30.270  0.00  0.00    -0.017 A 
ATOM     21  C2  non d ame     -32.725   3.530  31.636  0.00  0.00     0.077 A 
ATOM     22  H1  non d ame     -32.145   3.491  29.467  0.00  0.00     0.091 H 
ATOM     23  O1  non d ame     -33.631   4.235  32.249  0.00  0.00    -0.218 OA
ATOM     24  N1  non d ame     -34.273   5.025  31.419  0.00  0.00    -0.123 NA
BRANCH  21  25
ATOM     25  C3  non d ame     -31.790   2.511  32.273  0.00  0.00    -0.029 C 
ATOM     26  H2  non d ame     -30.815   2.560  31.789  0.00  0.00     0.036 H 
ATOM     27  H3  non d ame     -31.680   2.732  33.334  0.00  0.00     0.036 H 
ATOM     28  H4  non d ame     -32.206   1.511  32.152  0.00  0.00     0.036 H 
ENDBRANCH  21  25
ENDBRANCH  16  19
ENDBRANCH  13  15
BRANCH  13  29
ATOM     29  C8  non d ame     -35.139   8.954  27.886  0.00  0.00    -0.049 C 
ATOM     30  H7  non d ame     -34.593   9.486  28.665  0.00  0.00     0.030 H 
ATOM     31  H8  non d ame     -35.234   9.593  27.008  0.00  0.00     0.030 H 
ATOM     32  H9  non d ame     -36.131   8.690  28.252  0.00  0.00     0.030 H 
ENDBRANCH  13  29
ENDBRANCH  10  13
ENDBRANCH   7   9
BRANCH   7  33
ATOM     33  C11 non d ame     -32.431   9.597  23.493  0.00  0.00    -0.033 C 
ATOM     34  H12 non d ame     -32.337  10.618  23.124  0.00  0.00     0.042 H 
BRANCH  33  35
ATOM     35  C12 non d ame     -31.475   8.702  22.645  0.00  0.00    -0.071 C 
ATOM     36  H13 non d ame     -30.545   9.239  22.456  0.00  0.00     0.028 H 
ATOM     37  H14 non d ame     -31.259   7.783  23.190  0.00  0.00     0.028 H 
ATOM     38  H15 non d ame     -31.952   8.458  21.696  0.00  0.00     0.028 H 
ENDBRANCH  33  35
BRANCH  33  39
ATOM     39  C13 non d ame     -33.920   9.156  23.322  0.00  0.00    -0.071 C 
ATOM     40  H16 non d ame     -34.538   9.667  24.061  0.00  0.00     0.028 H 
ATOM     41  H17 non d ame     -34.263   9.414  22.319  0.00  0.00     0.028 H 
ATOM     42  H18 non d ame     -33.999   8.078  23.465  0.00  0.00     0.028 H 
ENDBRANCH  33  39
ENDBRANCH   7  33
ENDBRANCH   4   7
ENDBRANCH   1   3
BRANCH   1  43
ATOM     43  C15 non d ame     -32.171  14.060  25.744  0.00  0.00     0.240 C 
ATOM     44  O5  non d ame     -33.288  14.278  25.403  0.00  0.00    -0.271 OA
ATOM     45  N6  non d ame     -31.746  14.378  27.137  0.00  0.00    -0.355 N 
ATOM     46  H46 non d ame     -30.801  14.193  27.440  0.00  0.00     0.162 HD
BRANCH  45  47
ATOM     47  C20 non d ame     -32.717  14.970  28.082  0.00  0.00     0.013 C 
ATOM     48  H30 non d ame     -33.712  14.866  27.650  0.00  0.00     0.072 H 
BRANCH  47  49
ATOM     49  C21 non d ame     -32.391  16.433  28.283  0.00  0.00    -0.038 C 
ATOM     50  H31 non d ame     -32.889  16.721  29.209  0.00  0.00     0.036 H 
ATOM     51  H32 non d ame     -31.306  16.506  28.200  0.00  0.00     0.036 H 
BRANCH  49  52
ATOM     52  C22 non d ame     -32.976  17.334  27.174  0.00  0.00     0.018 C 
ATOM     53  H33 non d ame     -32.148  17.546  26.498  0.00  0.00     0.048 H 
ATOM     54  H34 non d ame     -33.860  16.814  26.806  0.00  0.00     0.048 H 
BRANCH  52  55
ATOM     55  C23 non d ame     -33.473  18.714  27.686  0.00  0.00     0.259 C 
ATOM     56  O7  non d ame     -32.700  19.528  28.075  0.00  0.00    -0.265 OA
BRANCH  55  57
ATOM     57  O8  non d ame     -34.868  18.991  27.699  0.00  0.00    -0.317 OA
BRANCH  57  58
ATOM     58  C29 non d ame     -35.276  19.971  26.740  0.00  0.00     0.052 C 
ATOM     59  H47 non d ame     -35.912  20.669  27.284  0.00  0.00     0.082 H 
ATOM     60  H48 non d ame     -34.358  20.324  26.269  0.00  0.00     0.082 H 
BRANCH  58  61
ATOM     61  C35 non d ame     -36.137  19.259  25.663  0.00  0.00    -0.034 A 
ATOM     62  C30 non d ame     -36.643  19.980  24.586  0.00  0.00    -0.075 A 
ATOM     63  C31 non d ame     -37.417  19.340  23.619  0.00  0.00    -0.082 A 
ATOM     64  H49 non d ame     -36.434  21.047  24.500  0.00  0.00     0.084 H 
ATOM     65  C32 non d ame     -37.686  17.974  23.733  0.00  0.00    -0.083 A 
ATOM     66  H50 non d ame     -37.811  19.908  22.776  0.00  0.00     0.083 H 
ATOM     67  C33 non d ame     -37.182  17.259  24.810  0.00  0.00    -0.082 A 
ATOM     68  H51 non d ame     -38.289  17.466  22.981  0.00  0.00     0.083 H 
ATOM     69  C34 non d ame     -36.406  17.894  25.778  0.00  0.00    -0.075 A 
ATOM     70  H52 non d ame     -37.396  16.193  24.897  0.00  0.00     0.083 H 
ATOM     71  H53 non d ame     -36.013  17.325  26.621  0.00  0.00     0.084 H 
ENDBRANCH  58  61
ENDBRANCH  57  58
ENDBRANCH  55  57
ENDBRANCH  52  55
ENDBRANCH  49  52
ENDBRANCH  47  49
BRANCH  47  72
ATOM     72  C24 non d ame     -32.642  14.242  29.423  0.00  0.00    -0.039 C 
ATOM     73  H35 non d ame     -32.004  14.862  30.054  0.00  0.00     0.036 H 
ATOM     74  H36 non d ame     -33.676  14.055  29.710  0.00  0.00     0.036 H 
BRANCH  72  75
ATOM     75  C25 non d ame     -31.925  12.816  29.284  0.00  0.00    -0.001 C 
ATOM     76  C26 non d ame     -33.047  11.616  29.359  0.00  0.00    -0.035 C 
ATOM     77  C27 non d ame     -32.654  10.709  30.286  0.00  0.00     0.085 C 
ATOM     78  H38 non d ame     -33.982  12.004  29.762  0.00  0.00     0.036 H 
ATOM     79  H39 non d ame     -33.048  11.046  28.430  0.00  0.00     0.036 H 
ATOM     80  N5  non d ame     -31.539  11.344  31.080  0.00  0.00    -0.049 N 
ATOM     81  H40 non d ame     -33.517  10.566  30.936  0.00  0.00     0.075 H 
ATOM     82  H41 non d ame     -32.253   9.869  29.720  0.00  0.00     0.075 H 
ATOM     83  C28 non d ame     -31.064  12.631  30.229  0.00  0.00     0.193 C 
ATOM     84  H42 non d ame     -31.950  11.665  31.945  0.00  0.00     0.280 HD
ATOM     85  H43 non d ame     -30.783  10.674  31.098  0.00  0.00     0.280 HD
ATOM     86  H44 non d ame     -30.140  12.603  29.652  0.00  0.00     0.129 H 
ATOM     87  H37 non d ame     -31.222  12.787  28.451  0.00  0.00     0.046 H 
BRANCH  83  88
ATOM     88  O6  non d ame     -30.948  13.771  31.082  0.00  0.00    -0.369 OA
ATOM     89  H45 non d ame     -31.823  14.114  31.280  0.00  0.00     0.212 HD
ENDBRANCH  83  88
ENDBRANCH  72  75
ENDBRANCH  47  72
ENDBRANCH  45  47
ENDBRANCH   1  43
BRANCH   1  90
ATOM     90  C16 non d ame     -31.100  14.290  23.481  0.00  0.00    -0.035 C 
ATOM     91  H21 non d ame     -31.762  13.801  22.767  0.00  0.00     0.037 H 
ATOM     92  H22 non d ame     -31.310  15.307  23.812  0.00  0.00     0.037 H 
BRANCH  90  93
ATOM     93  C17 non d ame     -29.686  14.325  22.818  0.00  0.00    -0.059 C 
ATOM     94  H23 non d ame     -28.946  14.360  23.618  0.00  0.00     0.038 H 
BRANCH  93  95
ATOM     95  C18 non d ame     -29.404  13.048  21.963  0.00  0.00    -0.073 C 
ATOM     96  H24 non d ame     -29.008  13.342  20.991  0.00  0.00     0.028 H 
ATOM     97  H25 non d ame     -28.676  12.421  22.476  0.00  0.00     0.028 H 
ATOM     98  H26 non d ame     -30.330  12.492  21.825  0.00  0.00     0.028 H 
ENDBRANCH  93  95
BRANCH  93  99
ATOM     99  C19 non d ame     -29.508  15.593  21.978  0.00  0.00    -0.073 C 
ATOM    100  H27 non d ame     -28.452  15.862  21.946  0.00  0.00     0.028 H 
ATOM    101  H28 non d ame     -29.868  15.412  20.965  0.00  0.00     0.028 H 
ATOM    102  H29 non d ame     -30.077  16.408  22.425  0.00  0.00     0.028 H 
ENDBRANCH  93  99
ENDBRANCH  90  93
ENDBRANCH   1  90
TORSDOF 26
ENDMDL
MODEL 7
REMARK VINA RESULT:      -7.0      3.302      7.200
REMARK  26 active torsions:
REMARK  status: ('A' for Active; 'I' for Inactive)
REMARK    1  A    between atoms: C2_2  and  C3_3 
REMARK    2  A    between atoms: C4_6  and  C5_7 
REMARK       I    between atoms: C5_7  and  N2_9 
REMARK    3  A    between atoms: N2_9  and  C6_10 
REMARK    4  A    between atoms: C6_10  and  C7_11 
REMARK    5  A    between atoms: C6_10  and  C8_13 
REMARK       I    between atoms: C7_11  and  N3_14 
REMARK    6  A    between atoms: N3_14  and  C9_15 
REMARK    7  A    between atoms: C9_15  and  C10_16 
REMARK    8  A    between atoms: C9_15  and  C11_18 
REMARK       I    between atoms: C10_16  and  N4_21 
REMARK    9  A    between atoms: C11_18  and  C12_19 
REMARK   10  A    between atoms: C11_18  and  C13_20 
REMARK   11  A    between atoms: N4_21  and  C14_22 
REMARK   12  A    between atoms: C14_22  and  C15_23 
REMARK   13  A    between atoms: C14_22  and  C16_25 
REMARK       I    between atoms: C15_23  and  N6_40 
REMARK   14  A    between atoms: C16_25  and  C17_26 
REMARK   15  A    between atoms: C17_26  and  C18_27 
REMARK   16  A    between atoms: C17_26  and  C19_28 
REMARK   17  A    between atoms: C20_29  and  C21_30 
REMARK   18  A    between atoms: C20_29  and  C24_33 
REMARK   19  A    between atoms: C20_29  and  N6_40 
REMARK   20  A    between atoms: C21_30  and  C22_31 
REMARK   21  A    between atoms: C22_31  and  C23_32 
REMARK   22  A    between atoms: C23_32  and  O8_43 
REMARK   23  A    between atoms: C24_33  and  C25_34 
REMARK   24  A    between atoms: C28_38  and  O6_39 
REMARK   25  A    between atoms: C29_42  and  O8_43 
REMARK   26  A    between atoms: C29_42  and  C35_49 
ROOT
ATOM      1  C14 non d ame     -33.143  10.679  25.617  0.00  0.00     0.089 C 
ATOM      2  H20 non d ame     -33.967  10.658  24.904  0.00  0.00     0.087 H 
ENDROOT
BRANCH   1   3
ATOM      3  N4  non d ame     -32.500   9.374  25.582  0.00  0.00    -0.346 N 
ATOM      4  C10 non d ame     -33.138   8.230  24.836  0.00  0.00     0.241 C 
ATOM      5  O4  non d ame     -34.172   8.383  24.274  0.00  0.00    -0.271 OA
ATOM      6  H19 non d ame     -31.621   9.264  26.069  0.00  0.00     0.163 HD
BRANCH   4   7
ATOM      7  C9  non d ame     -32.455   6.888  24.805  0.00  0.00     0.092 C 
ATOM      8  H11 non d ame     -31.412   7.009  25.098  0.00  0.00     0.088 H 
BRANCH   7   9
ATOM      9  N3  non d ame     -33.081   5.998  25.789  0.00  0.00    -0.346 N 
ATOM     10  C7  non d ame     -32.664   6.044  27.169  0.00  0.00     0.240 C 
ATOM     11  O3  non d ame     -31.827   6.789  27.505  0.00  0.00    -0.271 OA
ATOM     12  H10 non d ame     -33.803   5.349  25.513  0.00  0.00     0.163 HD
BRANCH  10  13
ATOM     13  C6  non d ame     -33.331   5.093  28.210  0.00  0.00     0.086 C 
ATOM     14  H6  non d ame     -32.707   4.922  29.087  0.00  0.00     0.086 H 
BRANCH  13  15
ATOM     15  N2  non d ame     -34.560   5.705  28.688  0.00  0.00    -0.343 N 
ATOM     16  C5  non d ame     -34.929   5.575  30.100  0.00  0.00     0.273 C 
ATOM     17  O2  non d ame     -34.232   4.974  30.841  0.00  0.00    -0.266 OA
ATOM     18  H5  non d ame     -35.151   6.214  28.047  0.00  0.00     0.163 HD
BRANCH  16  19
ATOM     19  C4  non d ame     -36.225   6.218  30.619  0.00  0.00     0.154 A 
ATOM     20  C1  non d ame     -36.551   7.611  30.638  0.00  0.00    -0.017 A 
ATOM     21  C2  non d ame     -37.842   7.674  31.208  0.00  0.00     0.077 A 
ATOM     22  H1  non d ame     -35.945   8.447  30.291  0.00  0.00     0.091 H 
ATOM     23  O1  non d ame     -38.206   6.454  31.479  0.00  0.00    -0.218 OA
ATOM     24  N1  non d ame     -37.278   5.587  31.145  0.00  0.00    -0.123 NA
BRANCH  21  25
ATOM     25  C3  non d ame     -38.658   8.936  31.456  0.00  0.00    -0.029 C 
ATOM     26  H2  non d ame     -39.647   8.822  31.014  0.00  0.00     0.036 H 
ATOM     27  H3  non d ame     -38.756   9.099  32.529  0.00  0.00     0.036 H 
ATOM     28  H4  non d ame     -38.153   9.789  31.004  0.00  0.00     0.036 H 
ENDBRANCH  21  25
ENDBRANCH  16  19
ENDBRANCH  13  15
BRANCH  13  29
ATOM     29  C8  non d ame     -33.633   3.766  27.562  0.00  0.00    -0.049 C 
ATOM     30  H7  non d ame     -33.475   3.843  26.486  0.00  0.00     0.030 H 
ATOM     31  H8  non d ame     -32.973   3.002  27.972  0.00  0.00     0.030 H 
ATOM     32  H9  non d ame     -34.671   3.493  27.758  0.00  0.00     0.030 H 
ENDBRANCH  13  29
ENDBRANCH  10  13
ENDBRANCH   7   9
BRANCH   7  33
ATOM     33  C11 non d ame     -32.596   6.267  23.385  0.00  0.00    -0.033 C 
ATOM     34  H12 non d ame     -33.351   6.841  22.848  0.00  0.00     0.042 H 
BRANCH  33  35
ATOM     35  C12 non d ame     -31.263   6.379  22.581  0.00  0.00    -0.071 C 
ATOM     36  H13 non d ame     -31.276   5.668  21.754  0.00  0.00     0.028 H 
ATOM     37  H14 non d ame     -31.159   7.390  22.189  0.00  0.00     0.028 H 
ATOM     38  H15 non d ame     -30.423   6.155  23.238  0.00  0.00     0.028 H 
ENDBRANCH  33  35
BRANCH  33  39
ATOM     39  C13 non d ame     -33.084   4.785  23.468  0.00  0.00    -0.071 C 
ATOM     40  H16 non d ame     -33.279   4.409  22.463  0.00  0.00     0.028 H 
ATOM     41  H17 non d ame     -32.314   4.175  23.942  0.00  0.00     0.028 H 
ATOM     42  H18 non d ame     -33.999   4.736  24.058  0.00  0.00     0.028 H 
ENDBRANCH  33  39
ENDBRANCH   7  33
ENDBRANCH   4   7
ENDBRANCH   1   3
BRANCH   1  43
ATOM     43  C15 non d ame     -32.086  11.763  25.261  0.00  0.00     0.240 C 
ATOM     44  O5  non d ame     -30.973  11.439  24.996  0.00  0.00    -0.271 OA
ATOM     45  N6  non d ame     -32.462  13.205  25.241  0.00  0.00    -0.355 N 
ATOM     46  H46 non d ame     -33.405  13.492  25.459  0.00  0.00     0.162 HD
BRANCH  45  47
ATOM     47  C20 non d ame     -31.446  14.223  24.898  0.00  0.00     0.013 C 
ATOM     48  H30 non d ame     -30.483  13.720  24.810  0.00  0.00     0.072 H 
BRANCH  47  49
ATOM     49  C21 non d ame     -31.387  15.260  25.997  0.00  0.00    -0.038 C 
ATOM     50  H31 non d ame     -30.433  15.771  25.870  0.00  0.00     0.036 H 
ATOM     51  H32 non d ame     -32.320  15.820  25.924  0.00  0.00     0.036 H 
BRANCH  49  52
ATOM     52  C22 non d ame     -31.363  14.636  27.410  0.00  0.00     0.018 C 
ATOM     53  H33 non d ame     -31.266  13.562  27.256  0.00  0.00     0.048 H 
ATOM     54  H34 non d ame     -30.594  15.179  27.959  0.00  0.00     0.048 H 
BRANCH  52  55
ATOM     55  C23 non d ame     -32.682  14.837  28.206  0.00  0.00     0.259 C 
ATOM     56  O7  non d ame     -32.701  14.697  29.386  0.00  0.00    -0.265 OA
BRANCH  55  57
ATOM     57  O8  non d ame     -33.872  15.179  27.507  0.00  0.00    -0.317 OA
BRANCH  57  58
ATOM     58  C29 non d ame     -34.546  16.327  28.032  0.00  0.00     0.052 C 
ATOM     59  H47 non d ame     -35.581  16.239  27.700  0.00  0.00     0.082 H 
ATOM     60  H48 non d ame     -34.316  16.343  29.097  0.00  0.00     0.082 H 
BRANCH  58  61
ATOM     61  C35 non d ame     -33.926  17.589  27.375  0.00  0.00    -0.034 A 
ATOM     62  C30 non d ame     -33.020  18.369  28.086  0.00  0.00    -0.075 A 
ATOM     63  C31 non d ame     -32.462  19.503  27.497  0.00  0.00    -0.082 A 
ATOM     64  H49 non d ame     -32.747  18.094  29.105  0.00  0.00     0.084 H 
ATOM     65  C32 non d ame     -32.816  19.857  26.192  0.00  0.00    -0.083 A 
ATOM     66  H50 non d ame     -31.751  20.112  28.056  0.00  0.00     0.083 H 
ATOM     67  C33 non d ame     -33.723  19.076  25.488  0.00  0.00    -0.082 A 
ATOM     68  H51 non d ame     -32.384  20.741  25.723  0.00  0.00     0.083 H 
ATOM     69  C34 non d ame     -34.281  17.941  26.072  0.00  0.00    -0.075 A 
ATOM     70  H52 non d ame     -33.998  19.356  24.470  0.00  0.00     0.083 H 
ATOM     71  H53 non d ame     -34.992  17.333  25.512  0.00  0.00     0.084 H 
ENDBRANCH  58  61
ENDBRANCH  57  58
ENDBRANCH  55  57
ENDBRANCH  52  55
ENDBRANCH  49  52
ENDBRANCH  47  49
BRANCH  47  72
ATOM     72  C24 non d ame     -31.815  14.898  23.579  0.00  0.00    -0.039 C 
ATOM     73  H35 non d ame     -32.783  14.481  23.301  0.00  0.00     0.036 H 
ATOM     74  H36 non d ame     -31.715  15.968  23.763  0.00  0.00     0.036 H 
BRANCH  72  75
ATOM     75  C25 non d ame     -30.784  14.521  22.412  0.00  0.00    -0.001 C 
ATOM     76  C26 non d ame     -29.357  14.029  23.063  0.00  0.00    -0.035 C 
ATOM     77  C27 non d ame     -28.350  14.729  22.486  0.00  0.00     0.085 C 
ATOM     78  H38 non d ame     -29.303  14.322  24.111  0.00  0.00     0.036 H 
ATOM     79  H39 non d ame     -29.149  12.999  22.773  0.00  0.00     0.036 H 
ATOM     80  N5  non d ame     -28.983  15.880  21.742  0.00  0.00    -0.049 N 
ATOM     81  H40 non d ame     -27.759  15.122  23.313  0.00  0.00     0.075 H 
ATOM     82  H41 non d ame     -27.896  14.048  21.768  0.00  0.00     0.075 H 
ATOM     83  C28 non d ame     -30.557  15.534  21.644  0.00  0.00     0.193 C 
ATOM     84  H42 non d ame     -28.868  16.696  22.326  0.00  0.00     0.280 HD
ATOM     85  H43 non d ame     -28.592  15.866  20.810  0.00  0.00     0.280 HD
ATOM     86  H44 non d ame     -30.988  15.175  20.709  0.00  0.00     0.129 H 
ATOM     87  H37 non d ame     -31.234  13.876  21.657  0.00  0.00     0.046 H 
BRANCH  83  88
ATOM     88  O6  non d ame     -31.335  16.674  22.011  0.00  0.00    -0.369 OA
ATOM     89  H45 non d ame     -30.753  17.417  22.185  0.00  0.00     0.212 HD
ENDBRANCH  83  88
ENDBRANCH  72  75
ENDBRANCH  47  72
ENDBRANCH  45  47
ENDBRANCH   1  43
BRANCH   1  90
ATOM     90  C16 non d ame     -33.680  10.930  27.017  0.00  0.00    -0.035 C 
ATOM     91  H21 non d ame     -33.578  12.003  27.178  0.00  0.00     0.037 H 
ATOM     92  H22 non d ame     -34.668  10.468  27.035  0.00  0.00     0.037 H 
BRANCH  90  93
ATOM     93  C17 non d ame     -32.848  10.235  28.141  0.00  0.00    -0.059 C 
ATOM     94  H23 non d ame     -32.084   9.626  27.659  0.00  0.00     0.038 H 
BRANCH  93  95
ATOM     95  C18 non d ame     -32.123  11.269  29.062  0.00  0.00    -0.073 C 
ATOM     96  H24 non d ame     -31.204  11.602  28.580  0.00  0.00     0.028 H 
ATOM     97  H25 non d ame     -32.775  12.125  29.231  0.00  0.00     0.028 H 
ATOM     98  H26 non d ame     -31.883  10.800  30.016  0.00  0.00     0.028 H 
ENDBRANCH  93  95
BRANCH  93  99
ATOM     99  C19 non d ame     -33.726   9.292  28.968  0.00  0.00    -0.073 C 
ATOM    100  H27 non d ame     -34.377   9.878  29.618  0.00  0.00     0.028 H 
ATOM    101  H28 non d ame     -34.334   8.682  28.300  0.00  0.00     0.028 H 
ATOM    102  H29 non d ame     -33.093   8.645  29.575  0.00  0.00     0.028 H 
ENDBRANCH  93  99
ENDBRANCH  90  93
ENDBRANCH   1  90
TORSDOF 26
ENDMDL
MODEL 8
REMARK VINA RESULT:      -7.0      2.504      7.255
REMARK  26 active torsions:
REMARK  status: ('A' for Active; 'I' for Inactive)
REMARK    1  A    between atoms: C2_2  and  C3_3 
REMARK    2  A    between atoms: C4_6  and  C5_7 
REMARK       I    between atoms: C5_7  and  N2_9 
REMARK    3  A    between atoms: N2_9  and  C6_10 
REMARK    4  A    between atoms: C6_10  and  C7_11 
REMARK    5  A    between atoms: C6_10  and  C8_13 
REMARK       I    between atoms: C7_11  and  N3_14 
REMARK    6  A    between atoms: N3_14  and  C9_15 
REMARK    7  A    between atoms: C9_15  and  C10_16 
REMARK    8  A    between atoms: C9_15  and  C11_18 
REMARK       I    between atoms: C10_16  and  N4_21 
REMARK    9  A    between atoms: C11_18  and  C12_19 
REMARK   10  A    between atoms: C11_18  and  C13_20 
REMARK   11  A    between atoms: N4_21  and  C14_22 
REMARK   12  A    between atoms: C14_22  and  C15_23 
REMARK   13  A    between atoms: C14_22  and  C16_25 
REMARK       I    between atoms: C15_23  and  N6_40 
REMARK   14  A    between atoms: C16_25  and  C17_26 
REMARK   15  A    between atoms: C17_26  and  C18_27 
REMARK   16  A    between atoms: C17_26  and  C19_28 
REMARK   17  A    between atoms: C20_29  and  C21_30 
REMARK   18  A    between atoms: C20_29  and  C24_33 
REMARK   19  A    between atoms: C20_29  and  N6_40 
REMARK   20  A    between atoms: C21_30  and  C22_31 
REMARK   21  A    between atoms: C22_31  and  C23_32 
REMARK   22  A    between atoms: C23_32  and  O8_43 
REMARK   23  A    between atoms: C24_33  and  C25_34 
REMARK   24  A    between atoms: C28_38  and  O6_39 
REMARK   25  A    between atoms: C29_42  and  O8_43 
REMARK   26  A    between atoms: C29_42  and  C35_49 
ROOT
ATOM      1  C14 non d ame     -35.288  14.451  26.926  0.00  0.00     0.089 C 
ATOM      2  H20 non d ame     -35.425  14.818  27.944  0.00  0.00     0.087 H 
ENDROOT
BRANCH   1   3
ATOM      3  N4  non d ame     -34.257  15.266  26.302  0.00  0.00    -0.346 N 
ATOM      4  C10 non d ame     -33.560  16.348  27.089  0.00  0.00     0.241 C 
ATOM      5  O4  non d ame     -33.848  16.545  28.223  0.00  0.00    -0.271 OA
ATOM      6  H19 non d ame     -34.027  15.084  25.335  0.00  0.00     0.163 HD
BRANCH   4   7
ATOM      7  C9  non d ame     -32.491  17.178  26.428  0.00  0.00     0.092 C 
ATOM      8  H11 non d ame     -31.613  17.211  27.072  0.00  0.00     0.088 H 
BRANCH   7   9
ATOM      9  N3  non d ame     -32.084  16.542  25.171  0.00  0.00    -0.346 N 
ATOM     10  C7  non d ame     -31.313  15.324  25.198  0.00  0.00     0.240 C 
ATOM     11  O3  non d ame     -31.010  14.843  26.221  0.00  0.00    -0.271 OA
ATOM     12  H10 non d ame     -32.337  16.947  24.281  0.00  0.00     0.163 HD
BRANCH  10  13
ATOM     13  C6  non d ame     -30.880  14.653  23.857  0.00  0.00     0.086 C 
ATOM     14  H6  non d ame     -29.810  14.735  23.671  0.00  0.00     0.086 H 
BRANCH  13  15
ATOM     15  N2  non d ame     -31.184  13.233  23.921  0.00  0.00    -0.343 N 
ATOM     16  C5  non d ame     -30.410  12.293  23.107  0.00  0.00     0.273 C 
ATOM     17  O2  non d ame     -29.548  12.689  22.402  0.00  0.00    -0.266 OA
ATOM     18  H5  non d ame     -31.924  12.903  24.524  0.00  0.00     0.163 HD
BRANCH  16  19
ATOM     19  C4  non d ame     -30.719  10.788  23.166  0.00  0.00     0.154 A 
ATOM     20  C1  non d ame     -29.986   9.730  22.540  0.00  0.00    -0.017 A 
ATOM     21  C2  non d ame     -30.674   8.550  22.900  0.00  0.00     0.077 A 
ATOM     22  H1  non d ame     -29.093   9.807  21.920  0.00  0.00     0.091 H 
ATOM     23  O1  non d ame     -31.681   8.900  23.646  0.00  0.00    -0.218 OA
ATOM     24  N1  non d ame     -31.728  10.201  23.815  0.00  0.00    -0.123 NA
BRANCH  21  25
ATOM     25  C3  non d ame     -30.304   7.130  22.491  0.00  0.00    -0.029 C 
ATOM     26  H2  non d ame     -29.671   7.161  21.605  0.00  0.00     0.036 H 
ATOM     27  H3  non d ame     -29.765   6.647  23.306  0.00  0.00     0.036 H 
ATOM     28  H4  non d ame     -31.211   6.567  22.271  0.00  0.00     0.036 H 
ENDBRANCH  21  25
ENDBRANCH  16  19
ENDBRANCH  13  15
BRANCH  13  29
ATOM     29  C8  non d ame     -31.625  15.289  22.710  0.00  0.00    -0.049 C 
ATOM     30  H7  non d ame     -30.970  15.996  22.200  0.00  0.00     0.030 H 
ATOM     31  H8  non d ame     -31.941  14.516  22.010  0.00  0.00     0.030 H 
ATOM     32  H9  non d ame     -32.500  15.814  23.092  0.00  0.00     0.030 H 
ENDBRANCH  13  29
ENDBRANCH  10  13
ENDBRANCH   7   9
BRANCH   7  33
ATOM     33  C11 non d ame     -33.050  18.600  26.129  0.00  0.00    -0.033 C 
ATOM     34  H12 non d ame     -32.537  18.976  25.244  0.00  0.00     0.042 H 
BRANCH  33  35
ATOM     35  C12 non d ame     -34.576  18.554  25.801  0.00  0.00    -0.071 C 
ATOM     36  H13 non d ame     -34.910  19.543  25.486  0.00  0.00     0.028 H 
ATOM     37  H14 non d ame     -34.753  17.838  24.999  0.00  0.00     0.028 H 
ATOM     38  H15 non d ame     -35.129  18.250  26.689  0.00  0.00     0.028 H 
ENDBRANCH  33  35
BRANCH  33  39
ATOM     39  C13 non d ame     -32.755  19.578  27.311  0.00  0.00    -0.071 C 
ATOM     40  H16 non d ame     -31.721  19.919  27.251  0.00  0.00     0.028 H 
ATOM     41  H17 non d ame     -33.425  20.436  27.250  0.00  0.00     0.028 H 
ATOM     42  H18 non d ame     -32.913  19.061  28.258  0.00  0.00     0.028 H 
ENDBRANCH  33  39
ENDBRANCH   7  33
ENDBRANCH   4   7
ENDBRANCH   1   3
BRANCH   1  43
ATOM     43  C15 non d ame     -34.830  12.965  26.896  0.00  0.00     0.240 C 
ATOM     44  O5  non d ame     -34.531  12.459  25.862  0.00  0.00    -0.271 OA
ATOM     45  N6  non d ame     -34.755  12.173  28.157  0.00  0.00    -0.355 N 
ATOM     46  H46 non d ame     -35.002  12.593  29.041  0.00  0.00     0.162 HD
BRANCH  45  47
ATOM     47  C20 non d ame     -34.317  10.761  28.111  0.00  0.00     0.013 C 
ATOM     48  H30 non d ame     -34.049  10.527  27.081  0.00  0.00     0.072 H 
BRANCH  47  49
ATOM     49  C21 non d ame     -35.451   9.871  28.566  0.00  0.00    -0.038 C 
ATOM     50  H31 non d ame     -36.358  10.317  28.157  0.00  0.00     0.036 H 
ATOM     51  H32 non d ame     -35.164   8.859  28.278  0.00  0.00     0.036 H 
BRANCH  49  52
ATOM     52  C22 non d ame     -35.624   9.857  30.100  0.00  0.00     0.018 C 
ATOM     53  H33 non d ame     -34.884  10.556  30.487  0.00  0.00     0.048 H 
ATOM     54  H34 non d ame     -36.685  10.031  30.279  0.00  0.00     0.048 H 
BRANCH  52  55
ATOM     55  C23 non d ame     -35.299   8.485  30.754  0.00  0.00     0.259 C 
ATOM     56  O7  non d ame     -34.601   8.424  31.713  0.00  0.00    -0.265 OA
BRANCH  55  57
ATOM     57  O8  non d ame     -35.837   7.297  30.185  0.00  0.00    -0.317 OA
BRANCH  57  58
ATOM     58  C29 non d ame     -35.850   6.178  31.076  0.00  0.00     0.052 C 
ATOM     59  H47 non d ame     -35.697   6.593  32.073  0.00  0.00     0.082 H 
ATOM     60  H48 non d ame     -36.764   5.630  30.849  0.00  0.00     0.082 H 
BRANCH  58  61
ATOM     61  C35 non d ame     -34.636   5.275  30.729  0.00  0.00    -0.034 A 
ATOM     62  C30 non d ame     -34.258   5.097  29.402  0.00  0.00    -0.075 A 
ATOM     63  C31 non d ame     -33.169   4.286  29.089  0.00  0.00    -0.082 A 
ATOM     64  H49 non d ame     -34.816   5.593  28.607  0.00  0.00     0.084 H 
ATOM     65  C32 non d ame     -32.457   3.649  30.110  0.00  0.00    -0.083 A 
ATOM     66  H50 non d ame     -32.874   4.149  28.048  0.00  0.00     0.083 H 
ATOM     67  C33 non d ame     -32.841   3.827  31.432  0.00  0.00    -0.082 A 
ATOM     68  H51 non d ame     -31.604   3.013  29.874  0.00  0.00     0.083 H 
ATOM     69  C34 non d ame     -33.928   4.639  31.749  0.00  0.00    -0.075 A 
ATOM     70  H52 non d ame     -32.285   3.327  32.226  0.00  0.00     0.083 H 
ATOM     71  H53 non d ame     -34.222   4.774  32.790  0.00  0.00     0.084 H 
ENDBRANCH  58  61
ENDBRANCH  57  58
ENDBRANCH  55  57
ENDBRANCH  52  55
ENDBRANCH  49  52
ENDBRANCH  47  49
BRANCH  47  72
ATOM     72  C24 non d ame     -33.114  10.564  29.031  0.00  0.00    -0.039 C 
ATOM     73  H35 non d ame     -33.490   9.998  29.883  0.00  0.00     0.036 H 
ATOM     74  H36 non d ame     -32.332  10.143  28.399  0.00  0.00     0.036 H 
BRANCH  72  75
ATOM     75  C25 non d ame     -32.565  11.959  29.596  0.00  0.00    -0.001 C 
ATOM     76  C26 non d ame     -31.204  12.396  28.783  0.00  0.00    -0.035 C 
ATOM     77  C27 non d ame     -30.233  12.686  29.681  0.00  0.00     0.085 C 
ATOM     78  H38 non d ame     -30.802  11.540  28.240  0.00  0.00     0.036 H 
ATOM     79  H39 non d ame     -31.364  13.342  28.266  0.00  0.00     0.036 H 
ATOM     80  N5  non d ame     -30.704  12.173  31.021  0.00  0.00    -0.049 N 
ATOM     81  H40 non d ame     -29.363  12.110  29.366  0.00  0.00     0.075 H 
ATOM     82  H41 non d ame     -30.183  13.773  29.715  0.00  0.00     0.075 H 
ATOM     83  C28 non d ame     -32.281  11.875  30.853  0.00  0.00     0.193 C 
ATOM     84  H42 non d ame     -30.226  11.297  31.177  0.00  0.00     0.280 HD
ATOM     85  H43 non d ame     -30.588  12.935  31.675  0.00  0.00     0.280 HD
ATOM     86  H44 non d ame     -33.021  12.559  31.269  0.00  0.00     0.129 H 
ATOM     87  H37 non d ame     -33.352  12.708  29.683  0.00  0.00     0.046 H 
BRANCH  83  88
ATOM     88  O6  non d ame     -32.601  10.592  31.393  0.00  0.00    -0.369 OA
ATOM     89  H45 non d ame     -33.327  10.208  30.897  0.00  0.00     0.212 HD
ENDBRANCH  83  88
ENDBRANCH  72  75
ENDBRANCH  47  72
ENDBRANCH  45  47
ENDBRANCH   1  43
BRANCH   1  90
ATOM     90  C16 non d ame     -36.582  14.603  26.144  0.00  0.00    -0.035 C 
ATOM     91  H21 non d ame     -36.370  14.204  25.153  0.00  0.00     0.037 H 
ATOM     92  H22 non d ame     -37.350  14.142  26.765  0.00  0.00     0.037 H 
BRANCH  90  93
ATOM     93  C17 non d ame     -37.017  16.089  25.936  0.00  0.00    -0.059 C 
ATOM     94  H23 non d ame     -36.139  16.648  25.613  0.00  0.00     0.038 H 
BRANCH  93  95
ATOM     95  C18 non d ame     -38.109  16.234  24.827  0.00  0.00    -0.073 C 
ATOM     96  H24 non d ame     -38.061  15.377  24.156  0.00  0.00     0.028 H 
ATOM     97  H25 non d ame     -39.094  16.277  25.291  0.00  0.00     0.028 H 
ATOM     98  H26 non d ame     -37.933  17.148  24.262  0.00  0.00     0.028 H 
ENDBRANCH  93  95
BRANCH  93  99
ATOM     99  C19 non d ame     -37.492  16.709  27.252  0.00  0.00    -0.073 C 
ATOM    100  H27 non d ame     -36.870  17.572  27.493  0.00  0.00     0.028 H 
ATOM    101  H28 non d ame     -38.530  17.027  27.151  0.00  0.00     0.028 H 
ATOM    102  H29 non d ame     -37.416  15.971  28.050  0.00  0.00     0.028 H 
ENDBRANCH  93  99
ENDBRANCH  90  93
ENDBRANCH   1  90
TORSDOF 26
ENDMDL
MODEL 9
REMARK VINA RESULT:      -7.0      3.261      8.616
REMARK  26 active torsions:
REMARK  status: ('A' for Active; 'I' for Inactive)
REMARK    1  A    between atoms: C2_2  and  C3_3 
REMARK    2  A    between atoms: C4_6  and  C5_7 
REMARK       I    between atoms: C5_7  and  N2_9 
REMARK    3  A    between atoms: N2_9  and  C6_10 
REMARK    4  A    between atoms: C6_10  and  C7_11 
REMARK    5  A    between atoms: C6_10  and  C8_13 
REMARK       I    between atoms: C7_11  and  N3_14 
REMARK    6  A    between atoms: N3_14  and  C9_15 
REMARK    7  A    between atoms: C9_15  and  C10_16 
REMARK    8  A    between atoms: C9_15  and  C11_18 
REMARK       I    between atoms: C10_16  and  N4_21 
REMARK    9  A    between atoms: C11_18  and  C12_19 
REMARK   10  A    between atoms: C11_18  and  C13_20 
REMARK   11  A    between atoms: N4_21  and  C14_22 
REMARK   12  A    between atoms: C14_22  and  C15_23 
REMARK   13  A    between atoms: C14_22  and  C16_25 
REMARK       I    between atoms: C15_23  and  N6_40 
REMARK   14  A    between atoms: C16_25  and  C17_26 
REMARK   15  A    between atoms: C17_26  and  C18_27 
REMARK   16  A    between atoms: C17_26  and  C19_28 
REMARK   17  A    between atoms: C20_29  and  C21_30 
REMARK   18  A    between atoms: C20_29  and  C24_33 
REMARK   19  A    between atoms: C20_29  and  N6_40 
REMARK   20  A    between atoms: C21_30  and  C22_31 
REMARK   21  A    between atoms: C22_31  and  C23_32 
REMARK   22  A    between atoms: C23_32  and  O8_43 
REMARK   23  A    between atoms: C24_33  and  C25_34 
REMARK   24  A    between atoms: C28_38  and  O6_39 
REMARK   25  A    between atoms: C29_42  and  O8_43 
REMARK   26  A    between atoms: C29_42  and  C35_49 
ROOT
ATOM      1  C14 non d ame     -35.107   8.097  29.135  0.00  0.00     0.089 C 
ATOM      2  H20 non d ame     -35.017   7.164  29.692  0.00  0.00     0.087 H 
ENDROOT
BRANCH   1   3
ATOM      3  N4  non d ame     -33.876   8.847  29.334  0.00  0.00    -0.346 N 
ATOM      4  C10 non d ame     -33.734  10.241  28.776  0.00  0.00     0.241 C 
ATOM      5  O4  non d ame     -34.624  10.737  28.168  0.00  0.00    -0.271 OA
ATOM      6  H19 non d ame     -33.129   8.406  29.852  0.00  0.00     0.163 HD
BRANCH   4   7
ATOM      7  C9  non d ame     -32.454  11.004  28.995  0.00  0.00     0.092 C 
ATOM      8  H11 non d ame     -31.646  10.512  28.455  0.00  0.00     0.088 H 
BRANCH   7   9
ATOM      9  N3  non d ame     -32.589  12.354  28.439  0.00  0.00    -0.346 N 
ATOM     10  C7  non d ame     -31.759  12.763  27.332  0.00  0.00     0.240 C 
ATOM     11  O3  non d ame     -30.978  12.019  26.877  0.00  0.00    -0.271 OA
ATOM     12  H10 non d ame     -33.257  13.007  28.821  0.00  0.00     0.163 HD
BRANCH  10  13
ATOM     13  C6  non d ame     -31.905  14.202  26.746  0.00  0.00     0.086 C 
ATOM     14  H6  non d ame     -31.326  14.942  27.298  0.00  0.00     0.086 H 
BRANCH  13  15
ATOM     15  N2  non d ame     -31.398  14.209  25.384  0.00  0.00    -0.343 N 
ATOM     16  C5  non d ame     -31.027  15.481  24.759  0.00  0.00     0.273 C 
ATOM     17  O2  non d ame     -31.143  16.493  25.360  0.00  0.00    -0.266 OA
ATOM     18  H5  non d ame     -31.305  13.341  24.877  0.00  0.00     0.163 HD
BRANCH  16  19
ATOM     19  C4  non d ame     -30.489  15.504  23.320  0.00  0.00     0.154 A 
ATOM     20  C1  non d ame     -31.241  15.699  22.119  0.00  0.00    -0.017 A 
ATOM     21  C2  non d ame     -30.287  15.634  21.078  0.00  0.00     0.077 A 
ATOM     22  H1  non d ame     -32.314  15.862  22.017  0.00  0.00     0.091 H 
ATOM     23  O1  non d ame     -29.127  15.427  21.629  0.00  0.00    -0.218 OA
ATOM     24  N1  non d ame     -29.219  15.348  22.936  0.00  0.00    -0.123 NA
BRANCH  21  25
ATOM     25  C3  non d ame     -30.567  15.779  19.588  0.00  0.00    -0.029 C 
ATOM     26  H2  non d ame     -31.230  16.628  19.424  0.00  0.00     0.036 H 
ATOM     27  H3  non d ame     -29.629  15.943  19.057  0.00  0.00     0.036 H 
ATOM     28  H4  non d ame     -31.041  14.871  19.217  0.00  0.00     0.036 H 
ENDBRANCH  21  25
ENDBRANCH  16  19
ENDBRANCH  13  15
BRANCH  13  29
ATOM     29  C8  non d ame     -33.356  14.608  26.759  0.00  0.00    -0.049 C 
ATOM     30  H7  non d ame     -33.717  14.634  27.788  0.00  0.00     0.030 H 
ATOM     31  H8  non d ame     -33.461  15.597  26.313  0.00  0.00     0.030 H 
ATOM     32  H9  non d ame     -33.941  13.888  26.187  0.00  0.00     0.030 H 
ENDBRANCH  13  29
ENDBRANCH  10  13
ENDBRANCH   7   9
BRANCH   7  33
ATOM     33  C11 non d ame     -32.164  11.102  30.521  0.00  0.00    -0.033 C 
ATOM     34  H12 non d ame     -31.888  10.106  30.868  0.00  0.00     0.042 H 
BRANCH  33  35
ATOM     35  C12 non d ame     -30.959  12.050  30.811  0.00  0.00    -0.071 C 
ATOM     36  H13 non d ame     -31.207  12.709  31.644  0.00  0.00     0.028 H 
ATOM     37  H14 non d ame     -30.082  11.456  31.067  0.00  0.00     0.028 H 
ATOM     38  H15 non d ame     -30.747  12.649  29.926  0.00  0.00     0.028 H 
ENDBRANCH  33  35
BRANCH  33  39
ATOM     39  C13 non d ame     -33.439  11.550  31.306  0.00  0.00    -0.071 C 
ATOM     40  H16 non d ame     -34.262  11.698  30.607  0.00  0.00     0.028 H 
ATOM     41  H17 non d ame     -33.710  10.780  32.029  0.00  0.00     0.028 H 
ATOM     42  H18 non d ame     -33.234  12.483  31.830  0.00  0.00     0.028 H 
ENDBRANCH  33  39
ENDBRANCH   7  33
ENDBRANCH   4   7
ENDBRANCH   1   3
BRANCH   1  43
ATOM     43  C15 non d ame     -35.300   7.855  27.611  0.00  0.00     0.240 C 
ATOM     44  O5  non d ame     -36.295   8.222  27.075  0.00  0.00    -0.271 OA
ATOM     45  N6  non d ame     -34.238   7.174  26.816  0.00  0.00    -0.355 N 
ATOM     46  H46 non d ame     -33.386   6.862  27.259  0.00  0.00     0.162 HD
BRANCH  45  47
ATOM     47  C20 non d ame     -34.436   6.952  25.367  0.00  0.00     0.013 C 
ATOM     48  H30 non d ame     -35.234   7.615  25.033  0.00  0.00     0.072 H 
BRANCH  47  49
ATOM     49  C21 non d ame     -34.828   5.511  25.131  0.00  0.00    -0.038 C 
ATOM     50  H31 non d ame     -35.828   5.545  24.697  0.00  0.00     0.036 H 
ATOM     51  H32 non d ame     -34.004   5.070  24.570  0.00  0.00     0.036 H 
BRANCH  49  52
ATOM     52  C22 non d ame     -34.949   4.701  26.440  0.00  0.00     0.018 C 
ATOM     53  H33 non d ame     -34.769   5.412  27.245  0.00  0.00     0.048 H 
ATOM     54  H34 non d ame     -35.903   4.177  26.376  0.00  0.00     0.048 H 
BRANCH  52  55
ATOM     55  C23 non d ame     -33.865   3.597  26.595  0.00  0.00     0.259 C 
ATOM     56  O7  non d ame     -33.465   3.007  25.644  0.00  0.00    -0.265 OA
BRANCH  55  57
ATOM     57  O8  non d ame     -33.364   3.290  27.890  0.00  0.00    -0.317 OA
BRANCH  57  58
ATOM     58  C29 non d ame     -32.834   4.418  28.592  0.00  0.00     0.052 C 
ATOM     59  H47 non d ame     -31.756   4.383  28.435  0.00  0.00     0.082 H 
ATOM     60  H48 non d ame     -33.408   5.277  28.246  0.00  0.00     0.082 H 
BRANCH  58  61
ATOM     61  C35 non d ame     -33.116   4.216  30.105  0.00  0.00    -0.034 A 
ATOM     62  C30 non d ame     -32.323   3.353  30.853  0.00  0.00    -0.075 A 
ATOM     63  C31 non d ame     -32.576   3.171  32.211  0.00  0.00    -0.082 A 
ATOM     64  H49 non d ame     -31.502   2.817  30.374  0.00  0.00     0.084 H 
ATOM     65  C32 non d ame     -33.631   3.856  32.822  0.00  0.00    -0.083 A 
ATOM     66  H50 non d ame     -31.951   2.495  32.795  0.00  0.00     0.083 H 
ATOM     67  C33 non d ame     -34.422   4.714  32.071  0.00  0.00    -0.082 A 
ATOM     68  H51 non d ame     -33.835   3.720  33.884  0.00  0.00     0.083 H 
ATOM     69  C34 non d ame     -34.171   4.900  30.713  0.00  0.00    -0.075 A 
ATOM     70  H52 non d ame     -35.245   5.245  32.549  0.00  0.00     0.083 H 
ATOM     71  H53 non d ame     -34.796   5.576  30.130  0.00  0.00     0.084 H 
ENDBRANCH  58  61
ENDBRANCH  57  58
ENDBRANCH  55  57
ENDBRANCH  52  55
ENDBRANCH  49  52
ENDBRANCH  47  49
BRANCH  47  72
ATOM     72  C24 non d ame     -33.142   7.258  24.617  0.00  0.00    -0.039 C 
ATOM     73  H35 non d ame     -32.338   7.014  25.312  0.00  0.00     0.036 H 
ATOM     74  H36 non d ame     -33.223   6.724  23.670  0.00  0.00     0.036 H 
BRANCH  72  75
ATOM     75  C25 non d ame     -33.011   8.817  24.271  0.00  0.00    -0.001 C 
ATOM     76  C26 non d ame     -32.299   9.007  22.801  0.00  0.00    -0.035 C 
ATOM     77  C27 non d ame     -31.267   9.875  22.925  0.00  0.00     0.085 C 
ATOM     78  H38 non d ame     -31.816   8.079  22.497  0.00  0.00     0.036 H 
ATOM     79  H39 non d ame     -32.980   9.517  22.119  0.00  0.00     0.036 H 
ATOM     80  N5  non d ame     -31.005  10.042  24.403  0.00  0.00    -0.049 N 
ATOM     81  H40 non d ame     -30.412   9.378  22.466  0.00  0.00     0.075 H 
ATOM     82  H41 non d ame     -31.630  10.819  22.521  0.00  0.00     0.075 H 
ATOM     83  C28 non d ame     -32.298   9.433  25.154  0.00  0.00     0.193 C 
ATOM     84  H42 non d ame     -30.206   9.463  24.619  0.00  0.00     0.280 HD
ATOM     85  H43 non d ame     -30.971  11.036  24.576  0.00  0.00     0.280 HD
ATOM     86  H44 non d ame     -33.048  10.094  25.588  0.00  0.00     0.129 H 
ATOM     87  H37 non d ame     -33.941   9.358  24.445  0.00  0.00     0.046 H 
BRANCH  83  88
ATOM     88  O6  non d ame     -31.890   8.569  26.216  0.00  0.00    -0.369 OA
ATOM     89  H45 non d ame     -31.107   8.930  26.639  0.00  0.00     0.212 HD
ENDBRANCH  83  88
ENDBRANCH  72  75
ENDBRANCH  47  72
ENDBRANCH  45  47
ENDBRANCH   1  43
BRANCH   1  90
ATOM     90  C16 non d ame     -36.274   8.908  29.676  0.00  0.00    -0.035 C 
ATOM     91  H21 non d ame     -35.877   9.909  29.845  0.00  0.00     0.037 H 
ATOM     92  H22 non d ame     -37.085   8.757  28.963  0.00  0.00     0.037 H 
BRANCH  90  93
ATOM     93  C17 non d ame     -36.801   8.404  31.057  0.00  0.00    -0.059 C 
ATOM     94  H23 non d ame     -37.668   9.009  31.321  0.00  0.00     0.038 H 
BRANCH  93  95
ATOM     95  C18 non d ame     -37.259   6.912  31.004  0.00  0.00    -0.073 C 
ATOM     96  H24 non d ame     -38.348   6.865  31.013  0.00  0.00     0.028 H 
ATOM     97  H25 non d ame     -36.884   6.448  30.093  0.00  0.00     0.028 H 
ATOM     98  H26 non d ame     -36.866   6.380  31.871  0.00  0.00     0.028 H 
ENDBRANCH  93  95
BRANCH  93  99
ATOM     99  C19 non d ame     -35.751   8.613  32.152  0.00  0.00    -0.073 C 
ATOM    100  H27 non d ame     -36.121   8.206  33.093  0.00  0.00     0.028 H 
ATOM    101  H28 non d ame     -34.828   8.103  31.873  0.00  0.00     0.028 H 
ATOM    102  H29 non d ame     -35.554   9.679  32.268  0.00  0.00     0.028 H 
ENDBRANCH  93  99
ENDBRANCH  90  93
ENDBRANCH   1  90
TORSDOF 26
ENDMDL
MODEL 10
REMARK VINA RESULT:      -6.9      2.256      5.037
REMARK  26 active torsions:
REMARK  status: ('A' for Active; 'I' for Inactive)
REMARK    1  A    between atoms: C2_2  and  C3_3 
REMARK    2  A    between atoms: C4_6  and  C5_7 
REMARK       I    between atoms: C5_7  and  N2_9 
REMARK    3  A    between atoms: N2_9  and  C6_10 
REMARK    4  A    between atoms: C6_10  and  C7_11 
REMARK    5  A    between atoms: C6_10  and  C8_13 
REMARK       I    between atoms: C7_11  and  N3_14 
REMARK    6  A    between atoms: N3_14  and  C9_15 
REMARK    7  A    between atoms: C9_15  and  C10_16 
REMARK    8  A    between atoms: C9_15  and  C11_18 
REMARK       I    between atoms: C10_16  and  N4_21 
REMARK    9  A    between atoms: C11_18  and  C12_19 
REMARK   10  A    between atoms: C11_18  and  C13_20 
REMARK   11  A    between atoms: N4_21  and  C14_22 
REMARK   12  A    between atoms: C14_22  and  C15_23 
REMARK   13  A    between atoms: C14_22  and  C16_25 
REMARK       I    between atoms: C15_23  and  N6_40 
REMARK   14  A    between atoms: C16_25  and  C17_26 
REMARK   15  A    between atoms: C17_26  and  C18_27 
REMARK   16  A    between atoms: C17_26  and  C19_28 
REMARK   17  A    between atoms: C20_29  and  C21_30 
REMARK   18  A    between atoms: C20_29  and  C24_33 
REMARK   19  A    between atoms: C20_29  and  N6_40 
REMARK   20  A    between atoms: C21_30  and  C22_31 
REMARK   21  A    between atoms: C22_31  and  C23_32 
REMARK   22  A    between atoms: C23_32  and  O8_43 
REMARK   23  A    between atoms: C24_33  and  C25_34 
REMARK   24  A    between atoms: C28_38  and  O6_39 
REMARK   25  A    between atoms: C29_42  and  O8_43 
REMARK   26  A    between atoms: C29_42  and  C35_49 
ROOT
ATOM      1  C14 non d ame     -31.024  14.637  23.749  0.00  0.00     0.089 C 
ATOM      2  H20 non d ame     -29.938  14.677  23.833  0.00  0.00     0.087 H 
ENDROOT
BRANCH   1   3
ATOM      3  N4  non d ame     -31.440  13.282  24.081  0.00  0.00    -0.346 N 
ATOM      4  C10 non d ame     -30.685  12.098  23.532  0.00  0.00     0.241 C 
ATOM      5  O4  non d ame     -29.747  12.261  22.822  0.00  0.00    -0.271 OA
ATOM      6  H19 non d ame     -32.241  13.165  24.685  0.00  0.00     0.163 HD
BRANCH   4   7
ATOM      7  C9  non d ame     -31.125  10.703  23.890  0.00  0.00     0.092 C 
ATOM      8  H11 non d ame     -30.564  10.362  24.760  0.00  0.00     0.088 H 
BRANCH   7   9
ATOM      9  N3  non d ame     -32.541  10.719  24.267  0.00  0.00    -0.346 N 
ATOM     10  C7  non d ame     -32.921  10.560  25.650  0.00  0.00     0.240 C 
ATOM     11  O3  non d ame     -32.099  10.417  26.471  0.00  0.00    -0.271 OA
ATOM     12  H10 non d ame     -33.262  10.840  23.570  0.00  0.00     0.163 HD
BRANCH  10  13
ATOM     13  C6  non d ame     -34.430  10.575  26.045  0.00  0.00     0.086 C 
ATOM     14  H6  non d ame     -34.585  10.721  27.114  0.00  0.00     0.086 H 
BRANCH  13  15
ATOM     15  N2  non d ame     -35.082  11.688  25.374  0.00  0.00    -0.343 N 
ATOM     16  C5  non d ame     -35.268  12.952  26.090  0.00  0.00     0.273 C 
ATOM     17  O2  non d ame     -34.893  13.062  27.205  0.00  0.00    -0.266 OA
ATOM     18  H5  non d ame     -35.402  11.583  24.422  0.00  0.00     0.163 HD
BRANCH  16  19
ATOM     19  C4  non d ame     -35.954  14.137  25.393  0.00  0.00     0.154 A 
ATOM     20  C1  non d ame     -37.358  14.323  25.184  0.00  0.00    -0.017 A 
ATOM     21  C2  non d ame     -37.464  15.557  24.506  0.00  0.00     0.077 A 
ATOM     22  H1  non d ame     -38.174  13.663  25.480  0.00  0.00     0.091 H 
ATOM     23  O1  non d ame     -36.258  16.018  24.349  0.00  0.00    -0.218 OA
ATOM     24  N1  non d ame     -35.360  15.207  24.858  0.00  0.00    -0.123 NA
BRANCH  21  25
ATOM     25  C3  non d ame     -38.753  16.224  24.044  0.00  0.00    -0.029 C 
ATOM     26  H2  non d ame     -39.550  16.005  24.753  0.00  0.00     0.036 H 
ATOM     27  H3  non d ame     -38.604  17.302  23.988  0.00  0.00     0.036 H 
ATOM     28  H4  non d ame     -39.027  15.844  23.060  0.00  0.00     0.036 H 
ENDBRANCH  21  25
ENDBRANCH  16  19
ENDBRANCH  13  15
BRANCH  13  29
ATOM     29  C8  non d ame     -35.073   9.275  25.633  0.00  0.00    -0.049 C 
ATOM     30  H7  non d ame     -34.602   8.451  26.168  0.00  0.00     0.030 H 
ATOM     31  H8  non d ame     -36.136   9.304  25.872  0.00  0.00     0.030 H 
ATOM     32  H9  non d ame     -34.946   9.131  24.559  0.00  0.00     0.030 H 
ENDBRANCH  13  29
ENDBRANCH  10  13
ENDBRANCH   7   9
BRANCH   7  33
ATOM     33  C11 non d ame     -30.929   9.766  22.662  0.00  0.00    -0.033 C 
ATOM     34  H12 non d ame     -30.816  10.398  21.781  0.00  0.00     0.042 H 
BRANCH  33  35
ATOM     35  C12 non d ame     -29.627   8.915  22.799  0.00  0.00    -0.071 C 
ATOM     36  H13 non d ame     -29.096   8.908  21.847  0.00  0.00     0.028 H 
ATOM     37  H14 non d ame     -28.989   9.349  23.568  0.00  0.00     0.028 H 
ATOM     38  H15 non d ame     -29.889   7.894  23.076  0.00  0.00     0.028 H 
ENDBRANCH  33  35
BRANCH  33  39
ATOM     39  C13 non d ame     -32.180   8.856  22.447  0.00  0.00    -0.071 C 
ATOM     40  H16 non d ame     -32.497   8.442  23.405  0.00  0.00     0.028 H 
ATOM     41  H17 non d ame     -32.991   9.448  22.021  0.00  0.00     0.028 H 
ATOM     42  H18 non d ame     -31.927   8.044  21.765  0.00  0.00     0.028 H 
ENDBRANCH  33  39
ENDBRANCH   7  33
ENDBRANCH   4   7
ENDBRANCH   1   3
BRANCH   1  43
ATOM     43  C15 non d ame     -31.725  15.623  24.727  0.00  0.00     0.240 C 
ATOM     44  O5  non d ame     -31.958  16.735  24.378  0.00  0.00    -0.271 OA
ATOM     45  N6  non d ame     -32.113  15.178  26.096  0.00  0.00    -0.355 N 
ATOM     46  H46 non d ame     -31.925  14.235  26.402  0.00  0.00     0.162 HD
BRANCH  45  47
ATOM     47  C20 non d ame     -32.780  16.128  27.013  0.00  0.00     0.013 C 
ATOM     48  H30 non d ame     -33.794  16.290  26.649  0.00  0.00     0.072 H 
BRANCH  47  49
ATOM     49  C21 non d ame     -32.019  17.434  27.020  0.00  0.00    -0.038 C 
ATOM     50  H31 non d ame     -31.165  17.274  27.679  0.00  0.00     0.036 H 
ATOM     51  H32 non d ame     -31.860  17.688  25.972  0.00  0.00     0.036 H 
BRANCH  49  52
ATOM     52  C22 non d ame     -32.829  18.597  27.633  0.00  0.00     0.018 C 
ATOM     53  H33 non d ame     -33.736  18.145  28.035  0.00  0.00     0.048 H 
ATOM     54  H34 non d ame     -32.140  19.120  28.297  0.00  0.00     0.048 H 
BRANCH  52  55
ATOM     55  C23 non d ame     -33.301  19.649  26.590  0.00  0.00     0.259 C 
ATOM     56  O7  non d ame     -32.548  20.065  25.771  0.00  0.00    -0.265 OA
BRANCH  55  57
ATOM     57  O8  non d ame     -34.643  20.120  26.634  0.00  0.00    -0.317 OA
BRANCH  57  58
ATOM     58  C29 non d ame     -35.497  19.535  25.648  0.00  0.00     0.052 C 
ATOM     59  H47 non d ame     -35.901  20.369  25.074  0.00  0.00     0.082 H 
ATOM     60  H48 non d ame     -34.897  18.772  25.151  0.00  0.00     0.082 H 
BRANCH  58  61
ATOM     61  C35 non d ame     -36.669  18.833  26.385  0.00  0.00    -0.034 A 
ATOM     62  C30 non d ame     -37.978  19.252  26.169  0.00  0.00    -0.075 A 
ATOM     63  C31 non d ame     -39.031  18.622  26.832  0.00  0.00    -0.082 A 
ATOM     64  H49 non d ame     -38.180  20.074  25.482  0.00  0.00     0.084 H 
ATOM     65  C32 non d ame     -38.770  17.571  27.715  0.00  0.00    -0.083 A 
ATOM     66  H50 non d ame     -40.056  18.952  26.660  0.00  0.00     0.083 H 
ATOM     67  C33 non d ame     -37.462  17.159  27.929  0.00  0.00    -0.082 A 
ATOM     68  H51 non d ame     -39.587  17.072  28.236  0.00  0.00     0.083 H 
ATOM     69  C34 non d ame     -36.407  17.784  27.268  0.00  0.00    -0.075 A 
ATOM     70  H52 non d ame     -37.262  16.340  28.621  0.00  0.00     0.083 H 
ATOM     71  H53 non d ame     -35.382  17.454  27.441  0.00  0.00     0.084 H 
ENDBRANCH  58  61
ENDBRANCH  57  58
ENDBRANCH  55  57
ENDBRANCH  52  55
ENDBRANCH  49  52
ENDBRANCH  47  49
BRANCH  47  72
ATOM     72  C24 non d ame     -32.810  15.547  28.425  0.00  0.00    -0.039 C 
ATOM     73  H35 non d ame     -32.785  16.408  29.094  0.00  0.00     0.036 H 
ATOM     74  H36 non d ame     -33.664  14.869  28.442  0.00  0.00     0.036 H 
BRANCH  72  75
ATOM     75  C25 non d ame     -31.505  14.672  28.734  0.00  0.00    -0.001 C 
ATOM     76  C26 non d ame     -31.929  13.102  28.981  0.00  0.00    -0.035 C 
ATOM     77  C27 non d ame     -31.380  12.680  30.146  0.00  0.00     0.085 C 
ATOM     78  H38 non d ame     -33.000  13.029  29.164  0.00  0.00     0.036 H 
ATOM     79  H39 non d ame     -31.458  12.465  28.232  0.00  0.00     0.036 H 
ATOM     80  N5  non d ame     -30.894  13.909  30.876  0.00  0.00    -0.049 N 
ATOM     81  H40 non d ame     -32.199  12.233  30.708  0.00  0.00     0.075 H 
ATOM     82  H41 non d ame     -30.520  12.074  29.860  0.00  0.00     0.075 H 
ATOM     83  C28 non d ame     -30.892  15.101  29.786  0.00  0.00     0.193 C 
ATOM     84  H42 non d ame     -31.588  14.117  31.579  0.00  0.00     0.280 HD
ATOM     85  H43 non d ame     -29.940  13.721  31.148  0.00  0.00     0.280 HD
ATOM     86  H44 non d ame     -29.957  15.446  29.345  0.00  0.00     0.129 H 
ATOM     87  H37 non d ame     -30.702  14.862  28.021  0.00  0.00     0.046 H 
BRANCH  83  88
ATOM     88  O6  non d ame     -31.510  16.268  30.332  0.00  0.00    -0.369 OA
ATOM     89  H45 non d ame     -32.349  16.028  30.732  0.00  0.00     0.212 HD
ENDBRANCH  83  88
ENDBRANCH  72  75
ENDBRANCH  47  72
ENDBRANCH  45  47
ENDBRANCH   1  43
BRANCH   1  90
ATOM     90  C16 non d ame     -31.443  14.949  22.321  0.00  0.00    -0.035 C 
ATOM     91  H21 non d ame     -32.047  14.099  22.006  0.00  0.00     0.037 H 
ATOM     92  H22 non d ame     -31.883  15.946  22.361  0.00  0.00     0.037 H 
BRANCH  90  93
ATOM     93  C17 non d ame     -30.246  15.033  21.322  0.00  0.00    -0.059 C 
ATOM     94  H23 non d ame     -30.041  14.024  20.964  0.00  0.00     0.038 H 
BRANCH  93  95
ATOM     95  C18 non d ame     -30.577  15.921  20.079  0.00  0.00    -0.073 C 
ATOM     96  H24 non d ame     -30.058  16.875  20.165  0.00  0.00     0.028 H 
ATOM     97  H25 non d ame     -30.253  15.412  19.172  0.00  0.00     0.028 H 
ATOM     98  H26 non d ame     -31.652  16.095  20.034  0.00  0.00     0.028 H 
ENDBRANCH  93  95
BRANCH  93  99
ATOM     99  C19 non d ame     -28.981  15.532  22.025  0.00  0.00    -0.073 C 
ATOM    100  H27 non d ame     -29.246  16.305  22.746  0.00  0.00     0.028 H 
ATOM    101  H28 non d ame     -28.501  14.701  22.544  0.00  0.00     0.028 H 
ATOM    102  H29 non d ame     -28.293  15.943  21.287  0.00  0.00     0.028 H 
ENDBRANCH  93  99
ENDBRANCH  90  93
ENDBRANCH   1  90
TORSDOF 26
ENDMDL
MODEL 11
REMARK VINA RESULT:      -6.9      2.048      4.928
REMARK  26 active torsions:
REMARK  status: ('A' for Active; 'I' for Inactive)
REMARK    1  A    between atoms: C2_2  and  C3_3 
REMARK    2  A    between atoms: C4_6  and  C5_7 
REMARK       I    between atoms: C5_7  and  N2_9 
REMARK    3  A    between atoms: N2_9  and  C6_10 
REMARK    4  A    between atoms: C6_10  and  C7_11 
REMARK    5  A    between atoms: C6_10  and  C8_13 
REMARK       I    between atoms: C7_11  and  N3_14 
REMARK    6  A    between atoms: N3_14  and  C9_15 
REMARK    7  A    between atoms: C9_15  and  C10_16 
REMARK    8  A    between atoms: C9_15  and  C11_18 
REMARK       I    between atoms: C10_16  and  N4_21 
REMARK    9  A    between atoms: C11_18  and  C12_19 
REMARK   10  A    between atoms: C11_18  and  C13_20 
REMARK   11  A    between atoms: N4_21  and  C14_22 
REMARK   12  A    between atoms: C14_22  and  C15_23 
REMARK   13  A    between atoms: C14_22  and  C16_25 
REMARK       I    between atoms: C15_23  and  N6_40 
REMARK   14  A    between atoms: C16_25  and  C17_26 
REMARK   15  A    between atoms: C17_26  and  C18_27 
REMARK   16  A    between atoms: C17_26  and  C19_28 
REMARK   17  A    between atoms: C20_29  and  C21_30 
REMARK   18  A    between atoms: C20_29  and  C24_33 
REMARK   19  A    between atoms: C20_29  and  N6_40 
REMARK   20  A    between atoms: C21_30  and  C22_31 
REMARK   21  A    between atoms: C22_31  and  C23_32 
REMARK   22  A    between atoms: C23_32  and  O8_43 
REMARK   23  A    between atoms: C24_33  and  C25_34 
REMARK   24  A    between atoms: C28_38  and  O6_39 
REMARK   25  A    between atoms: C29_42  and  O8_43 
REMARK   26  A    between atoms: C29_42  and  C35_49 
ROOT
ATOM      1  C14 non d ame     -33.214  10.625  25.926  0.00  0.00     0.089 C 
ATOM      2  H20 non d ame     -33.849  10.975  25.111  0.00  0.00     0.087 H 
ENDROOT
BRANCH   1   3
ATOM      3  N4  non d ame     -32.441   9.497  25.426  0.00  0.00    -0.346 N 
ATOM      4  C10 non d ame     -33.128   8.358  24.716  0.00  0.00     0.241 C 
ATOM      5  O4  non d ame     -34.305   8.370  24.561  0.00  0.00    -0.271 OA
ATOM      6  H19 non d ame     -31.441   9.505  25.570  0.00  0.00     0.163 HD
BRANCH   4   7
ATOM      7  C9  non d ame     -32.313   7.202  24.200  0.00  0.00     0.092 C 
ATOM      8  H11 non d ame     -32.816   6.764  23.338  0.00  0.00     0.088 H 
BRANCH   7   9
ATOM      9  N3  non d ame     -31.009   7.690  23.740  0.00  0.00    -0.346 N 
ATOM     10  C7  non d ame     -30.823   8.051  22.356  0.00  0.00     0.240 C 
ATOM     11  O3  non d ame     -31.710   7.953  21.599  0.00  0.00    -0.271 OA
ATOM     12  H10 non d ame     -30.234   7.777  24.381  0.00  0.00     0.163 HD
BRANCH  10  13
ATOM     13  C6  non d ame     -29.432   8.566  21.871  0.00  0.00     0.086 C 
ATOM     14  H6  non d ame     -29.130   8.132  20.918  0.00  0.00     0.086 H 
BRANCH  13  15
ATOM     15  N2  non d ame     -29.507  10.003  21.669  0.00  0.00    -0.343 N 
ATOM     16  C5  non d ame     -29.881  10.871  22.788  0.00  0.00     0.273 C 
ATOM     17  O2  non d ame     -30.122  10.403  23.846  0.00  0.00    -0.266 OA
ATOM     18  H5  non d ame     -29.301  10.395  20.760  0.00  0.00     0.163 HD
BRANCH  16  19
ATOM     19  C4  non d ame     -29.962  12.393  22.588  0.00  0.00     0.154 A 
ATOM     20  C1  non d ame     -30.729  13.326  23.355  0.00  0.00    -0.017 A 
ATOM     21  C2  non d ame     -30.459  14.584  22.773  0.00  0.00     0.077 A 
ATOM     22  H1  non d ame     -31.382  13.121  24.204  0.00  0.00     0.091 H 
ATOM     23  O1  non d ame     -29.632  14.386  21.789  0.00  0.00    -0.218 OA
ATOM     24  N1  non d ame     -29.327  13.115  21.661  0.00  0.00    -0.123 NA
BRANCH  21  25
ATOM     25  C3  non d ame     -31.031  15.924  23.217  0.00  0.00    -0.029 C 
ATOM     26  H2  non d ame     -31.149  15.928  24.300  0.00  0.00     0.036 H 
ATOM     27  H3  non d ame     -30.351  16.724  22.923  0.00  0.00     0.036 H 
ATOM     28  H4  non d ame     -32.001  16.080  22.745  0.00  0.00     0.036 H 
ENDBRANCH  21  25
ENDBRANCH  16  19
ENDBRANCH  13  15
BRANCH  13  29
ATOM     29  C8  non d ame     -28.385   8.244  22.907  0.00  0.00    -0.049 C 
ATOM     30  H7  non d ame     -28.872   7.939  23.833  0.00  0.00     0.030 H 
ATOM     31  H8  non d ame     -27.753   7.434  22.544  0.00  0.00     0.030 H 
ATOM     32  H9  non d ame     -27.773   9.127  23.092  0.00  0.00     0.030 H 
ENDBRANCH  13  29
ENDBRANCH  10  13
ENDBRANCH   7   9
BRANCH   7  33
ATOM     33  C11 non d ame     -32.102   6.166  25.343  0.00  0.00    -0.033 C 
ATOM     34  H12 non d ame     -31.085   5.782  25.255  0.00  0.00     0.042 H 
BRANCH  33  35
ATOM     35  C12 non d ame     -32.231   6.834  26.747  0.00  0.00    -0.071 C 
ATOM     36  H13 non d ame     -32.134   7.915  26.645  0.00  0.00     0.028 H 
ATOM     37  H14 non d ame     -33.204   6.595  27.175  0.00  0.00     0.028 H 
ATOM     38  H15 non d ame     -31.443   6.460  27.401  0.00  0.00     0.028 H 
ENDBRANCH  33  35
BRANCH  33  39
ATOM     39  C13 non d ame     -33.087   4.962  25.196  0.00  0.00    -0.071 C 
ATOM     40  H16 non d ame     -34.071   5.332  24.904  0.00  0.00     0.028 H 
ATOM     41  H17 non d ame     -32.714   4.278  24.433  0.00  0.00     0.028 H 
ATOM     42  H18 non d ame     -33.164   4.437  26.148  0.00  0.00     0.028 H 
ENDBRANCH  33  39
ENDBRANCH   7  33
ENDBRANCH   4   7
ENDBRANCH   1   3
BRANCH   1  43
ATOM     43  C15 non d ame     -32.227  11.724  26.414  0.00  0.00     0.240 C 
ATOM     44  O5  non d ame     -31.073  11.467  26.542  0.00  0.00    -0.271 OA
ATOM     45  N6  non d ame     -32.719  13.098  26.715  0.00  0.00    -0.355 N 
ATOM     46  H46 non d ame     -33.695  13.329  26.605  0.00  0.00     0.162 HD
BRANCH  45  47
ATOM     47  C20 non d ame     -31.767  14.132  27.177  0.00  0.00     0.013 C 
ATOM     48  H30 non d ame     -30.778  13.870  26.801  0.00  0.00     0.072 H 
BRANCH  47  49
ATOM     49  C21 non d ame     -31.755  14.160  28.688  0.00  0.00    -0.038 C 
ATOM     50  H31 non d ame     -31.624  15.207  28.963  0.00  0.00     0.036 H 
ATOM     51  H32 non d ame     -32.651  13.622  29.000  0.00  0.00     0.036 H 
BRANCH  49  52
ATOM     52  C22 non d ame     -30.556  13.397  29.292  0.00  0.00     0.018 C 
ATOM     53  H33 non d ame     -30.118  12.835  28.467  0.00  0.00     0.048 H 
ATOM     54  H34 non d ame     -29.962  14.146  29.816  0.00  0.00     0.048 H 
BRANCH  52  55
ATOM     55  C23 non d ame     -30.958  12.344  30.362  0.00  0.00     0.259 C 
ATOM     56  O7  non d ame     -30.126  11.789  31.004  0.00  0.00    -0.265 OA
BRANCH  55  57
ATOM     57  O8  non d ame     -32.333  12.040  30.558  0.00  0.00    -0.317 OA
BRANCH  57  58
ATOM     58  C29 non d ame     -32.723  10.758  30.058  0.00  0.00     0.052 C 
ATOM     59  H47 non d ame     -33.137  10.941  29.067  0.00  0.00     0.082 H 
ATOM     60  H48 non d ame     -31.849  10.117  30.174  0.00  0.00     0.082 H 
BRANCH  58  61
ATOM     61  C35 non d ame     -33.855  10.213  30.970  0.00  0.00    -0.034 A 
ATOM     62  C30 non d ame     -34.323   8.914  30.798  0.00  0.00    -0.075 A 
ATOM     63  C31 non d ame     -35.340   8.424  31.616  0.00  0.00    -0.082 A 
ATOM     64  H49 non d ame     -33.893   8.279  30.022  0.00  0.00     0.084 H 
ATOM     65  C32 non d ame     -35.892   9.240  32.608  0.00  0.00    -0.083 A 
ATOM     66  H50 non d ame     -35.703   7.405  31.480  0.00  0.00     0.083 H 
ATOM     67  C33 non d ame     -35.424  10.537  32.773  0.00  0.00    -0.082 A 
ATOM     68  H51 non d ame     -36.687   8.865  33.252  0.00  0.00     0.083 H 
ATOM     69  C34 non d ame     -34.406  11.029  31.959  0.00  0.00    -0.075 A 
ATOM     70  H52 non d ame     -35.858  11.171  33.546  0.00  0.00     0.083 H 
ATOM     71  H53 non d ame     -34.044  12.048  32.096  0.00  0.00     0.084 H 
ENDBRANCH  58  61
ENDBRANCH  57  58
ENDBRANCH  55  57
ENDBRANCH  52  55
ENDBRANCH  49  52
ENDBRANCH  47  49
BRANCH  47  72
ATOM     72  C24 non d ame     -32.192  15.500  26.645  0.00  0.00    -0.039 C 
ATOM     73  H35 non d ame     -31.266  16.002  26.365  0.00  0.00     0.036 H 
ATOM     74  H36 non d ame     -32.951  15.294  25.890  0.00  0.00     0.036 H 
BRANCH  72  75
ATOM     75  C25 non d ame     -32.887  16.388  27.783  0.00  0.00    -0.001 C 
ATOM     76  C26 non d ame     -34.478  15.995  27.907  0.00  0.00    -0.035 C 
ATOM     77  C27 non d ame     -35.215  17.130  27.842  0.00  0.00     0.085 C 
ATOM     78  H38 non d ame     -34.795  15.434  27.028  0.00  0.00     0.036 H 
ATOM     79  H39 non d ame     -34.692  15.610  28.905  0.00  0.00     0.036 H 
ATOM     80  N5  non d ame     -34.296  18.225  27.357  0.00  0.00    -0.049 N 
ATOM     81  H40 non d ame     -35.974  16.940  27.083  0.00  0.00     0.075 H 
ATOM     82  H41 non d ame     -35.512  17.344  28.868  0.00  0.00     0.075 H 
ATOM     83  C28 non d ame     -32.796  17.648  27.513  0.00  0.00     0.193 C 
ATOM     84  H42 non d ame     -34.492  18.349  26.374  0.00  0.00     0.280 HD
ATOM     85  H43 non d ame     -34.411  18.998  27.997  0.00  0.00     0.280 HD
ATOM     86  H44 non d ame     -32.157  17.981  28.331  0.00  0.00     0.129 H 
ATOM     87  H37 non d ame     -32.306  16.405  28.706  0.00  0.00     0.046 H 
BRANCH  83  88
ATOM     88  O6  non d ame     -32.048  17.891  26.320  0.00  0.00    -0.369 OA
ATOM     89  H45 non d ame     -31.109  17.855  26.518  0.00  0.00     0.212 HD
ENDBRANCH  83  88
ENDBRANCH  72  75
ENDBRANCH  47  72
ENDBRANCH  45  47
ENDBRANCH   1  43
BRANCH   1  90
ATOM     90  C16 non d ame     -34.076  10.159  27.088  0.00  0.00    -0.035 C 
ATOM     91  H21 non d ame     -34.338   9.127  26.857  0.00  0.00     0.037 H 
ATOM     92  H22 non d ame     -33.501  10.388  27.985  0.00  0.00     0.037 H 
BRANCH  90  93
ATOM     93  C17 non d ame     -35.425  10.937  27.218  0.00  0.00    -0.059 C 
ATOM     94  H23 non d ame     -35.213  11.884  27.715  0.00  0.00     0.038 H 
BRANCH  93  95
ATOM     95  C18 non d ame     -36.056  11.260  25.826  0.00  0.00    -0.073 C 
ATOM     96  H24 non d ame     -36.800  10.503  25.580  0.00  0.00     0.028 H 
ATOM     97  H25 non d ame     -36.532  12.239  25.861  0.00  0.00     0.028 H 
ATOM     98  H26 non d ame     -35.275  11.263  25.065  0.00  0.00     0.028 H 
ENDBRANCH  93  95
BRANCH  93  99
ATOM     99  C19 non d ame     -36.414  10.172  28.100  0.00  0.00    -0.073 C 
ATOM    100  H27 non d ame     -37.395  10.164  27.624  0.00  0.00     0.028 H 
ATOM    101  H28 non d ame     -36.067   9.147  28.232  0.00  0.00     0.028 H 
ATOM    102  H29 non d ame     -36.486  10.658  29.073  0.00  0.00     0.028 H 
ENDBRANCH  93  99
ENDBRANCH  90  93
ENDBRANCH   1  90
TORSDOF 26
ENDMDL
MODEL 12
REMARK VINA RESULT:      -6.9      2.471      6.947
REMARK  26 active torsions:
REMARK  status: ('A' for Active; 'I' for Inactive)
REMARK    1  A    between atoms: C2_2  and  C3_3 
REMARK    2  A    between atoms: C4_6  and  C5_7 
REMARK       I    between atoms: C5_7  and  N2_9 
REMARK    3  A    between atoms: N2_9  and  C6_10 
REMARK    4  A    between atoms: C6_10  and  C7_11 
REMARK    5  A    between atoms: C6_10  and  C8_13 
REMARK       I    between atoms: C7_11  and  N3_14 
REMARK    6  A    between atoms: N3_14  and  C9_15 
REMARK    7  A    between atoms: C9_15  and  C10_16 
REMARK    8  A    between atoms: C9_15  and  C11_18 
REMARK       I    between atoms: C10_16  and  N4_21 
REMARK    9  A    between atoms: C11_18  and  C12_19 
REMARK   10  A    between atoms: C11_18  and  C13_20 
REMARK   11  A    between atoms: N4_21  and  C14_22 
REMARK   12  A    between atoms: C14_22  and  C15_23 
REMARK   13  A    between atoms: C14_22  and  C16_25 
REMARK       I    between atoms: C15_23  and  N6_40 
REMARK   14  A    between atoms: C16_25  and  C17_26 
REMARK   15  A    between atoms: C17_26  and  C18_27 
REMARK   16  A    between atoms: C17_26  and  C19_28 
REMARK   17  A    between atoms: C20_29  and  C21_30 
REMARK   18  A    between atoms: C20_29  and  C24_33 
REMARK   19  A    between atoms: C20_29  and  N6_40 
REMARK   20  A    between atoms: C21_30  and  C22_31 
REMARK   21  A    between atoms: C22_31  and  C23_32 
REMARK   22  A    between atoms: C23_32  and  O8_43 
REMARK   23  A    between atoms: C24_33  and  C25_34 
REMARK   24  A    between atoms: C28_38  and  O6_39 
REMARK   25  A    between atoms: C29_42  and  O8_43 
REMARK   26  A    between atoms: C29_42  and  C35_49 
ROOT
ATOM      1  C14 non d ame     -32.200   9.473  24.681  0.00  0.00     0.089 C 
ATOM      2  H20 non d ame     -31.617   8.642  25.079  0.00  0.00     0.087 H 
ENDROOT
BRANCH   1   3
ATOM      3  N4  non d ame     -33.512   9.429  25.309  0.00  0.00    -0.346 N 
ATOM      4  C10 non d ame     -34.151   8.106  25.647  0.00  0.00     0.241 C 
ATOM      5  O4  non d ame     -33.591   7.089  25.402  0.00  0.00    -0.271 OA
ATOM      6  H19 non d ame     -33.973  10.306  25.507  0.00  0.00     0.163 HD
BRANCH   4   7
ATOM      7  C9  non d ame     -35.507   8.080  26.302  0.00  0.00     0.092 C 
ATOM      8  H11 non d ame     -35.679   7.093  26.731  0.00  0.00     0.088 H 
BRANCH   7   9
ATOM      9  N3  non d ame     -35.535   9.044  27.407  0.00  0.00    -0.346 N 
ATOM     10  C7  non d ame     -36.153   8.685  28.660  0.00  0.00     0.240 C 
ATOM     11  O3  non d ame     -36.632   7.626  28.796  0.00  0.00    -0.271 OA
ATOM     12  H10 non d ame     -35.127   9.961  27.303  0.00  0.00     0.163 HD
BRANCH  10  13
ATOM     13  C6  non d ame     -36.182   9.716  29.831  0.00  0.00     0.086 C 
ATOM     14  H6  non d ame     -36.095   9.245  30.810  0.00  0.00     0.086 H 
BRANCH  13  15
ATOM     15  N2  non d ame     -35.047  10.613  29.698  0.00  0.00    -0.343 N 
ATOM     16  C5  non d ame     -33.825  10.349  30.462  0.00  0.00     0.273 C 
ATOM     17  O2  non d ame     -33.768   9.414  31.183  0.00  0.00    -0.266 OA
ATOM     18  H5  non d ame     -35.106  11.411  29.081  0.00  0.00     0.163 HD
BRANCH  16  19
ATOM     19  C4  non d ame     -32.617  11.289  30.330  0.00  0.00     0.154 A 
ATOM     20  C1  non d ame     -32.372  12.242  29.291  0.00  0.00    -0.017 A 
ATOM     21  C2  non d ame     -31.139  12.842  29.632  0.00  0.00     0.077 A 
ATOM     22  H1  non d ame     -32.993  12.464  28.424  0.00  0.00     0.091 H 
ATOM     23  O1  non d ame     -30.733  12.292  30.738  0.00  0.00    -0.218 OA
ATOM     24  N1  non d ame     -31.578  11.382  31.165  0.00  0.00    -0.123 NA
BRANCH  21  25
ATOM     25  C3  non d ame     -30.420  13.932  28.848  0.00  0.00    -0.029 C 
ATOM     26  H2  non d ame     -30.223  14.781  29.503  0.00  0.00     0.036 H 
ATOM     27  H3  non d ame     -29.478  13.542  28.465  0.00  0.00     0.036 H 
ATOM     28  H4  non d ame     -31.045  14.254  28.016  0.00  0.00     0.036 H 
ENDBRANCH  21  25
ENDBRANCH  16  19
ENDBRANCH  13  15
BRANCH  13  29
ATOM     29  C8  non d ame     -37.469  10.500  29.781  0.00  0.00    -0.049 C 
ATOM     30  H7  non d ame     -37.628  10.873  28.769  0.00  0.00     0.030 H 
ATOM     31  H8  non d ame     -38.299   9.854  30.065  0.00  0.00     0.030 H 
ATOM     32  H9  non d ame     -37.409  11.341  30.472  0.00  0.00     0.030 H 
ENDBRANCH  13  29
ENDBRANCH  10  13
ENDBRANCH   7   9
BRANCH   7  33
ATOM     33  C11 non d ame     -36.596   8.461  25.257  0.00  0.00    -0.033 C 
ATOM     34  H12 non d ame     -36.151   8.358  24.267  0.00  0.00     0.042 H 
BRANCH  33  35
ATOM     35  C12 non d ame     -37.816   7.491  25.326  0.00  0.00    -0.071 C 
ATOM     36  H13 non d ame     -37.467   6.484  25.556  0.00  0.00     0.028 H 
ATOM     37  H14 non d ame     -38.501   7.824  26.105  0.00  0.00     0.028 H 
ATOM     38  H15 non d ame     -38.331   7.486  24.366  0.00  0.00     0.028 H 
ENDBRANCH  33  35
BRANCH  33  39
ATOM     39  C13 non d ame     -37.044   9.948  25.433  0.00  0.00    -0.071 C 
ATOM     40  H16 non d ame     -36.531  10.383  26.291  0.00  0.00     0.028 H 
ATOM     41  H17 non d ame     -36.792  10.512  24.534  0.00  0.00     0.028 H 
ATOM     42  H18 non d ame     -38.121   9.986  25.594  0.00  0.00     0.028 H 
ENDBRANCH  33  39
ENDBRANCH   7  33
ENDBRANCH   4   7
ENDBRANCH   1   3
BRANCH   1  43
ATOM     43  C15 non d ame     -31.547  10.850  24.991  0.00  0.00     0.240 C 
ATOM     44  O5  non d ame     -31.090  11.058  26.068  0.00  0.00    -0.271 OA
ATOM     45  N6  non d ame     -31.485  11.908  23.943  0.00  0.00    -0.355 N 
ATOM     46  H46 non d ame     -31.866  11.741  23.023  0.00  0.00     0.162 HD
BRANCH  45  47
ATOM     47  C20 non d ame     -30.860  13.212  24.254  0.00  0.00     0.013 C 
ATOM     48  H30 non d ame     -30.273  13.094  25.165  0.00  0.00     0.072 H 
BRANCH  47  49
ATOM     49  C21 non d ame     -31.942  14.247  24.466  0.00  0.00    -0.038 C 
ATOM     50  H31 non d ame     -31.547  15.175  24.052  0.00  0.00     0.036 H 
ATOM     51  H32 non d ame     -32.852  13.809  24.055  0.00  0.00     0.036 H 
BRANCH  49  52
ATOM     52  C22 non d ame     -32.225  14.520  25.959  0.00  0.00     0.018 C 
ATOM     53  H33 non d ame     -31.585  13.832  26.512  0.00  0.00     0.048 H 
ATOM     54  H34 non d ame     -32.108  15.596  26.089  0.00  0.00     0.048 H 
BRANCH  52  55
ATOM     55  C23 non d ame     -33.681  14.191  26.391  0.00  0.00     0.259 C 
ATOM     56  O7  non d ame     -34.095  13.080  26.318  0.00  0.00    -0.265 OA
BRANCH  55  57
ATOM     57  O8  non d ame     -34.520  15.238  26.864  0.00  0.00    -0.317 OA
BRANCH  57  58
ATOM     58  C29 non d ame     -33.954  16.000  27.934  0.00  0.00     0.052 C 
ATOM     59  H47 non d ame     -34.738  16.078  28.687  0.00  0.00     0.082 H 
ATOM     60  H48 non d ame     -33.011  15.511  28.178  0.00  0.00     0.082 H 
BRANCH  58  61
ATOM     61  C35 non d ame     -33.645  17.423  27.397  0.00  0.00    -0.034 A 
ATOM     62  C30 non d ame     -32.740  18.239  28.069  0.00  0.00    -0.075 A 
ATOM     63  C31 non d ame     -32.462  19.517  27.587  0.00  0.00    -0.082 A 
ATOM     64  H49 non d ame     -32.249  17.877  28.972  0.00  0.00     0.084 H 
ATOM     65  C32 non d ame     -33.095  19.980  26.430  0.00  0.00    -0.083 A 
ATOM     66  H50 non d ame     -31.751  20.154  28.115  0.00  0.00     0.083 H 
ATOM     67  C33 non d ame     -34.000  19.163  25.766  0.00  0.00    -0.082 A 
ATOM     68  H51 non d ame     -32.883  20.978  26.046  0.00  0.00     0.083 H 
ATOM     69  C34 non d ame     -34.279  17.884  26.242  0.00  0.00    -0.075 A 
ATOM     70  H52 non d ame     -34.494  19.528  24.865  0.00  0.00     0.083 H 
ATOM     71  H53 non d ame     -34.990  17.248  25.714  0.00  0.00     0.084 H 
ENDBRANCH  58  61
ENDBRANCH  57  58
ENDBRANCH  55  57
ENDBRANCH  52  55
ENDBRANCH  49  52
ENDBRANCH  47  49
BRANCH  47  72
ATOM     72  C24 non d ame     -29.962  13.643  23.096  0.00  0.00    -0.039 C 
ATOM     73  H35 non d ame     -28.984  13.829  23.541  0.00  0.00     0.036 H 
ATOM     74  H36 non d ame     -30.076  12.870  22.336  0.00  0.00     0.036 H 
BRANCH  72  75
ATOM     75  C25 non d ame     -30.454  15.022  22.446  0.00  0.00    -0.001 C 
ATOM     76  C26 non d ame     -31.065  14.745  20.944  0.00  0.00    -0.035 C 
ATOM     77  C27 non d ame     -30.472  15.593  20.069  0.00  0.00     0.085 C 
ATOM     78  H38 non d ame     -30.759  13.761  20.591  0.00  0.00     0.036 H 
ATOM     79  H39 non d ame     -32.115  15.036  20.908  0.00  0.00     0.036 H 
ATOM     80  N5  non d ame     -29.281  16.195  20.776  0.00  0.00    -0.049 N 
ATOM     81  H40 non d ame     -30.120  14.966  19.250  0.00  0.00     0.075 H 
ATOM     82  H41 non d ame     -31.205  16.376  19.880  0.00  0.00     0.075 H 
ATOM     83  C28 non d ame     -29.481  15.864  22.343  0.00  0.00     0.193 C 
ATOM     84  H42 non d ame     -28.468  15.696  20.443  0.00  0.00     0.280 HD
ATOM     85  H43 non d ame     -29.348  17.194  20.647  0.00  0.00     0.280 HD
ATOM     86  H44 non d ame     -29.816  16.638  23.034  0.00  0.00     0.129 H 
ATOM     87  H37 non d ame     -31.069  15.605  23.131  0.00  0.00     0.046 H 
BRANCH  83  88
ATOM     88  O6  non d ame     -28.267  15.356  22.899  0.00  0.00    -0.369 OA
ATOM     89  H45 non d ame     -28.444  14.526  23.350  0.00  0.00     0.212 HD
ENDBRANCH  83  88
ENDBRANCH  72  75
ENDBRANCH  47  72
ENDBRANCH  45  47
ENDBRANCH   1  43
BRANCH   1  90
ATOM     90  C16 non d ame     -32.364   9.312  23.178  0.00  0.00    -0.035 C 
ATOM     91  H21 non d ame     -33.356   8.883  23.040  0.00  0.00     0.037 H 
ATOM     92  H22 non d ame     -32.130  10.290  22.756  0.00  0.00     0.037 H 
BRANCH  90  93
ATOM     93  C17 non d ame     -31.355   8.304  22.541  0.00  0.00    -0.059 C 
ATOM     94  H23 non d ame     -31.078   7.583  23.311  0.00  0.00     0.038 H 
BRANCH  93  95
ATOM     95  C18 non d ame     -31.985   7.512  21.351  0.00  0.00    -0.073 C 
ATOM     96  H24 non d ame     -31.674   6.469  21.403  0.00  0.00     0.028 H 
ATOM     97  H25 non d ame     -33.071   7.570  21.410  0.00  0.00     0.028 H 
ATOM     98  H26 non d ame     -31.649   7.945  20.409  0.00  0.00     0.028 H 
ENDBRANCH  93  95
BRANCH  93  99
ATOM     99  C19 non d ame     -30.073   9.016  22.104  0.00  0.00    -0.073 C 
ATOM    100  H27 non d ame     -30.291  10.065  21.899  0.00  0.00     0.028 H 
ATOM    101  H28 non d ame     -29.329   8.949  22.899  0.00  0.00     0.028 H 
ATOM    102  H29 non d ame     -29.683   8.543  21.203  0.00  0.00     0.028 H 
ENDBRANCH  93  99
ENDBRANCH  90  93
ENDBRANCH   1  90
TORSDOF 26
ENDMDL
MODEL 13
REMARK VINA RESULT:      -6.9      1.919      5.633
REMARK  26 active torsions:
REMARK  status: ('A' for Active; 'I' for Inactive)
REMARK    1  A    between atoms: C2_2  and  C3_3 
REMARK    2  A    between atoms: C4_6  and  C5_7 
REMARK       I    between atoms: C5_7  and  N2_9 
REMARK    3  A    between atoms: N2_9  and  C6_10 
REMARK    4  A    between atoms: C6_10  and  C7_11 
REMARK    5  A    between atoms: C6_10  and  C8_13 
REMARK       I    between atoms: C7_11  and  N3_14 
REMARK    6  A    between atoms: N3_14  and  C9_15 
REMARK    7  A    between atoms: C9_15  and  C10_16 
REMARK    8  A    between atoms: C9_15  and  C11_18 
REMARK       I    between atoms: C10_16  and  N4_21 
REMARK    9  A    between atoms: C11_18  and  C12_19 
REMARK   10  A    between atoms: C11_18  and  C13_20 
REMARK   11  A    between atoms: N4_21  and  C14_22 
REMARK   12  A    between atoms: C14_22  and  C15_23 
REMARK   13  A    between atoms: C14_22  and  C16_25 
REMARK       I    between atoms: C15_23  and  N6_40 
REMARK   14  A    between atoms: C16_25  and  C17_26 
REMARK   15  A    between atoms: C17_26  and  C18_27 
REMARK   16  A    between atoms: C17_26  and  C19_28 
REMARK   17  A    between atoms: C20_29  and  C21_30 
REMARK   18  A    between atoms: C20_29  and  C24_33 
REMARK   19  A    between atoms: C20_29  and  N6_40 
REMARK   20  A    between atoms: C21_30  and  C22_31 
REMARK   21  A    between atoms: C22_31  and  C23_32 
REMARK   22  A    between atoms: C23_32  and  O8_43 
REMARK   23  A    between atoms: C24_33  and  C25_34 
REMARK   24  A    between atoms: C28_38  and  O6_39 
REMARK   25  A    between atoms: C29_42  and  O8_43 
REMARK   26  A    between atoms: C29_42  and  C35_49 
ROOT
ATOM      1  C14 non d ame     -32.769   9.757  24.621  0.00  0.00     0.089 C 
ATOM      2  H20 non d ame     -32.630   8.912  25.295  0.00  0.00     0.087 H 
ENDROOT
BRANCH   1   3
ATOM      3  N4  non d ame     -34.051  10.366  24.939  0.00  0.00    -0.346 N 
ATOM      4  C10 non d ame     -35.070   9.614  25.758  0.00  0.00     0.241 C 
ATOM      5  O4  non d ame     -34.835   8.518  26.148  0.00  0.00    -0.271 OA
ATOM      6  H19 non d ame     -34.232  11.299  24.597  0.00  0.00     0.163 HD
BRANCH   4   7
ATOM      7  C9  non d ame     -36.390  10.262  26.083  0.00  0.00     0.092 C 
ATOM      8  H11 non d ame     -36.459  10.415  27.161  0.00  0.00     0.088 H 
BRANCH   7   9
ATOM      9  N3  non d ame     -36.454  11.584  25.453  0.00  0.00    -0.346 N 
ATOM     10  C7  non d ame     -36.943  12.716  26.202  0.00  0.00     0.240 C 
ATOM     11  O3  non d ame     -37.290  12.581  27.311  0.00  0.00    -0.271 OA
ATOM     12  H10 non d ame     -36.160  11.716  24.496  0.00  0.00     0.163 HD
BRANCH  10  13
ATOM     13  C6  non d ame     -37.012  14.120  25.524  0.00  0.00     0.086 C 
ATOM     14  H6  non d ame     -37.905  14.679  25.802  0.00  0.00     0.086 H 
BRANCH  13  15
ATOM     15  N2  non d ame     -35.874  14.911  25.962  0.00  0.00    -0.343 N 
ATOM     16  C5  non d ame     -36.069  15.964  26.962  0.00  0.00     0.273 C 
ATOM     17  O2  non d ame     -37.145  16.168  27.405  0.00  0.00    -0.266 OA
ATOM     18  H5  non d ame     -34.958  14.731  25.576  0.00  0.00     0.163 HD
BRANCH  16  19
ATOM     19  C4  non d ame     -34.874  16.807  27.435  0.00  0.00     0.154 A 
ATOM     20  C1  non d ame     -34.377  18.011  26.843  0.00  0.00    -0.017 A 
ATOM     21  C2  non d ame     -33.279  18.386  27.649  0.00  0.00     0.077 A 
ATOM     22  H1  non d ame     -34.755  18.533  25.964  0.00  0.00     0.091 H 
ATOM     23  O1  non d ame     -33.168  17.496  28.591  0.00  0.00    -0.218 OA
ATOM     24  N1  non d ame     -34.088  16.564  28.487  0.00  0.00    -0.123 NA
BRANCH  21  25
ATOM     25  C3  non d ame     -32.391  19.607  27.451  0.00  0.00    -0.029 C 
ATOM     26  H2  non d ame     -32.983  20.512  27.581  0.00  0.00     0.036 H 
ATOM     27  H3  non d ame     -31.585  19.592  28.185  0.00  0.00     0.036 H 
ATOM     28  H4  non d ame     -31.968  19.590  26.447  0.00  0.00     0.036 H 
ENDBRANCH  21  25
ENDBRANCH  16  19
ENDBRANCH  13  15
BRANCH  13  29
ATOM     29  C8  non d ame     -36.983  13.960  24.025  0.00  0.00    -0.049 C 
ATOM     30  H7  non d ame     -36.104  14.462  23.623  0.00  0.00     0.030 H 
ATOM     31  H8  non d ame     -36.943  12.900  23.774  0.00  0.00     0.030 H 
ATOM     32  H9  non d ame     -37.882  14.402  23.595  0.00  0.00     0.030 H 
ENDBRANCH  13  29
ENDBRANCH  10  13
ENDBRANCH   7   9
BRANCH   7  33
ATOM     33  C11 non d ame     -37.550   9.376  25.543  0.00  0.00    -0.033 C 
ATOM     34  H12 non d ame     -37.175   8.355  25.466  0.00  0.00     0.042 H 
BRANCH  33  35
ATOM     35  C12 non d ame     -38.759   9.359  26.529  0.00  0.00    -0.071 C 
ATOM     36  H13 non d ame     -39.276   8.402  26.453  0.00  0.00     0.028 H 
ATOM     37  H14 non d ame     -38.399   9.498  27.547  0.00  0.00     0.028 H 
ATOM     38  H15 non d ame     -39.448  10.164  26.273  0.00  0.00     0.028 H 
ENDBRANCH  33  35
BRANCH  33  39
ATOM     39  C13 non d ame     -37.988   9.838  24.116  0.00  0.00    -0.071 C 
ATOM     40  H16 non d ame     -38.094  10.923  24.102  0.00  0.00     0.028 H 
ATOM     41  H17 non d ame     -37.234   9.537  23.388  0.00  0.00     0.028 H 
ATOM     42  H18 non d ame     -38.942   9.376  23.862  0.00  0.00     0.028 H 
ENDBRANCH  33  39
ENDBRANCH   7  33
ENDBRANCH   4   7
ENDBRANCH   1   3
BRANCH   1  43
ATOM     43  C15 non d ame     -31.655  10.830  24.789  0.00  0.00     0.240 C 
ATOM     44  O5  non d ame     -30.640  10.548  25.339  0.00  0.00    -0.271 OA
ATOM     45  N6  non d ame     -31.851  12.209  24.255  0.00  0.00    -0.355 N 
ATOM     46  H46 non d ame     -32.706  12.459  23.781  0.00  0.00     0.162 HD
BRANCH  45  47
ATOM     47  C20 non d ame     -30.782  13.217  24.422  0.00  0.00     0.013 C 
ATOM     48  H30 non d ame     -30.037  12.807  25.104  0.00  0.00     0.072 H 
BRANCH  47  49
ATOM     49  C21 non d ame     -31.374  14.482  25.002  0.00  0.00    -0.038 C 
ATOM     50  H31 non d ame     -30.525  15.079  25.335  0.00  0.00     0.036 H 
ATOM     51  H32 non d ame     -32.047  14.869  24.236  0.00  0.00     0.036 H 
BRANCH  49  52
ATOM     52  C22 non d ame     -32.240  14.219  26.252  0.00  0.00     0.018 C 
ATOM     53  H33 non d ame     -32.793  15.141  26.428  0.00  0.00     0.048 H 
ATOM     54  H34 non d ame     -32.777  13.291  26.050  0.00  0.00     0.048 H 
BRANCH  52  55
ATOM     55  C23 non d ame     -31.415  13.963  27.544  0.00  0.00     0.259 C 
ATOM     56  O7  non d ame     -31.161  14.856  28.285  0.00  0.00    -0.265 OA
BRANCH  55  57
ATOM     57  O8  non d ame     -30.952  12.647  27.826  0.00  0.00    -0.317 OA
BRANCH  57  58
ATOM     58  C29 non d ame     -30.812  12.366  29.221  0.00  0.00     0.052 C 
ATOM     59  H47 non d ame     -29.940  11.718  29.305  0.00  0.00     0.082 H 
ATOM     60  H48 non d ame     -30.820  13.335  29.720  0.00  0.00     0.082 H 
BRANCH  58  61
ATOM     61  C35 non d ame     -32.063  11.569  29.678  0.00  0.00    -0.034 A 
ATOM     62  C30 non d ame     -32.620  11.804  30.931  0.00  0.00    -0.075 A 
ATOM     63  C31 non d ame     -33.744  11.088  31.341  0.00  0.00    -0.082 A 
ATOM     64  H49 non d ame     -32.176  12.549  31.591  0.00  0.00     0.084 H 
ATOM     65  C32 non d ame     -34.309  10.132  30.493  0.00  0.00    -0.083 A 
ATOM     66  H50 non d ame     -34.179  11.276  32.323  0.00  0.00     0.083 H 
ATOM     67  C33 non d ame     -33.748   9.898  29.245  0.00  0.00    -0.082 A 
ATOM     68  H51 non d ame     -35.188   9.568  30.805  0.00  0.00     0.083 H 
ATOM     69  C34 non d ame     -32.626  10.613  28.830  0.00  0.00    -0.075 A 
ATOM     70  H52 non d ame     -34.190   9.150  28.587  0.00  0.00     0.083 H 
ATOM     71  H53 non d ame     -32.192  10.425  27.848  0.00  0.00     0.084 H 
ENDBRANCH  58  61
ENDBRANCH  57  58
ENDBRANCH  55  57
ENDBRANCH  52  55
ENDBRANCH  49  52
ENDBRANCH  47  49
BRANCH  47  72
ATOM     72  C24 non d ame     -30.147  13.526  23.067  0.00  0.00    -0.039 C 
ATOM     73  H35 non d ame     -29.100  13.237  23.165  0.00  0.00     0.036 H 
ATOM     74  H36 non d ame     -30.781  13.032  22.330  0.00  0.00     0.036 H 
BRANCH  72  75
ATOM     75  C25 non d ame     -30.177  15.094  22.742  0.00  0.00    -0.001 C 
ATOM     76  C26 non d ame     -31.224  15.391  21.510  0.00  0.00    -0.035 C 
ATOM     77  C27 non d ame     -30.591  16.129  20.567  0.00  0.00     0.085 C 
ATOM     78  H38 non d ame     -31.462  14.463  20.990  0.00  0.00     0.036 H 
ATOM     79  H39 non d ame     -32.026  16.046  21.850  0.00  0.00     0.036 H 
ATOM     80  N5  non d ame     -29.117  16.086  20.889  0.00  0.00    -0.049 N 
ATOM     81  H40 non d ame     -30.765  15.609  19.625  0.00  0.00     0.075 H 
ATOM     82  H41 non d ame     -30.954  17.147  20.702  0.00  0.00     0.075 H 
ATOM     83  C28 non d ame     -29.008  15.523  22.398  0.00  0.00     0.193 C 
ATOM     84  H42 non d ame     -28.707  15.408  20.263  0.00  0.00     0.280 HD
ATOM     85  H43 non d ame     -28.794  17.043  20.879  0.00  0.00     0.280 HD
ATOM     86  H44 non d ame     -28.793  16.197  23.227  0.00  0.00     0.129 H 
ATOM     87  H37 non d ame     -30.285  15.700  23.642  0.00  0.00     0.046 H 
BRANCH  83  88
ATOM     88  O6  non d ame     -28.015  14.498  22.472  0.00  0.00    -0.369 OA
ATOM     89  H45 non d ame     -27.152  14.897  22.604  0.00  0.00     0.212 HD
ENDBRANCH  83  88
ENDBRANCH  72  75
ENDBRANCH  47  72
ENDBRANCH  45  47
ENDBRANCH   1  43
BRANCH   1  90
ATOM     90  C16 non d ame     -32.795   9.269  23.181  0.00  0.00    -0.035 C 
ATOM     91  H21 non d ame     -33.753   8.763  23.066  0.00  0.00     0.037 H 
ATOM     92  H22 non d ame     -32.565  10.145  22.575  0.00  0.00     0.037 H 
BRANCH  90  93
ATOM     93  C17 non d ame     -31.695   8.208  22.859  0.00  0.00    -0.059 C 
ATOM     94  H23 non d ame     -30.729   8.710  22.903  0.00  0.00     0.038 H 
BRANCH  93  95
ATOM     95  C18 non d ame     -31.676   7.044  23.901  0.00  0.00    -0.073 C 
ATOM     96  H24 non d ame     -31.945   7.431  24.883  0.00  0.00     0.028 H 
ATOM     97  H25 non d ame     -32.391   6.278  23.605  0.00  0.00     0.028 H 
ATOM     98  H26 non d ame     -30.676   6.611  23.943  0.00  0.00     0.028 H 
ENDBRANCH  93  95
BRANCH  93  99
ATOM     99  C19 non d ame     -31.861   7.663  21.438  0.00  0.00    -0.073 C 
ATOM    100  H27 non d ame     -32.266   8.444  20.794  0.00  0.00     0.028 H 
ATOM    101  H28 non d ame     -30.891   7.345  21.055  0.00  0.00     0.028 H 
ATOM    102  H29 non d ame     -32.542   6.813  21.452  0.00  0.00     0.028 H 
ENDBRANCH  93  99
ENDBRANCH  90  93
ENDBRANCH   1  90
TORSDOF 26
ENDMDL
MODEL 14
REMARK VINA RESULT:      -6.8      3.219      8.309
REMARK  26 active torsions:
REMARK  status: ('A' for Active; 'I' for Inactive)
REMARK    1  A    between atoms: C2_2  and  C3_3 
REMARK    2  A    between atoms: C4_6  and  C5_7 
REMARK       I    between atoms: C5_7  and  N2_9 
REMARK    3  A    between atoms: N2_9  and  C6_10 
REMARK    4  A    between atoms: C6_10  and  C7_11 
REMARK    5  A    between atoms: C6_10  and  C8_13 
REMARK       I    between atoms: C7_11  and  N3_14 
REMARK    6  A    between atoms: N3_14  and  C9_15 
REMARK    7  A    between atoms: C9_15  and  C10_16 
REMARK    8  A    between atoms: C9_15  and  C11_18 
REMARK       I    between atoms: C10_16  and  N4_21 
REMARK    9  A    between atoms: C11_18  and  C12_19 
REMARK   10  A    between atoms: C11_18  and  C13_20 
REMARK   11  A    between atoms: N4_21  and  C14_22 
REMARK   12  A    between atoms: C14_22  and  C15_23 
REMARK   13  A    between atoms: C14_22  and  C16_25 
REMARK       I    between atoms: C15_23  and  N6_40 
REMARK   14  A    between atoms: C16_25  and  C17_26 
REMARK   15  A    between atoms: C17_26  and  C18_27 
REMARK   16  A    between atoms: C17_26  and  C19_28 
REMARK   17  A    between atoms: C20_29  and  C21_30 
REMARK   18  A    between atoms: C20_29  and  C24_33 
REMARK   19  A    between atoms: C20_29  and  N6_40 
REMARK   20  A    between atoms: C21_30  and  C22_31 
REMARK   21  A    between atoms: C22_31  and  C23_32 
REMARK   22  A    between atoms: C23_32  and  O8_43 
REMARK   23  A    between atoms: C24_33  and  C25_34 
REMARK   24  A    between atoms: C28_38  and  O6_39 
REMARK   25  A    between atoms: C29_42  and  O8_43 
REMARK   26  A    between atoms: C29_42  and  C35_49 
ROOT
ATOM      1  C14 non d ame     -35.403   8.387  26.705  0.00  0.00     0.089 C 
ATOM      2  H20 non d ame     -35.400   7.570  27.427  0.00  0.00     0.087 H 
ENDROOT
BRANCH   1   3
ATOM      3  N4  non d ame     -34.667   9.495  27.295  0.00  0.00    -0.346 N 
ATOM      4  C10 non d ame     -33.446   9.235  28.140  0.00  0.00     0.241 C 
ATOM      5  O4  non d ame     -33.076   8.125  28.335  0.00  0.00    -0.271 OA
ATOM      6  H19 non d ame     -35.000  10.433  27.119  0.00  0.00     0.163 HD
BRANCH   4   7
ATOM      7  C9  non d ame     -32.693  10.395  28.738  0.00  0.00     0.092 C 
ATOM      8  H11 non d ame     -31.626  10.258  28.564  0.00  0.00     0.088 H 
BRANCH   7   9
ATOM      9  N3  non d ame     -33.087  11.635  28.061  0.00  0.00    -0.346 N 
ATOM     10  C7  non d ame     -32.166  12.291  27.167  0.00  0.00     0.240 C 
ATOM     11  O3  non d ame     -31.103  11.836  26.981  0.00  0.00    -0.271 OA
ATOM     12  H10 non d ame     -34.000  12.040  28.213  0.00  0.00     0.163 HD
BRANCH  10  13
ATOM     13  C6  non d ame     -32.589  13.611  26.451  0.00  0.00     0.086 C 
ATOM     14  H6  non d ame     -32.145  14.497  26.905  0.00  0.00     0.086 H 
BRANCH  13  15
ATOM     15  N2  non d ame     -32.125  13.572  25.075  0.00  0.00    -0.343 N 
ATOM     16  C5  non d ame     -31.324  14.680  24.551  0.00  0.00     0.273 C 
ATOM     17  O2  non d ame     -31.060  15.600  25.245  0.00  0.00    -0.266 OA
ATOM     18  H5  non d ame     -32.358  12.783  24.488  0.00  0.00     0.163 HD
BRANCH  16  19
ATOM     19  C4  non d ame     -30.825  14.650  23.098  0.00  0.00     0.154 A 
ATOM     20  C1  non d ame     -31.223  15.515  22.030  0.00  0.00    -0.017 A 
ATOM     21  C2  non d ame     -30.480  15.077  20.911  0.00  0.00     0.077 A 
ATOM     22  H1  non d ame     -31.941  16.335  22.061  0.00  0.00     0.091 H 
ATOM     23  O1  non d ame     -29.744  14.078  21.302  0.00  0.00    -0.218 OA
ATOM     24  N1  non d ame     -29.928  13.810  22.574  0.00  0.00    -0.123 NA
BRANCH  21  25
ATOM     25  C3  non d ame     -30.532  15.666  19.507  0.00  0.00    -0.029 C 
ATOM     26  H2  non d ame     -30.254  16.719  19.545  0.00  0.00     0.036 H 
ATOM     27  H3  non d ame     -29.835  15.129  18.863  0.00  0.00     0.036 H 
ATOM     28  H4  non d ame     -31.542  15.570  19.110  0.00  0.00     0.036 H 
ENDBRANCH  21  25
ENDBRANCH  16  19
ENDBRANCH  13  15
BRANCH  13  29
ATOM     29  C8  non d ame     -34.090  13.746  26.487  0.00  0.00    -0.049 C 
ATOM     30  H7  non d ame     -34.510  13.379  25.551  0.00  0.00     0.030 H 
ATOM     31  H8  non d ame     -34.488  13.162  27.317  0.00  0.00     0.030 H 
ATOM     32  H9  non d ame     -34.358  14.795  26.619  0.00  0.00     0.030 H 
ENDBRANCH  13  29
ENDBRANCH  10  13
ENDBRANCH   7   9
BRANCH   7  33
ATOM     33  C11 non d ame     -33.030  10.506  30.254  0.00  0.00    -0.033 C 
ATOM     34  H12 non d ame     -32.514   9.693  30.765  0.00  0.00     0.042 H 
BRANCH  33  35
ATOM     35  C12 non d ame     -32.506  11.847  30.856  0.00  0.00    -0.071 C 
ATOM     36  H13 non d ame     -33.191  12.190  31.631  0.00  0.00     0.028 H 
ATOM     37  H14 non d ame     -31.518  11.689  31.289  0.00  0.00     0.028 H 
ATOM     38  H15 non d ame     -32.442  12.598  30.069  0.00  0.00     0.028 H 
ENDBRANCH  33  35
BRANCH  33  39
ATOM     39  C13 non d ame     -34.563  10.336  30.500  0.00  0.00    -0.071 C 
ATOM     40  H16 non d ame     -34.762  10.341  31.572  0.00  0.00     0.028 H 
ATOM     41  H17 non d ame     -35.101  11.158  30.027  0.00  0.00     0.028 H 
ATOM     42  H18 non d ame     -34.897   9.390  30.073  0.00  0.00     0.028 H 
ENDBRANCH  33  39
ENDBRANCH   7  33
ENDBRANCH   4   7
ENDBRANCH   1   3
BRANCH   1  43
ATOM     43  C15 non d ame     -34.714   7.991  25.368  0.00  0.00     0.240 C 
ATOM     44  O5  non d ame     -35.123   8.427  24.341  0.00  0.00    -0.271 OA
ATOM     45  N6  non d ame     -33.538   7.075  25.368  0.00  0.00    -0.355 N 
ATOM     46  H46 non d ame     -33.178   6.702  26.235  0.00  0.00     0.162 HD
BRANCH  45  47
ATOM     47  C20 non d ame     -32.894   6.709  24.088  0.00  0.00     0.013 C 
ATOM     48  H30 non d ame     -33.566   6.996  23.280  0.00  0.00     0.072 H 
BRANCH  47  49
ATOM     49  C21 non d ame     -32.656   5.216  24.057  0.00  0.00    -0.038 C 
ATOM     50  H31 non d ame     -32.337   4.990  23.039  0.00  0.00     0.036 H 
ATOM     51  H32 non d ame     -31.992   5.006  24.896  0.00  0.00     0.036 H 
BRANCH  49  52
ATOM     52  C22 non d ame     -33.943   4.399  24.303  0.00  0.00     0.018 C 
ATOM     53  H33 non d ame     -34.764   5.111  24.226  0.00  0.00     0.048 H 
ATOM     54  H34 non d ame     -33.890   3.552  23.619  0.00  0.00     0.048 H 
BRANCH  52  55
ATOM     55  C23 non d ame     -34.036   3.792  25.731  0.00  0.00     0.259 C 
ATOM     56  O7  non d ame     -33.584   2.717  25.960  0.00  0.00    -0.265 OA
BRANCH  55  57
ATOM     57  O8  non d ame     -34.680   4.531  26.761  0.00  0.00    -0.317 OA
BRANCH  57  58
ATOM     58  C29 non d ame     -36.004   4.081  27.060  0.00  0.00     0.052 C 
ATOM     59  H47 non d ame     -36.622   4.405  26.223  0.00  0.00     0.082 H 
ATOM     60  H48 non d ame     -35.911   3.020  27.289  0.00  0.00     0.082 H 
BRANCH  58  61
ATOM     61  C35 non d ame     -36.484   4.819  28.339  0.00  0.00    -0.034 A 
ATOM     62  C30 non d ame     -35.582   5.560  29.095  0.00  0.00    -0.075 A 
ATOM     63  C31 non d ame     -36.012   6.222  30.244  0.00  0.00    -0.082 A 
ATOM     64  H49 non d ame     -34.537   5.621  28.789  0.00  0.00     0.084 H 
ATOM     65  C32 non d ame     -37.351   6.139  30.637  0.00  0.00    -0.083 A 
ATOM     66  H50 non d ame     -35.303   6.804  30.834  0.00  0.00     0.083 H 
ATOM     67  C33 non d ame     -38.247   5.396  29.881  0.00  0.00    -0.082 A 
ATOM     68  H51 non d ame     -37.696   6.655  31.533  0.00  0.00     0.083 H 
ATOM     69  C34 non d ame     -37.821   4.734  28.731  0.00  0.00    -0.075 A 
ATOM     70  H52 non d ame     -39.290   5.331  30.191  0.00  0.00     0.083 H 
ATOM     71  H53 non d ame     -38.531   4.153  28.141  0.00  0.00     0.084 H 
ENDBRANCH  58  61
ENDBRANCH  57  58
ENDBRANCH  55  57
ENDBRANCH  52  55
ENDBRANCH  49  52
ENDBRANCH  47  49
BRANCH  47  72
ATOM     72  C24 non d ame     -31.560   7.441  23.954  0.00  0.00    -0.039 C 
ATOM     73  H35 non d ame     -31.267   7.699  24.972  0.00  0.00     0.036 H 
ATOM     74  H36 non d ame     -30.928   6.785  23.355  0.00  0.00     0.036 H 
BRANCH  72  75
ATOM     75  C25 non d ame     -31.716   8.814  23.144  0.00  0.00    -0.001 C 
ATOM     76  C26 non d ame     -30.497   8.962  22.051  0.00  0.00    -0.035 C 
ATOM     77  C27 non d ame     -29.913  10.174  22.209  0.00  0.00     0.085 C 
ATOM     78  H38 non d ame     -29.697   8.261  22.287  0.00  0.00     0.036 H 
ATOM     79  H39 non d ame     -30.903   9.005  21.040  0.00  0.00     0.036 H 
ATOM     80  N5  non d ame     -30.407  10.734  23.522  0.00  0.00    -0.049 N 
ATOM     81  H40 non d ame     -28.845   9.975  22.287  0.00  0.00     0.075 H 
ATOM     82  H41 non d ame     -30.295  10.789  21.395  0.00  0.00     0.075 H 
ATOM     83  C28 non d ame     -31.680   9.832  23.938  0.00  0.00     0.193 C 
ATOM     84  H42 non d ame     -29.670  10.579  24.194  0.00  0.00     0.280 HD
ATOM     85  H43 non d ame     -30.727  11.672  23.329  0.00  0.00     0.280 HD
ATOM     86  H44 non d ame     -32.693  10.215  23.817  0.00  0.00     0.129 H 
ATOM     87  H37 non d ame     -32.732   8.964  22.777  0.00  0.00     0.046 H 
BRANCH  83  88
ATOM     88  O6  non d ame     -31.580   9.442  25.309  0.00  0.00    -0.369 OA
ATOM     89  H45 non d ame     -30.879   9.942  25.734  0.00  0.00     0.212 HD
ENDBRANCH  83  88
ENDBRANCH  72  75
ENDBRANCH  47  72
ENDBRANCH  45  47
ENDBRANCH   1  43
BRANCH   1  90
ATOM     90  C16 non d ame     -36.832   8.828  26.433  0.00  0.00    -0.035 C 
ATOM     91  H21 non d ame     -36.872   9.876  26.731  0.00  0.00     0.037 H 
ATOM     92  H22 non d ame     -37.029   8.548  25.398  0.00  0.00     0.037 H 
BRANCH  90  93
ATOM     93  C17 non d ame     -37.894   8.083  27.302  0.00  0.00    -0.059 C 
ATOM     94  H23 non d ame     -37.380   7.288  27.843  0.00  0.00     0.038 H 
BRANCH  93  95
ATOM     95  C18 non d ame     -38.558   9.024  28.358  0.00  0.00    -0.073 C 
ATOM     96  H24 non d ame     -37.868   9.186  29.186  0.00  0.00     0.028 H 
ATOM     97  H25 non d ame     -38.797   9.980  27.893  0.00  0.00     0.028 H 
ATOM     98  H26 non d ame     -39.472   8.563  28.732  0.00  0.00     0.028 H 
ENDBRANCH  93  95
BRANCH  93  99
ATOM     99  C19 non d ame     -38.955   7.420  26.420  0.00  0.00    -0.073 C 
ATOM    100  H27 non d ame     -38.536   6.527  25.956  0.00  0.00     0.028 H 
ATOM    101  H28 non d ame     -39.815   7.143  27.030  0.00  0.00     0.028 H 
ATOM    102  H29 non d ame     -39.270   8.118  25.645  0.00  0.00     0.028 H 
ENDBRANCH  93  99
ENDBRANCH  90  93
ENDBRANCH   1  90
TORSDOF 26
ENDMDL
MODEL 15
REMARK VINA RESULT:      -6.8      3.333      7.463
REMARK  26 active torsions:
REMARK  status: ('A' for Active; 'I' for Inactive)
REMARK    1  A    between atoms: C2_2  and  C3_3 
REMARK    2  A    between atoms: C4_6  and  C5_7 
REMARK       I    between atoms: C5_7  and  N2_9 
REMARK    3  A    between atoms: N2_9  and  C6_10 
REMARK    4  A    between atoms: C6_10  and  C7_11 
REMARK    5  A    between atoms: C6_10  and  C8_13 
REMARK       I    between atoms: C7_11  and  N3_14 
REMARK    6  A    between atoms: N3_14  and  C9_15 
REMARK    7  A    between atoms: C9_15  and  C10_16 
REMARK    8  A    between atoms: C9_15  and  C11_18 
REMARK       I    between atoms: C10_16  and  N4_21 
REMARK    9  A    between atoms: C11_18  and  C12_19 
REMARK   10  A    between atoms: C11_18  and  C13_20 
REMARK   11  A    between atoms: N4_21  and  C14_22 
REMARK   12  A    between atoms: C14_22  and  C15_23 
REMARK   13  A    between atoms: C14_22  and  C16_25 
REMARK       I    between atoms: C15_23  and  N6_40 
REMARK   14  A    between atoms: C16_25  and  C17_26 
REMARK   15  A    between atoms: C17_26  and  C18_27 
REMARK   16  A    between atoms: C17_26  and  C19_28 
REMARK   17  A    between atoms: C20_29  and  C21_30 
REMARK   18  A    between atoms: C20_29  and  C24_33 
REMARK   19  A    between atoms: C20_29  and  N6_40 
REMARK   20  A    between atoms: C21_30  and  C22_31 
REMARK   21  A    between atoms: C22_31  and  C23_32 
REMARK   22  A    between atoms: C23_32  and  O8_43 
REMARK   23  A    between atoms: C24_33  and  C25_34 
REMARK   24  A    between atoms: C28_38  and  O6_39 
REMARK   25  A    between atoms: C29_42  and  O8_43 
REMARK   26  A    between atoms: C29_42  and  C35_49 
ROOT
ATOM      1  C14 non d ame     -32.637  10.453  26.581  0.00  0.00     0.089 C 
ATOM      2  H20 non d ame     -33.623  10.519  26.120  0.00  0.00     0.087 H 
ENDROOT
BRANCH   1   3
ATOM      3  N4  non d ame     -32.136   9.105  26.356  0.00  0.00    -0.346 N 
ATOM      4  C10 non d ame     -32.798   8.207  25.341  0.00  0.00     0.241 C 
ATOM      5  O4  non d ame     -33.734   8.591  24.720  0.00  0.00    -0.271 OA
ATOM      6  H19 non d ame     -31.340   8.797  26.896  0.00  0.00     0.163 HD
BRANCH   4   7
ATOM      7  C9  non d ame     -32.263   6.817  25.116  0.00  0.00     0.092 C 
ATOM      8  H11 non d ame     -31.232   6.769  25.467  0.00  0.00     0.088 H 
BRANCH   7   9
ATOM      9  N3  non d ame     -33.038   5.861  25.913  0.00  0.00    -0.346 N 
ATOM     10  C7  non d ame     -32.754   5.697  27.318  0.00  0.00     0.240 C 
ATOM     11  O3  non d ame     -31.906   6.326  27.823  0.00  0.00    -0.271 OA
ATOM     12  H10 non d ame     -33.771   5.310  25.491  0.00  0.00     0.163 HD
BRANCH  10  13
ATOM     13  C6  non d ame     -33.580   4.675  28.159  0.00  0.00     0.086 C 
ATOM     14  H6  non d ame     -33.042   4.322  29.039  0.00  0.00     0.086 H 
BRANCH  13  15
ATOM     15  N2  non d ame     -34.785   5.328  28.643  0.00  0.00    -0.343 N 
ATOM     16  C5  non d ame     -35.010   5.449  30.085  0.00  0.00     0.273 C 
ATOM     17  O2  non d ame     -34.218   5.016  30.848  0.00  0.00    -0.266 OA
ATOM     18  H5  non d ame     -35.459   5.693  27.985  0.00  0.00     0.163 HD
BRANCH  16  19
ATOM     19  C4  non d ame     -36.279   6.138  30.611  0.00  0.00     0.154 A 
ATOM     20  C1  non d ame     -36.553   7.542  30.638  0.00  0.00    -0.017 A 
ATOM     21  C2  non d ame     -37.840   7.651  31.211  0.00  0.00     0.077 A 
ATOM     22  H1  non d ame     -35.915   8.357  30.295  0.00  0.00     0.091 H 
ATOM     23  O1  non d ame     -38.249   6.445  31.477  0.00  0.00    -0.218 OA
ATOM     24  N1  non d ame     -37.355   5.545  31.136  0.00  0.00    -0.123 NA
BRANCH  21  25
ATOM     25  C3  non d ame     -38.606   8.942  31.469  0.00  0.00    -0.029 C 
ATOM     26  H2  non d ame     -37.912   9.718  31.792  0.00  0.00     0.036 H 
ATOM     27  H3  non d ame     -39.103   9.258  30.552  0.00  0.00     0.036 H 
ATOM     28  H4  non d ame     -39.351   8.773  32.246  0.00  0.00     0.036 H 
ENDBRANCH  21  25
ENDBRANCH  16  19
ENDBRANCH  13  15
BRANCH  13  29
ATOM     29  C8  non d ame     -33.943   3.490  27.301  0.00  0.00    -0.049 C 
ATOM     30  H7  non d ame     -33.049   3.114  26.804  0.00  0.00     0.030 H 
ATOM     31  H8  non d ame     -34.367   2.705  27.927  0.00  0.00     0.030 H 
ATOM     32  H9  non d ame     -34.675   3.794  26.553  0.00  0.00     0.030 H 
ENDBRANCH  13  29
ENDBRANCH  10  13
ENDBRANCH   7   9
BRANCH   7  33
ATOM     33  C11 non d ame     -32.386   6.452  23.608  0.00  0.00    -0.033 C 
ATOM     34  H12 non d ame     -33.096   7.147  23.158  0.00  0.00     0.042 H 
BRANCH  33  35
ATOM     35  C12 non d ame     -31.024   6.627  22.867  0.00  0.00    -0.071 C 
ATOM     36  H13 non d ame     -30.802   5.725  22.297  0.00  0.00     0.028 H 
ATOM     37  H14 non d ame     -31.086   7.479  22.191  0.00  0.00     0.028 H 
ATOM     38  H15 non d ame     -30.233   6.799  23.597  0.00  0.00     0.028 H 
ENDBRANCH  33  35
BRANCH  33  39
ATOM     39  C13 non d ame     -32.947   5.004  23.427  0.00  0.00    -0.071 C 
ATOM     40  H16 non d ame     -32.333   4.465  22.705  0.00  0.00     0.028 H 
ATOM     41  H17 non d ame     -32.925   4.484  24.385  0.00  0.00     0.028 H 
ATOM     42  H18 non d ame     -33.974   5.055  23.066  0.00  0.00     0.028 H 
ENDBRANCH  33  39
ENDBRANCH   7  33
ENDBRANCH   4   7
ENDBRANCH   1   3
BRANCH   1  43
ATOM     43  C15 non d ame     -31.631  11.465  25.962  0.00  0.00     0.240 C 
ATOM     44  O5  non d ame     -30.598  11.077  25.521  0.00  0.00    -0.271 OA
ATOM     45  N6  non d ame     -31.959  12.919  25.912  0.00  0.00    -0.355 N 
ATOM     46  H46 non d ame     -32.835  13.260  26.280  0.00  0.00     0.162 HD
BRANCH  45  47
ATOM     47  C20 non d ame     -30.992  13.868  25.320  0.00  0.00     0.013 C 
ATOM     48  H30 non d ame     -29.990  13.548  25.604  0.00  0.00     0.072 H 
BRANCH  47  49
ATOM     49  C21 non d ame     -31.262  15.256  25.855  0.00  0.00    -0.038 C 
ATOM     50  H31 non d ame     -30.500  15.432  26.614  0.00  0.00     0.036 H 
ATOM     51  H32 non d ame     -31.320  15.903  24.979  0.00  0.00     0.036 H 
BRANCH  49  52
ATOM     52  C22 non d ame     -32.626  15.367  26.570  0.00  0.00     0.018 C 
ATOM     53  H33 non d ame     -33.154  16.181  26.075  0.00  0.00     0.048 H 
ATOM     54  H34 non d ame     -33.046  14.361  26.563  0.00  0.00     0.048 H 
BRANCH  52  55
ATOM     55  C23 non d ame     -32.517  15.776  28.066  0.00  0.00     0.259 C 
ATOM     56  O7  non d ame     -31.905  15.104  28.831  0.00  0.00    -0.265 OA
BRANCH  55  57
ATOM     57  O8  non d ame     -33.170  16.957  28.515  0.00  0.00    -0.317 OA
BRANCH  57  58
ATOM     58  C29 non d ame     -32.745  18.147  27.844  0.00  0.00     0.052 C 
ATOM     59  H47 non d ame     -32.320  18.786  28.619  0.00  0.00     0.082 H 
ATOM     60  H48 non d ame     -32.125  17.813  27.013  0.00  0.00     0.082 H 
BRANCH  58  61
ATOM     61  C35 non d ame     -34.004  18.847  27.266  0.00  0.00    -0.034 A 
ATOM     62  C30 non d ame     -34.309  18.725  25.914  0.00  0.00    -0.075 A 
ATOM     63  C31 non d ame     -35.440  19.354  25.395  0.00  0.00    -0.082 A 
ATOM     64  H49 non d ame     -33.663  18.138  25.262  0.00  0.00     0.084 H 
ATOM     65  C32 non d ame     -36.266  20.108  26.232  0.00  0.00    -0.083 A 
ATOM     66  H50 non d ame     -35.678  19.255  24.335  0.00  0.00     0.083 H 
ATOM     67  C33 non d ame     -35.956  20.229  27.580  0.00  0.00    -0.082 A 
ATOM     68  H51 non d ame     -37.152  20.602  25.834  0.00  0.00     0.083 H 
ATOM     69  C34 non d ame     -34.828  19.601  28.104  0.00  0.00    -0.075 A 
ATOM     70  H52 non d ame     -36.601  20.821  28.230  0.00  0.00     0.083 H 
ATOM     71  H53 non d ame     -34.591  19.700  29.164  0.00  0.00     0.084 H 
ENDBRANCH  58  61
ENDBRANCH  57  58
ENDBRANCH  55  57
ENDBRANCH  52  55
ENDBRANCH  49  52
ENDBRANCH  47  49
BRANCH  47  72
ATOM     72  C24 non d ame     -31.137  13.871  23.799  0.00  0.00    -0.039 C 
ATOM     73  H35 non d ame     -30.761  12.901  23.470  0.00  0.00     0.036 H 
ATOM     74  H36 non d ame     -32.174  14.146  23.607  0.00  0.00     0.036 H 
BRANCH  72  75
ATOM     75  C25 non d ame     -30.216  14.991  23.118  0.00  0.00    -0.001 C 
ATOM     76  C26 non d ame     -31.156  16.082  22.325  0.00  0.00    -0.035 C 
ATOM     77  C27 non d ame     -30.692  16.222  21.061  0.00  0.00     0.085 C 
ATOM     78  H38 non d ame     -32.159  15.680  22.185  0.00  0.00     0.036 H 
ATOM     79  H39 non d ame     -31.022  17.074  22.757  0.00  0.00     0.036 H 
ATOM     80  N5  non d ame     -29.726  15.087  20.818  0.00  0.00    -0.049 N 
ATOM     81  H40 non d ame     -31.561  16.093  20.415  0.00  0.00     0.075 H 
ATOM     82  H41 non d ame     -30.142  17.162  21.054  0.00  0.00     0.075 H 
ATOM     83  C28 non d ame     -29.393  14.468  22.271  0.00  0.00     0.193 C 
ATOM     84  H42 non d ame     -30.228  14.394  20.280  0.00  0.00     0.280 HD
ATOM     85  H43 non d ame     -28.885  15.503  20.445  0.00  0.00     0.280 HD
ATOM     86  H44 non d ame     -28.443  14.683  22.760  0.00  0.00     0.129 H 
ATOM     87  H37 non d ame     -29.470  15.387  23.807  0.00  0.00     0.046 H 
BRANCH  83  88
ATOM     88  O6  non d ame     -29.491  13.043  22.234  0.00  0.00    -0.369 OA
ATOM     89  H45 non d ame     -30.307  12.789  21.797  0.00  0.00     0.212 HD
ENDBRANCH  83  88
ENDBRANCH  72  75
ENDBRANCH  47  72
ENDBRANCH  45  47
ENDBRANCH   1  43
BRANCH   1  90
ATOM     90  C16 non d ame     -32.751  10.696  28.078  0.00  0.00    -0.035 C 
ATOM     91  H21 non d ame     -31.758  10.497  28.479  0.00  0.00     0.037 H 
ATOM     92  H22 non d ame     -33.189  11.689  28.177  0.00  0.00     0.037 H 
BRANCH  90  93
ATOM     93  C17 non d ame     -33.723   9.710  28.800  0.00  0.00    -0.059 C 
ATOM     94  H23 non d ame     -33.401   8.696  28.566  0.00  0.00     0.038 H 
BRANCH  93  95
ATOM     95  C18 non d ame     -33.684   9.875  30.353  0.00  0.00    -0.073 C 
ATOM     96  H24 non d ame     -34.588   9.450  30.787  0.00  0.00     0.028 H 
ATOM     97  H25 non d ame     -32.812   9.357  30.752  0.00  0.00     0.028 H 
ATOM     98  H26 non d ame     -33.623  10.934  30.604  0.00  0.00     0.028 H 
ENDBRANCH  93  95
BRANCH  93  99
ATOM     99  C19 non d ame     -35.152   9.866  28.272  0.00  0.00    -0.073 C 
ATOM    100  H27 non d ame     -35.561   8.884  28.033  0.00  0.00     0.028 H 
ATOM    101  H28 non d ame     -35.771  10.342  29.033  0.00  0.00     0.028 H 
ATOM    102  H29 non d ame     -35.142  10.484  27.375  0.00  0.00     0.028 H 
ENDBRANCH  93  99
ENDBRANCH  90  93
ENDBRANCH   1  90
TORSDOF 26
ENDMDL
MODEL 16
REMARK VINA RESULT:      -6.8      3.425      9.394
REMARK  26 active torsions:
REMARK  status: ('A' for Active; 'I' for Inactive)
REMARK    1  A    between atoms: C2_2  and  C3_3 
REMARK    2  A    between atoms: C4_6  and  C5_7 
REMARK       I    between atoms: C5_7  and  N2_9 
REMARK    3  A    between atoms: N2_9  and  C6_10 
REMARK    4  A    between atoms: C6_10  and  C7_11 
REMARK    5  A    between atoms: C6_10  and  C8_13 
REMARK       I    between atoms: C7_11  and  N3_14 
REMARK    6  A    between atoms: N3_14  and  C9_15 
REMARK    7  A    between atoms: C9_15  and  C10_16 
REMARK    8  A    between atoms: C9_15  and  C11_18 
REMARK       I    between atoms: C10_16  and  N4_21 
REMARK    9  A    between atoms: C11_18  and  C12_19 
REMARK   10  A    between atoms: C11_18  and  C13_20 
REMARK   11  A    between atoms: N4_21  and  C14_22 
REMARK   12  A    between atoms: C14_22  and  C15_23 
REMARK   13  A    between atoms: C14_22  and  C16_25 
REMARK       I    between atoms: C15_23  and  N6_40 
REMARK   14  A    between atoms: C16_25  and  C17_26 
REMARK   15  A    between atoms: C17_26  and  C18_27 
REMARK   16  A    between atoms: C17_26  and  C19_28 
REMARK   17  A    between atoms: C20_29  and  C21_30 
REMARK   18  A    between atoms: C20_29  and  C24_33 
REMARK   19  A    between atoms: C20_29  and  N6_40 
REMARK   20  A    between atoms: C21_30  and  C22_31 
REMARK   21  A    between atoms: C22_31  and  C23_32 
REMARK   22  A    between atoms: C23_32  and  O8_43 
REMARK   23  A    between atoms: C24_33  and  C25_34 
REMARK   24  A    between atoms: C28_38  and  O6_39 
REMARK   25  A    between atoms: C29_42  and  O8_43 
REMARK   26  A    between atoms: C29_42  and  C35_49 
ROOT
ATOM      1  C14 non d ame     -35.007   8.112  30.845  0.00  0.00     0.089 C 
ATOM      2  H20 non d ame     -34.794   8.335  31.890  0.00  0.00     0.087 H 
ENDROOT
BRANCH   1   3
ATOM      3  N4  non d ame     -34.123   8.934  30.032  0.00  0.00    -0.346 N 
ATOM      4  C10 non d ame     -33.531  10.202  30.593  0.00  0.00     0.241 C 
ATOM      5  O4  non d ame     -33.784  10.542  31.702  0.00  0.00    -0.271 OA
ATOM      6  H19 non d ame     -33.922   8.628  29.090  0.00  0.00     0.163 HD
BRANCH   4   7
ATOM      7  C9  non d ame     -32.614  11.037  29.740  0.00  0.00     0.092 C 
ATOM      8  H11 non d ame     -31.862  10.393  29.285  0.00  0.00     0.088 H 
BRANCH   7   9
ATOM      9  N3  non d ame     -33.380  11.646  28.649  0.00  0.00    -0.346 N 
ATOM     10  C7  non d ame     -33.425  11.007  27.356  0.00  0.00     0.240 C 
ATOM     11  O3  non d ame     -32.849  10.004  27.176  0.00  0.00    -0.271 OA
ATOM     12  H10 non d ame     -33.881  12.512  28.788  0.00  0.00     0.163 HD
BRANCH  10  13
ATOM     13  C6  non d ame     -34.240  11.662  26.197  0.00  0.00     0.086 C 
ATOM     14  H6  non d ame     -35.003  12.352  26.556  0.00  0.00     0.086 H 
BRANCH  13  15
ATOM     15  N2  non d ame     -33.336  12.438  25.365  0.00  0.00    -0.343 N 
ATOM     16  C5  non d ame     -32.990  13.806  25.757  0.00  0.00     0.273 C 
ATOM     17  O2  non d ame     -33.447  14.274  26.741  0.00  0.00    -0.266 OA
ATOM     18  H5  non d ame     -32.952  12.031  24.524  0.00  0.00     0.163 HD
BRANCH  16  19
ATOM     19  C4  non d ame     -32.034  14.638  24.887  0.00  0.00     0.154 A 
ATOM     20  C1  non d ame     -30.913  14.161  24.136  0.00  0.00    -0.017 A 
ATOM     21  C2  non d ame     -30.374  15.312  23.518  0.00  0.00     0.077 A 
ATOM     22  H1  non d ame     -30.547  13.138  24.052  0.00  0.00     0.091 H 
ATOM     23  O1  non d ame     -31.108  16.324  23.878  0.00  0.00    -0.218 OA
ATOM     24  N1  non d ame     -32.083  15.956  24.677  0.00  0.00    -0.123 NA
BRANCH  21  25
ATOM     25  C3  non d ame     -29.160  15.357  22.601  0.00  0.00    -0.029 C 
ATOM     26  H2  non d ame     -29.459  15.722  21.619  0.00  0.00     0.036 H 
ATOM     27  H3  non d ame     -28.410  16.026  23.023  0.00  0.00     0.036 H 
ATOM     28  H4  non d ame     -28.740  14.357  22.504  0.00  0.00     0.036 H 
ENDBRANCH  21  25
ENDBRANCH  16  19
ENDBRANCH  13  15
BRANCH  13  29
ATOM     29  C8  non d ame     -34.903  10.586  25.376  0.00  0.00    -0.049 C 
ATOM     30  H7  non d ame     -35.886  10.930  25.052  0.00  0.00     0.030 H 
ATOM     31  H8  non d ame     -34.290  10.366  24.503  0.00  0.00     0.030 H 
ATOM     32  H9  non d ame     -35.015   9.685  25.979  0.00  0.00     0.030 H 
ENDBRANCH  13  29
ENDBRANCH  10  13
ENDBRANCH   7   9
BRANCH   7  33
ATOM     33  C11 non d ame     -31.974  12.159  30.610  0.00  0.00    -0.033 C 
ATOM     34  H12 non d ame     -32.522  12.197  31.551  0.00  0.00     0.042 H 
BRANCH  33  35
ATOM     35  C12 non d ame     -30.485  11.838  30.946  0.00  0.00    -0.071 C 
ATOM     36  H13 non d ame     -30.442  11.010  31.654  0.00  0.00     0.028 H 
ATOM     37  H14 non d ame     -29.957  11.564  30.033  0.00  0.00     0.028 H 
ATOM     38  H15 non d ame     -30.015  12.717  31.388  0.00  0.00     0.028 H 
ENDBRANCH  33  35
BRANCH  33  39
ATOM     39  C13 non d ame     -32.111  13.552  29.915  0.00  0.00    -0.071 C 
ATOM     40  H16 non d ame     -32.790  14.181  30.492  0.00  0.00     0.028 H 
ATOM     41  H17 non d ame     -31.131  14.028  29.860  0.00  0.00     0.028 H 
ATOM     42  H18 non d ame     -32.506  13.418  28.908  0.00  0.00     0.028 H 
ENDBRANCH  33  39
ENDBRANCH   7  33
ENDBRANCH   4   7
ENDBRANCH   1   3
BRANCH   1  43
ATOM     43  C15 non d ame     -34.751   6.617  30.499  0.00  0.00     0.240 C 
ATOM     44  O5  non d ame     -34.957   5.778  31.315  0.00  0.00    -0.271 OA
ATOM     45  N6  non d ame     -34.257   6.231  29.147  0.00  0.00    -0.355 N 
ATOM     46  H46 non d ame     -34.083   6.934  28.444  0.00  0.00     0.162 HD
BRANCH  45  47
ATOM     47  C20 non d ame     -34.020   4.805  28.833  0.00  0.00     0.013 C 
ATOM     48  H30 non d ame     -33.976   4.257  29.775  0.00  0.00     0.072 H 
BRANCH  47  49
ATOM     49  C21 non d ame     -32.708   4.667  28.094  0.00  0.00    -0.038 C 
ATOM     50  H31 non d ame     -31.968   4.412  28.853  0.00  0.00     0.036 H 
ATOM     51  H32 non d ame     -32.904   3.980  27.272  0.00  0.00     0.036 H 
BRANCH  49  52
ATOM     52  C22 non d ame     -32.239   5.992  27.454  0.00  0.00     0.018 C 
ATOM     53  H33 non d ame     -32.842   6.773  27.916  0.00  0.00     0.048 H 
ATOM     54  H34 non d ame     -31.154   6.005  27.564  0.00  0.00     0.048 H 
BRANCH  52  55
ATOM     55  C23 non d ame     -32.516   6.082  25.928  0.00  0.00     0.259 C 
ATOM     56  O7  non d ame     -32.815   5.112  25.311  0.00  0.00    -0.265 OA
BRANCH  55  57
ATOM     57  O8  non d ame     -32.395   7.338  25.271  0.00  0.00    -0.317 OA
BRANCH  57  58
ATOM     58  C29 non d ame     -32.359   7.248  23.844  0.00  0.00     0.052 C 
ATOM     59  H47 non d ame     -31.890   6.290  23.621  0.00  0.00     0.082 H 
ATOM     60  H48 non d ame     -33.377   7.447  23.510  0.00  0.00     0.082 H 
BRANCH  58  61
ATOM     61  C35 non d ame     -31.439   8.381  23.316  0.00  0.00    -0.034 A 
ATOM     62  C30 non d ame     -31.603   9.683  23.776  0.00  0.00    -0.075 A 
ATOM     63  C31 non d ame     -30.777  10.701  23.301  0.00  0.00    -0.082 A 
ATOM     64  H49 non d ame     -32.379   9.907  24.507  0.00  0.00     0.084 H 
ATOM     65  C32 non d ame     -29.784  10.412  22.361  0.00  0.00    -0.083 A 
ATOM     66  H50 non d ame     -30.907  11.721  23.664  0.00  0.00     0.083 H 
ATOM     67  C33 non d ame     -29.626   9.111  21.902  0.00  0.00    -0.082 A 
ATOM     68  H51 non d ame     -29.133  11.201  21.985  0.00  0.00     0.083 H 
ATOM     69  C34 non d ame     -30.448   8.091  22.376  0.00  0.00    -0.075 A 
ATOM     70  H52 non d ame     -28.852   8.890  21.167  0.00  0.00     0.083 H 
ATOM     71  H53 non d ame     -30.317   7.071  22.012  0.00  0.00     0.084 H 
ENDBRANCH  58  61
ENDBRANCH  57  58
ENDBRANCH  55  57
ENDBRANCH  52  55
ENDBRANCH  49  52
ENDBRANCH  47  49
BRANCH  47  72
ATOM     72  C24 non d ame     -35.155   4.272  27.961  0.00  0.00    -0.039 C 
ATOM     73  H35 non d ame     -34.680   3.946  27.035  0.00  0.00     0.036 H 
ATOM     74  H36 non d ame     -35.685   3.552  28.584  0.00  0.00     0.036 H 
BRANCH  72  75
ATOM     75  C25 non d ame     -36.199   5.425  27.577  0.00  0.00    -0.001 C 
ATOM     76  C26 non d ame     -37.609   5.198  28.393  0.00  0.00    -0.035 C 
ATOM     77  C27 non d ame     -38.634   5.228  27.508  0.00  0.00     0.085 C 
ATOM     78  H38 non d ame     -37.649   4.186  28.794  0.00  0.00     0.036 H 
ATOM     79  H39 non d ame     -37.807   6.050  29.042  0.00  0.00     0.036 H 
ATOM     80  N5  non d ame     -38.030   5.128  26.128  0.00  0.00    -0.049 N 
ATOM     81  H40 non d ame     -39.217   4.329  27.707  0.00  0.00     0.075 H 
ATOM     82  H41 non d ame     -39.090   6.211  27.625  0.00  0.00     0.075 H 
ATOM     83  C28 non d ame     -36.453   5.423  26.311  0.00  0.00     0.193 C 
ATOM     84  H42 non d ame     -38.146   4.169  25.834  0.00  0.00     0.280 HD
ATOM     85  H43 non d ame     -38.436   5.876  25.584  0.00  0.00     0.280 HD
ATOM     86  H44 non d ame     -36.033   6.386  26.023  0.00  0.00     0.129 H 
ATOM     87  H37 non d ame     -35.753   6.419  27.625  0.00  0.00     0.046 H 
BRANCH  83  88
ATOM     88  O6  non d ame     -35.684   4.445  25.609  0.00  0.00    -0.369 OA
ATOM     89  H45 non d ame     -34.874   4.846  25.286  0.00  0.00     0.212 HD
ENDBRANCH  83  88
ENDBRANCH  72  75
ENDBRANCH  47  72
ENDBRANCH  45  47
ENDBRANCH   1  43
BRANCH   1  90
ATOM     90  C16 non d ame     -36.450   8.471  30.526  0.00  0.00    -0.035 C 
ATOM     91  H21 non d ame     -36.900   7.551  30.153  0.00  0.00     0.037 H 
ATOM     92  H22 non d ame     -36.837   8.940  31.431  0.00  0.00     0.037 H 
BRANCH  90  93
ATOM     93  C17 non d ame     -36.596   9.526  29.384  0.00  0.00    -0.059 C 
ATOM     94  H23 non d ame     -35.638  10.036  29.281  0.00  0.00     0.038 H 
BRANCH  93  95
ATOM     95  C18 non d ame     -36.934   8.865  28.010  0.00  0.00    -0.073 C 
ATOM     96  H24 non d ame     -36.027   8.450  27.573  0.00  0.00     0.028 H 
ATOM     97  H25 non d ame     -37.662   8.068  28.159  0.00  0.00     0.028 H 
ATOM     98  H26 non d ame     -37.350   9.616  27.338  0.00  0.00     0.028 H 
ENDBRANCH  93  95
BRANCH  93  99
ATOM     99  C19 non d ame     -37.638  10.587  29.750  0.00  0.00    -0.073 C 
ATOM    100  H27 non d ame     -38.486  10.513  29.068  0.00  0.00     0.028 H 
ATOM    101  H28 non d ame     -37.979  10.424  30.773  0.00  0.00     0.028 H 
ATOM    102  H29 non d ame     -37.191  11.578  29.670  0.00  0.00     0.028 H 
ENDBRANCH  93  99
ENDBRANCH  90  93
ENDBRANCH   1  90
TORSDOF 26
ENDMDL
MODEL 17
REMARK VINA RESULT:      -6.8      3.112      8.258
REMARK  26 active torsions:
REMARK  status: ('A' for Active; 'I' for Inactive)
REMARK    1  A    between atoms: C2_2  and  C3_3 
REMARK    2  A    between atoms: C4_6  and  C5_7 
REMARK       I    between atoms: C5_7  and  N2_9 
REMARK    3  A    between atoms: N2_9  and  C6_10 
REMARK    4  A    between atoms: C6_10  and  C7_11 
REMARK    5  A    between atoms: C6_10  and  C8_13 
REMARK       I    between atoms: C7_11  and  N3_14 
REMARK    6  A    between atoms: N3_14  and  C9_15 
REMARK    7  A    between atoms: C9_15  and  C10_16 
REMARK    8  A    between atoms: C9_15  and  C11_18 
REMARK       I    between atoms: C10_16  and  N4_21 
REMARK    9  A    between atoms: C11_18  and  C12_19 
REMARK   10  A    between atoms: C11_18  and  C13_20 
REMARK   11  A    between atoms: N4_21  and  C14_22 
REMARK   12  A    between atoms: C14_22  and  C15_23 
REMARK   13  A    between atoms: C14_22  and  C16_25 
REMARK       I    between atoms: C15_23  and  N6_40 
REMARK   14  A    between atoms: C16_25  and  C17_26 
REMARK   15  A    between atoms: C17_26  and  C18_27 
REMARK   16  A    between atoms: C17_26  and  C19_28 
REMARK   17  A    between atoms: C20_29  and  C21_30 
REMARK   18  A    between atoms: C20_29  and  C24_33 
REMARK   19  A    between atoms: C20_29  and  N6_40 
REMARK   20  A    between atoms: C21_30  and  C22_31 
REMARK   21  A    between atoms: C22_31  and  C23_32 
REMARK   22  A    between atoms: C23_32  and  O8_43 
REMARK   23  A    between atoms: C24_33  and  C25_34 
REMARK   24  A    between atoms: C28_38  and  O6_39 
REMARK   25  A    between atoms: C29_42  and  O8_43 
REMARK   26  A    between atoms: C29_42  and  C35_49 
ROOT
ATOM      1  C14 non d ame     -33.084  10.459  29.885  0.00  0.00     0.089 C 
ATOM      2  H20 non d ame     -32.043  10.159  29.766  0.00  0.00     0.087 H 
ENDROOT
BRANCH   1   3
ATOM      3  N4  non d ame     -33.620  10.720  28.557  0.00  0.00    -0.346 N 
ATOM      4  C10 non d ame     -32.702  10.768  27.362  0.00  0.00     0.241 C 
ATOM      5  O4  non d ame     -31.535  10.596  27.494  0.00  0.00    -0.271 OA
ATOM      6  H19 non d ame     -34.616  10.865  28.467  0.00  0.00     0.163 HD
BRANCH   4   7
ATOM      7  C9  non d ame     -33.275  11.033  25.994  0.00  0.00     0.092 C 
ATOM      8  H11 non d ame     -34.358  10.920  26.031  0.00  0.00     0.088 H 
BRANCH   7   9
ATOM      9  N3  non d ame     -32.997  12.420  25.608  0.00  0.00    -0.346 N 
ATOM     10  C7  non d ame     -33.724  13.500  26.229  0.00  0.00     0.240 C 
ATOM     11  O3  non d ame     -34.537  13.271  27.039  0.00  0.00    -0.271 OA
ATOM     12  H10 non d ame     -32.299  12.633  24.910  0.00  0.00     0.163 HD
BRANCH  10  13
ATOM     13  C6  non d ame     -33.426  14.974  25.812  0.00  0.00     0.086 C 
ATOM     14  H6  non d ame     -32.751  15.479  26.502  0.00  0.00     0.086 H 
BRANCH  13  15
ATOM     15  N2  non d ame     -32.770  14.973  24.514  0.00  0.00    -0.343 N 
ATOM     16  C5  non d ame     -31.504  15.689  24.346  0.00  0.00     0.273 C 
ATOM     17  O2  non d ame     -31.023  16.265  25.259  0.00  0.00    -0.266 OA
ATOM     18  H5  non d ame     -33.190  14.481  23.739  0.00  0.00     0.163 HD
BRANCH  16  19
ATOM     19  C4  non d ame     -30.799  15.696  22.981  0.00  0.00     0.154 A 
ATOM     20  C1  non d ame     -31.405  15.864  21.695  0.00  0.00    -0.017 A 
ATOM     21  C2  non d ame     -30.334  15.793  20.776  0.00  0.00     0.077 A 
ATOM     22  H1  non d ame     -32.460  16.014  21.465  0.00  0.00     0.091 H 
ATOM     23  O1  non d ame     -29.246  15.607  21.464  0.00  0.00    -0.218 OA
ATOM     24  N1  non d ame     -29.491  15.547  22.752  0.00  0.00    -0.123 NA
BRANCH  21  25
ATOM     25  C3  non d ame     -30.437  15.912  19.262  0.00  0.00    -0.029 C 
ATOM     26  H2  non d ame     -31.391  16.367  18.997  0.00  0.00     0.036 H 
ATOM     27  H3  non d ame     -29.623  16.535  18.891  0.00  0.00     0.036 H 
ATOM     28  H4  non d ame     -30.369  14.922  18.813  0.00  0.00     0.036 H 
ENDBRANCH  21  25
ENDBRANCH  16  19
ENDBRANCH  13  15
BRANCH  13  29
ATOM     29  C8  non d ame     -34.717  15.749  25.737  0.00  0.00    -0.049 C 
ATOM     30  H7  non d ame     -34.741  16.327  24.814  0.00  0.00     0.030 H 
ATOM     31  H8  non d ame     -35.558  15.056  25.754  0.00  0.00     0.030 H 
ATOM     32  H9  non d ame     -34.785  16.425  26.590  0.00  0.00     0.030 H 
ENDBRANCH  13  29
ENDBRANCH  10  13
ENDBRANCH   7   9
BRANCH   7  33
ATOM     33  C11 non d ame     -32.620  10.069  24.962  0.00  0.00    -0.033 C 
ATOM     34  H12 non d ame     -32.129   9.273  25.521  0.00  0.00     0.042 H 
BRANCH  33  35
ATOM     35  C12 non d ame     -33.693   9.406  24.043  0.00  0.00    -0.071 C 
ATOM     36  H13 non d ame     -34.600  10.010  24.049  0.00  0.00     0.028 H 
ATOM     37  H14 non d ame     -33.308   9.337  23.026  0.00  0.00     0.028 H 
ATOM     38  H15 non d ame     -33.921   8.407  24.415  0.00  0.00     0.028 H 
ENDBRANCH  33  35
BRANCH  33  39
ATOM     39  C13 non d ame     -31.531  10.808  24.119  0.00  0.00    -0.071 C 
ATOM     40  H16 non d ame     -30.929  10.076  23.581  0.00  0.00     0.028 H 
ATOM     41  H17 non d ame     -32.015  11.476  23.406  0.00  0.00     0.028 H 
ATOM     42  H18 non d ame     -30.891  11.389  24.782  0.00  0.00     0.028 H 
ENDBRANCH  33  39
ENDBRANCH   7  33
ENDBRANCH   4   7
ENDBRANCH   1   3
BRANCH   1  43
ATOM     43  C15 non d ame     -33.942   9.348  30.556  0.00  0.00     0.240 C 
ATOM     44  O5  non d ame     -34.217   9.430  31.710  0.00  0.00    -0.271 OA
ATOM     45  N6  non d ame     -34.430   8.188  29.758  0.00  0.00    -0.355 N 
ATOM     46  H46 non d ame     -34.207   8.110  28.776  0.00  0.00     0.162 HD
BRANCH  45  47
ATOM     47  C20 non d ame     -35.246   7.141  30.410  0.00  0.00     0.013 C 
ATOM     48  H30 non d ame     -35.317   7.383  31.471  0.00  0.00     0.072 H 
BRANCH  47  49
ATOM     49  C21 non d ame     -34.573   5.799  30.231  0.00  0.00    -0.038 C 
ATOM     50  H31 non d ame     -33.517   5.968  30.441  0.00  0.00     0.036 H 
ATOM     51  H32 non d ame     -35.145   5.099  30.841  0.00  0.00     0.036 H 
BRANCH  49  52
ATOM     52  C22 non d ame     -34.652   5.278  28.779  0.00  0.00     0.018 C 
ATOM     53  H33 non d ame     -35.426   4.512  28.782  0.00  0.00     0.048 H 
ATOM     54  H34 non d ame     -34.764   6.164  28.154  0.00  0.00     0.048 H 
BRANCH  52  55
ATOM     55  C23 non d ame     -33.354   4.573  28.295  0.00  0.00     0.259 C 
ATOM     56  O7  non d ame     -32.529   4.226  29.077  0.00  0.00    -0.265 OA
BRANCH  55  57
ATOM     57  O8  non d ame     -33.156   4.358  26.903  0.00  0.00    -0.317 OA
BRANCH  57  58
ATOM     58  C29 non d ame     -33.984   5.168  26.065  0.00  0.00     0.052 C 
ATOM     59  H47 non d ame     -34.793   4.518  25.732  0.00  0.00     0.082 H 
ATOM     60  H48 non d ame     -34.208   6.062  26.647  0.00  0.00     0.082 H 
BRANCH  58  61
ATOM     61  C35 non d ame     -33.148   5.586  24.826  0.00  0.00    -0.034 A 
ATOM     62  C30 non d ame     -31.915   6.207  24.995  0.00  0.00    -0.075 A 
ATOM     63  C31 non d ame     -31.163   6.583  23.883  0.00  0.00    -0.082 A 
ATOM     64  H49 non d ame     -31.536   6.399  26.000  0.00  0.00     0.084 H 
ATOM     65  C32 non d ame     -31.651   6.338  22.596  0.00  0.00    -0.083 A 
ATOM     66  H50 non d ame     -30.196   7.068  24.019  0.00  0.00     0.083 H 
ATOM     67  C33 non d ame     -32.884   5.722  22.432  0.00  0.00    -0.082 A 
ATOM     68  H51 non d ame     -31.070   6.628  21.721  0.00  0.00     0.083 H 
ATOM     69  C34 non d ame     -33.637   5.342  23.541  0.00  0.00    -0.075 A 
ATOM     70  H52 non d ame     -33.263   5.534  21.427  0.00  0.00     0.083 H 
ATOM     71  H53 non d ame     -34.605   4.858  23.404  0.00  0.00     0.084 H 
ENDBRANCH  58  61
ENDBRANCH  57  58
ENDBRANCH  55  57
ENDBRANCH  52  55
ENDBRANCH  49  52
ENDBRANCH  47  49
BRANCH  47  72
ATOM     72  C24 non d ame     -36.636   7.103  29.780  0.00  0.00    -0.039 C 
ATOM     73  H35 non d ame     -36.469   6.925  28.718  0.00  0.00     0.036 H 
ATOM     74  H36 non d ame     -37.202   6.381  30.370  0.00  0.00     0.036 H 
BRANCH  72  75
ATOM     75  C25 non d ame     -37.385   8.512  29.912  0.00  0.00    -0.001 C 
ATOM     76  C26 non d ame     -37.866   8.749  31.467  0.00  0.00    -0.035 C 
ATOM     77  C27 non d ame     -39.180   9.075  31.473  0.00  0.00     0.085 C 
ATOM     78  H38 non d ame     -37.834   7.807  32.015  0.00  0.00     0.036 H 
ATOM     79  H39 non d ame     -37.382   9.635  31.877  0.00  0.00     0.036 H 
ATOM     80  N5  non d ame     -39.719   8.763  30.097  0.00  0.00    -0.049 N 
ATOM     81  H40 non d ame     -39.643   8.404  32.196  0.00  0.00     0.075 H 
ATOM     82  H41 non d ame     -39.212  10.152  31.631  0.00  0.00     0.075 H 
ATOM     83  C28 non d ame     -38.427   8.561  29.150  0.00  0.00     0.193 C 
ATOM     84  H42 non d ame     -40.204   7.881  30.172  0.00  0.00     0.280 HD
ATOM     85  H43 non d ame     -40.216   9.588  29.792  0.00  0.00     0.280 HD
ATOM     86  H44 non d ame     -38.125   9.342  28.451  0.00  0.00     0.129 H 
ATOM     87  H37 non d ame     -36.830   9.321  29.436  0.00  0.00     0.046 H 
BRANCH  83  88
ATOM     88  O6  non d ame     -38.574   7.379  28.362  0.00  0.00    -0.369 OA
ATOM     89  H45 non d ame     -38.324   7.567  27.454  0.00  0.00     0.212 HD
ENDBRANCH  83  88
ENDBRANCH  72  75
ENDBRANCH  47  72
ENDBRANCH  45  47
ENDBRANCH   1  43
BRANCH   1  90
ATOM     90  C16 non d ame     -33.162  11.734  30.710  0.00  0.00    -0.035 C 
ATOM     91  H21 non d ame     -33.906  12.355  30.213  0.00  0.00     0.037 H 
ATOM     92  H22 non d ame     -33.325  11.404  31.737  0.00  0.00     0.037 H 
BRANCH  90  93
ATOM     93  C17 non d ame     -31.834  12.557  30.718  0.00  0.00    -0.059 C 
ATOM     94  H23 non d ame     -31.815  13.145  31.635  0.00  0.00     0.038 H 
BRANCH  93  95
ATOM     95  C18 non d ame     -30.571  11.638  30.714  0.00  0.00    -0.073 C 
ATOM     96  H24 non d ame     -30.031  11.758  31.653  0.00  0.00     0.028 H 
ATOM     97  H25 non d ame     -30.878  10.598  30.603  0.00  0.00     0.028 H 
ATOM     98  H26 non d ame     -29.922  11.916  29.884  0.00  0.00     0.028 H 
ENDBRANCH  93  95
BRANCH  93  99
ATOM     99  C19 non d ame     -31.795  13.541  29.546  0.00  0.00    -0.073 C 
ATOM    100  H27 non d ame     -31.707  12.989  28.610  0.00  0.00     0.028 H 
ATOM    101  H28 non d ame     -32.713  14.130  29.535  0.00  0.00     0.028 H 
ATOM    102  H29 non d ame     -30.939  14.206  29.659  0.00  0.00     0.028 H 
ENDBRANCH  93  99
ENDBRANCH  90  93
ENDBRANCH   1  90
TORSDOF 26
ENDMDL
MODEL 18
REMARK VINA RESULT:      -6.8      3.216      7.272
REMARK  26 active torsions:
REMARK  status: ('A' for Active; 'I' for Inactive)
REMARK    1  A    between atoms: C2_2  and  C3_3 
REMARK    2  A    between atoms: C4_6  and  C5_7 
REMARK       I    between atoms: C5_7  and  N2_9 
REMARK    3  A    between atoms: N2_9  and  C6_10 
REMARK    4  A    between atoms: C6_10  and  C7_11 
REMARK    5  A    between atoms: C6_10  and  C8_13 
REMARK       I    between atoms: C7_11  and  N3_14 
REMARK    6  A    between atoms: N3_14  and  C9_15 
REMARK    7  A    between atoms: C9_15  and  C10_16 
REMARK    8  A    between atoms: C9_15  and  C11_18 
REMARK       I    between atoms: C10_16  and  N4_21 
REMARK    9  A    between atoms: C11_18  and  C12_19 
REMARK   10  A    between atoms: C11_18  and  C13_20 
REMARK   11  A    between atoms: N4_21  and  C14_22 
REMARK   12  A    between atoms: C14_22  and  C15_23 
REMARK   13  A    between atoms: C14_22  and  C16_25 
REMARK       I    between atoms: C15_23  and  N6_40 
REMARK   14  A    between atoms: C16_25  and  C17_26 
REMARK   15  A    between atoms: C17_26  and  C18_27 
REMARK   16  A    between atoms: C17_26  and  C19_28 
REMARK   17  A    between atoms: C20_29  and  C21_30 
REMARK   18  A    between atoms: C20_29  and  C24_33 
REMARK   19  A    between atoms: C20_29  and  N6_40 
REMARK   20  A    between atoms: C21_30  and  C22_31 
REMARK   21  A    between atoms: C22_31  and  C23_32 
REMARK   22  A    between atoms: C23_32  and  O8_43 
REMARK   23  A    between atoms: C24_33  and  C25_34 
REMARK   24  A    between atoms: C28_38  and  O6_39 
REMARK   25  A    between atoms: C29_42  and  O8_43 
REMARK   26  A    between atoms: C29_42  and  C35_49 
ROOT
ATOM      1  C14 non d ame     -32.384   8.855  24.739  0.00  0.00     0.089 C 
ATOM      2  H20 non d ame     -31.347   8.555  24.899  0.00  0.00     0.087 H 
ENDROOT
BRANCH   1   3
ATOM      3  N4  non d ame     -33.193   7.645  24.730  0.00  0.00    -0.346 N 
ATOM      4  C10 non d ame     -32.538   6.290  24.825  0.00  0.00     0.241 C 
ATOM      5  O4  non d ame     -31.357   6.198  24.905  0.00  0.00    -0.271 OA
ATOM      6  H19 non d ame     -34.196   7.745  24.659  0.00  0.00     0.163 HD
BRANCH   4   7
ATOM      7  C9  non d ame     -33.391   5.049  24.820  0.00  0.00     0.092 C 
ATOM      8  H11 non d ame     -32.773   4.188  25.073  0.00  0.00     0.088 H 
BRANCH   7   9
ATOM      9  N3  non d ame     -34.423   5.160  25.857  0.00  0.00    -0.346 N 
ATOM     10  C7  non d ame     -34.236   4.512  27.131  0.00  0.00     0.240 C 
ATOM     11  O3  non d ame     -33.263   3.896  27.340  0.00  0.00    -0.271 OA
ATOM     12  H10 non d ame     -35.268   5.687  25.691  0.00  0.00     0.163 HD
BRANCH  10  13
ATOM     13  C6  non d ame     -35.338   4.632  28.229  0.00  0.00     0.086 C 
ATOM     14  H6  non d ame     -35.107   4.055  29.124  0.00  0.00     0.086 H 
BRANCH  13  15
ATOM     15  N2  non d ame     -35.440   6.021  28.645  0.00  0.00    -0.343 N 
ATOM     16  C5  non d ame     -35.116   6.386  30.026  0.00  0.00     0.273 C 
ATOM     17  O2  non d ame     -34.777   5.555  30.795  0.00  0.00    -0.266 OA
ATOM     18  H5  non d ame     -35.733   6.725  27.982  0.00  0.00     0.163 HD
BRANCH  16  19
ATOM     19  C4  non d ame     -35.218   7.851  30.479  0.00  0.00     0.154 A 
ATOM     20  C1  non d ame     -35.102   8.353  31.814  0.00  0.00    -0.017 A 
ATOM     21  C2  non d ame     -35.270   9.750  31.693  0.00  0.00     0.077 A 
ATOM     22  H1  non d ame     -34.923   7.790  32.730  0.00  0.00     0.091 H 
ATOM     23  O1  non d ame     -35.458  10.010  30.432  0.00  0.00    -0.218 OA
ATOM     24  N1  non d ame     -35.433   8.917  29.704  0.00  0.00    -0.123 NA
BRANCH  21  25
ATOM     25  C3  non d ame     -35.235  10.765  32.828  0.00  0.00    -0.029 C 
ATOM     26  H2  non d ame     -36.179  11.306  32.861  0.00  0.00     0.036 H 
ATOM     27  H3  non d ame     -35.081  10.245  33.774  0.00  0.00     0.036 H 
ATOM     28  H4  non d ame     -34.418  11.467  32.663  0.00  0.00     0.036 H 
ENDBRANCH  21  25
ENDBRANCH  16  19
ENDBRANCH  13  15
BRANCH  13  29
ATOM     29  C8  non d ame     -36.658   4.161  27.673  0.00  0.00    -0.049 C 
ATOM     30  H7  non d ame     -36.527   3.856  26.635  0.00  0.00     0.030 H 
ATOM     31  H8  non d ame     -37.017   3.315  28.258  0.00  0.00     0.030 H 
ATOM     32  H9  non d ame     -37.384   4.973  27.724  0.00  0.00     0.030 H 
ENDBRANCH  13  29
ENDBRANCH  10  13
ENDBRANCH   7   9
BRANCH   7  33
ATOM     33  C11 non d ame     -34.073   4.893  23.429  0.00  0.00    -0.033 C 
ATOM     34  H12 non d ame     -34.629   5.809  23.232  0.00  0.00     0.042 H 
BRANCH  33  35
ATOM     35  C12 non d ame     -33.015   4.733  22.293  0.00  0.00    -0.071 C 
ATOM     36  H13 non d ame     -32.130   4.232  22.688  0.00  0.00     0.028 H 
ATOM     37  H14 non d ame     -33.438   4.138  21.484  0.00  0.00     0.028 H 
ATOM     38  H15 non d ame     -32.736   5.716  21.915  0.00  0.00     0.028 H 
ENDBRANCH  33  35
BRANCH  33  39
ATOM     39  C13 non d ame     -35.085   3.703  23.432  0.00  0.00    -0.071 C 
ATOM     40  H16 non d ame     -35.114   3.248  22.442  0.00  0.00     0.028 H 
ATOM     41  H17 non d ame     -34.770   2.960  24.165  0.00  0.00     0.028 H 
ATOM     42  H18 non d ame     -36.077   4.071  23.693  0.00  0.00     0.028 H 
ENDBRANCH  33  39
ENDBRANCH   7  33
ENDBRANCH   4   7
ENDBRANCH   1   3
BRANCH   1  43
ATOM     43  C15 non d ame     -32.905   9.792  25.865  0.00  0.00     0.240 C 
ATOM     44  O5  non d ame     -33.525   9.338  26.772  0.00  0.00    -0.271 OA
ATOM     45  N6  non d ame     -32.625  11.255  25.818  0.00  0.00    -0.355 N 
ATOM     46  H46 non d ame     -32.096  11.652  25.055  0.00  0.00     0.162 HD
BRANCH  45  47
ATOM     47  C20 non d ame     -33.127  12.133  26.898  0.00  0.00     0.013 C 
ATOM     48  H30 non d ame     -33.575  11.500  27.663  0.00  0.00     0.072 H 
BRANCH  47  49
ATOM     49  C21 non d ame     -34.166  13.075  26.333  0.00  0.00    -0.038 C 
ATOM     50  H31 non d ame     -34.182  12.887  25.259  0.00  0.00     0.036 H 
ATOM     51  H32 non d ame     -35.065  12.912  26.928  0.00  0.00     0.036 H 
BRANCH  49  52
ATOM     52  C22 non d ame     -33.788  14.561  26.511  0.00  0.00     0.018 C 
ATOM     53  H33 non d ame     -34.426  14.935  27.311  0.00  0.00     0.048 H 
ATOM     54  H34 non d ame     -32.703  14.578  26.626  0.00  0.00     0.048 H 
BRANCH  52  55
ATOM     55  C23 non d ame     -34.100  15.441  25.269  0.00  0.00     0.259 C 
ATOM     56  O7  non d ame     -35.187  15.442  24.789  0.00  0.00    -0.265 OA
BRANCH  55  57
ATOM     57  O8  non d ame     -33.067  16.237  24.701  0.00  0.00    -0.317 OA
BRANCH  57  58
ATOM     58  C29 non d ame     -31.746  15.775  24.999  0.00  0.00     0.052 C 
ATOM     59  H47 non d ame     -31.203  16.649  25.360  0.00  0.00     0.082 H 
ATOM     60  H48 non d ame     -31.875  14.908  25.646  0.00  0.00     0.082 H 
BRANCH  58  61
ATOM     61  C35 non d ame     -31.093  15.304  23.672  0.00  0.00    -0.034 A 
ATOM     62  C30 non d ame     -31.136  16.121  22.547  0.00  0.00    -0.075 A 
ATOM     63  C31 non d ame     -30.549  15.698  21.355  0.00  0.00    -0.082 A 
ATOM     64  H49 non d ame     -31.629  17.091  22.598  0.00  0.00     0.084 H 
ATOM     65  C32 non d ame     -29.920  14.452  21.290  0.00  0.00    -0.083 A 
ATOM     66  H50 non d ame     -30.583  16.341  20.475  0.00  0.00     0.083 H 
ATOM     67  C33 non d ame     -29.882  13.640  22.415  0.00  0.00    -0.082 A 
ATOM     68  H51 non d ame     -29.458  14.114  20.363  0.00  0.00     0.083 H 
ATOM     69  C34 non d ame     -30.465  14.059  23.609  0.00  0.00    -0.075 A 
ATOM     70  H52 non d ame     -29.392  12.667  22.361  0.00  0.00     0.083 H 
ATOM     71  H53 non d ame     -30.431  13.415  24.489  0.00  0.00     0.084 H 
ENDBRANCH  58  61
ENDBRANCH  57  58
ENDBRANCH  55  57
ENDBRANCH  52  55
ENDBRANCH  49  52
ENDBRANCH  47  49
BRANCH  47  72
ATOM     72  C24 non d ame     -31.972  12.940  27.486  0.00  0.00    -0.039 C 
ATOM     73  H35 non d ame     -31.245  13.036  26.679  0.00  0.00     0.036 H 
ATOM     74  H36 non d ame     -32.430  13.832  27.914  0.00  0.00     0.036 H 
BRANCH  72  75
ATOM     75  C25 non d ame     -31.251  12.157  28.683  0.00  0.00    -0.001 C 
ATOM     76  C26 non d ame     -32.360  11.296  29.537  0.00  0.00    -0.035 C 
ATOM     77  C27 non d ame     -32.221  11.588  30.853  0.00  0.00     0.085 C 
ATOM     78  H38 non d ame     -33.365  11.645  29.303  0.00  0.00     0.036 H 
ATOM     79  H39 non d ame     -32.127  10.232  29.487  0.00  0.00     0.036 H 
ATOM     80  N5  non d ame     -31.341  12.812  30.942  0.00  0.00    -0.049 N 
ATOM     81  H40 non d ame     -33.222  11.843  31.201  0.00  0.00     0.075 H 
ATOM     82  H41 non d ame     -31.693  10.740  31.285  0.00  0.00     0.075 H 
ATOM     83  C28 non d ame     -30.660  12.976  29.488  0.00  0.00     0.193 C 
ATOM     84  H42 non d ame     -31.958  13.597  31.098  0.00  0.00     0.280 HD
ATOM     85  H43 non d ame     -30.619  12.596  31.614  0.00  0.00     0.280 HD
ATOM     86  H44 non d ame     -29.619  12.693  29.329  0.00  0.00     0.129 H 
ATOM     87  H37 non d ame     -30.359  11.626  28.350  0.00  0.00     0.046 H 
BRANCH  83  88
ATOM     88  O6  non d ame     -30.759  14.331  29.047  0.00  0.00    -0.369 OA
ATOM     89  H45 non d ame     -30.008  14.831  29.376  0.00  0.00     0.212 HD
ENDBRANCH  83  88
ENDBRANCH  72  75
ENDBRANCH  47  72
ENDBRANCH  45  47
ENDBRANCH   1  43
BRANCH   1  90
ATOM     90  C16 non d ame     -32.516   9.550  23.393  0.00  0.00    -0.035 C 
ATOM     91  H21 non d ame     -33.230   8.951  22.828  0.00  0.00     0.037 H 
ATOM     92  H22 non d ame     -32.742  10.590  23.627  0.00  0.00     0.037 H 
BRANCH  90  93
ATOM     93  C17 non d ame     -31.194   9.561  22.561  0.00  0.00    -0.059 C 
ATOM     94  H23 non d ame     -31.335  10.248  21.726  0.00  0.00     0.038 H 
BRANCH  93  95
ATOM     95  C18 non d ame     -29.976  10.070  23.396  0.00  0.00    -0.073 C 
ATOM     96  H24 non d ame     -30.308  10.330  24.401  0.00  0.00     0.028 H 
ATOM     97  H25 non d ame     -29.222   9.286  23.455  0.00  0.00     0.028 H 
ATOM     98  H26 non d ame     -29.549  10.950  22.916  0.00  0.00     0.028 H 
ENDBRANCH  93  95
BRANCH  93  99
ATOM     99  C19 non d ame     -30.909   8.179  21.969  0.00  0.00    -0.073 C 
ATOM    100  H27 non d ame     -30.966   8.230  20.882  0.00  0.00     0.028 H 
ATOM    101  H28 non d ame     -29.911   7.855  22.265  0.00  0.00     0.028 H 
ATOM    102  H29 non d ame     -31.646   7.466  22.339  0.00  0.00     0.028 H 
ENDBRANCH  93  99
ENDBRANCH  90  93
ENDBRANCH   1  90
TORSDOF 26
ENDMDL
MODEL 19
REMARK VINA RESULT:      -6.8      2.730      7.777
REMARK  26 active torsions:
REMARK  status: ('A' for Active; 'I' for Inactive)
REMARK    1  A    between atoms: C2_2  and  C3_3 
REMARK    2  A    between atoms: C4_6  and  C5_7 
REMARK       I    between atoms: C5_7  and  N2_9 
REMARK    3  A    between atoms: N2_9  and  C6_10 
REMARK    4  A    between atoms: C6_10  and  C7_11 
REMARK    5  A    between atoms: C6_10  and  C8_13 
REMARK       I    between atoms: C7_11  and  N3_14 
REMARK    6  A    between atoms: N3_14  and  C9_15 
REMARK    7  A    between atoms: C9_15  and  C10_16 
REMARK    8  A    between atoms: C9_15  and  C11_18 
REMARK       I    between atoms: C10_16  and  N4_21 
REMARK    9  A    between atoms: C11_18  and  C12_19 
REMARK   10  A    between atoms: C11_18  and  C13_20 
REMARK   11  A    between atoms: N4_21  and  C14_22 
REMARK   12  A    between atoms: C14_22  and  C15_23 
REMARK   13  A    between atoms: C14_22  and  C16_25 
REMARK       I    between atoms: C15_23  and  N6_40 
REMARK   14  A    between atoms: C16_25  and  C17_26 
REMARK   15  A    between atoms: C17_26  and  C18_27 
REMARK   16  A    between atoms: C17_26  and  C19_28 
REMARK   17  A    between atoms: C20_29  and  C21_30 
REMARK   18  A    between atoms: C20_29  and  C24_33 
REMARK   19  A    between atoms: C20_29  and  N6_40 
REMARK   20  A    between atoms: C21_30  and  C22_31 
REMARK   21  A    between atoms: C22_31  and  C23_32 
REMARK   22  A    between atoms: C23_32  and  O8_43 
REMARK   23  A    between atoms: C24_33  and  C25_34 
REMARK   24  A    between atoms: C28_38  and  O6_39 
REMARK   25  A    between atoms: C29_42  and  O8_43 
REMARK   26  A    between atoms: C29_42  and  C35_49 
ROOT
ATOM      1  C14 non d ame     -32.982   9.204  27.520  0.00  0.00     0.089 C 
ATOM      2  H20 non d ame     -31.981   8.773  27.482  0.00  0.00     0.087 H 
ENDROOT
BRANCH   1   3
ATOM      3  N4  non d ame     -32.841  10.609  27.871  0.00  0.00    -0.346 N 
ATOM      4  C10 non d ame     -31.749  11.443  27.250  0.00  0.00     0.241 C 
ATOM      5  O4  non d ame     -30.994  10.961  26.472  0.00  0.00    -0.271 OA
ATOM      6  H19 non d ame     -33.492  11.000  28.537  0.00  0.00     0.163 HD
BRANCH   4   7
ATOM      7  C9  non d ame     -31.621  12.898  27.621  0.00  0.00     0.092 C 
ATOM      8  H11 non d ame     -30.585  13.210  27.493  0.00  0.00     0.088 H 
BRANCH   7   9
ATOM      9  N3  non d ame     -32.433  13.708  26.708  0.00  0.00    -0.346 N 
ATOM     10  C7  non d ame     -31.806  14.407  25.613  0.00  0.00     0.240 C 
ATOM     11  O3  non d ame     -30.649  14.329  25.453  0.00  0.00    -0.271 OA
ATOM     12  H10 non d ame     -33.432  13.786  26.835  0.00  0.00     0.163 HD
BRANCH  10  13
ATOM     13  C6  non d ame     -32.675  15.271  24.647  0.00  0.00     0.086 C 
ATOM     14  H6  non d ame     -33.569  14.750  24.305  0.00  0.00     0.086 H 
BRANCH  13  15
ATOM     15  N2  non d ame     -33.131  16.456  25.355  0.00  0.00    -0.343 N 
ATOM     16  C5  non d ame     -34.360  16.394  26.149  0.00  0.00     0.273 C 
ATOM     17  O2  non d ame     -34.977  15.387  26.209  0.00  0.00    -0.266 OA
ATOM     18  H5  non d ame     -32.599  17.313  25.296  0.00  0.00     0.163 HD
BRANCH  16  19
ATOM     19  C4  non d ame     -34.853  17.638  26.904  0.00  0.00     0.154 A 
ATOM     20  C1  non d ame     -35.602  18.734  26.369  0.00  0.00    -0.017 A 
ATOM     21  C2  non d ame     -35.800  19.607  27.462  0.00  0.00     0.077 A 
ATOM     22  H1  non d ame     -35.948  18.874  25.345  0.00  0.00     0.091 H 
ATOM     23  O1  non d ame     -35.230  19.066  28.498  0.00  0.00    -0.218 OA
ATOM     24  N1  non d ame     -34.670  17.916  28.198  0.00  0.00    -0.123 NA
BRANCH  21  25
ATOM     25  C3  non d ame     -36.545  20.935  27.432  0.00  0.00    -0.029 C 
ATOM     26  H2  non d ame     -37.249  20.938  26.600  0.00  0.00     0.036 H 
ATOM     27  H3  non d ame     -37.087  21.068  28.367  0.00  0.00     0.036 H 
ATOM     28  H4  non d ame     -35.831  21.749  27.307  0.00  0.00     0.036 H 
ENDBRANCH  21  25
ENDBRANCH  16  19
ENDBRANCH  13  15
BRANCH  13  29
ATOM     29  C8  non d ame     -31.853  15.670  23.448  0.00  0.00    -0.049 C 
ATOM     30  H7  non d ame     -30.857  15.968  23.774  0.00  0.00     0.030 H 
ATOM     31  H8  non d ame     -31.774  14.825  22.765  0.00  0.00     0.030 H 
ATOM     32  H9  non d ame     -32.335  16.505  22.939  0.00  0.00     0.030 H 
ENDBRANCH  13  29
ENDBRANCH  10  13
ENDBRANCH   7   9
BRANCH   7  33
ATOM     33  C11 non d ame     -32.121  13.107  29.080  0.00  0.00    -0.033 C 
ATOM     34  H12 non d ame     -32.927  12.394  29.257  0.00  0.00     0.042 H 
BRANCH  33  35
ATOM     35  C12 non d ame     -30.993  12.805  30.116  0.00  0.00    -0.071 C 
ATOM     36  H13 non d ame     -30.351  12.011  29.733  0.00  0.00     0.028 H 
ATOM     37  H14 non d ame     -30.400  13.705  30.279  0.00  0.00     0.028 H 
ATOM     38  H15 non d ame     -31.440  12.488  31.058  0.00  0.00     0.028 H 
ENDBRANCH  33  35
BRANCH  33  39
ATOM     39  C13 non d ame     -32.697  14.546  29.273  0.00  0.00    -0.071 C 
ATOM     40  H16 non d ame     -32.201  15.231  28.586  0.00  0.00     0.028 H 
ATOM     41  H17 non d ame     -33.769  14.539  29.070  0.00  0.00     0.028 H 
ATOM     42  H18 non d ame     -32.525  14.872  30.299  0.00  0.00     0.028 H 
ENDBRANCH  33  39
ENDBRANCH   7  33
ENDBRANCH   4   7
ENDBRANCH   1   3
BRANCH   1  43
ATOM     43  C15 non d ame     -33.716   9.106  26.152  0.00  0.00     0.240 C 
ATOM     44  O5  non d ame     -34.734   9.696  25.984  0.00  0.00    -0.271 OA
ATOM     45  N6  non d ame     -33.145   8.284  25.047  0.00  0.00    -0.355 N 
ATOM     46  H46 non d ame     -32.278   7.782  25.176  0.00  0.00     0.162 HD
BRANCH  45  47
ATOM     47  C20 non d ame     -33.854   8.203  23.752  0.00  0.00     0.013 C 
ATOM     48  H30 non d ame     -34.767   8.792  23.832  0.00  0.00     0.072 H 
BRANCH  47  49
ATOM     49  C21 non d ame     -34.195   6.759  23.459  0.00  0.00    -0.038 C 
ATOM     50  H31 non d ame     -35.185   6.598  23.884  0.00  0.00     0.036 H 
ATOM     51  H32 non d ame     -34.034   6.631  22.388  0.00  0.00     0.036 H 
BRANCH  49  52
ATOM     52  C22 non d ame     -33.249   5.765  24.165  0.00  0.00     0.018 C 
ATOM     53  H33 non d ame     -32.982   5.025  23.412  0.00  0.00     0.048 H 
ATOM     54  H34 non d ame     -32.473   6.374  24.630  0.00  0.00     0.048 H 
BRANCH  52  55
ATOM     55  C23 non d ame     -33.922   4.974  25.322  0.00  0.00     0.259 C 
ATOM     56  O7  non d ame     -34.005   3.790  25.274  0.00  0.00    -0.265 OA
BRANCH  55  57
ATOM     57  O8  non d ame     -34.450   5.683  26.436  0.00  0.00    -0.317 OA
BRANCH  57  58
ATOM     58  C29 non d ame     -35.640   5.107  26.982  0.00  0.00     0.052 C 
ATOM     59  H47 non d ame     -36.465   5.685  26.567  0.00  0.00     0.082 H 
ATOM     60  H48 non d ame     -35.568   4.038  26.782  0.00  0.00     0.082 H 
BRANCH  58  61
ATOM     61  C35 non d ame     -35.613   5.321  28.519  0.00  0.00    -0.034 A 
ATOM     62  C30 non d ame     -36.745   5.793  29.176  0.00  0.00    -0.075 A 
ATOM     63  C31 non d ame     -36.722   5.986  30.556  0.00  0.00    -0.082 A 
ATOM     64  H49 non d ame     -37.651   6.012  28.609  0.00  0.00     0.084 H 
ATOM     65  C32 non d ame     -35.559   5.708  31.280  0.00  0.00    -0.083 A 
ATOM     66  H50 non d ame     -37.611   6.355  31.068  0.00  0.00     0.083 H 
ATOM     67  C33 non d ame     -34.431   5.240  30.620  0.00  0.00    -0.082 A 
ATOM     68  H51 non d ame     -35.533   5.855  32.360  0.00  0.00     0.083 H 
ATOM     69  C34 non d ame     -34.451   5.044  29.241  0.00  0.00    -0.075 A 
ATOM     70  H52 non d ame     -33.525   5.026  31.187  0.00  0.00     0.083 H 
ATOM     71  H53 non d ame     -33.561   4.675  28.729  0.00  0.00     0.084 H 
ENDBRANCH  58  61
ENDBRANCH  57  58
ENDBRANCH  55  57
ENDBRANCH  52  55
ENDBRANCH  49  52
ENDBRANCH  47  49
BRANCH  47  72
ATOM     72  C24 non d ame     -32.963   8.753  22.640  0.00  0.00    -0.039 C 
ATOM     73  H35 non d ame     -33.105   8.079  21.795  0.00  0.00     0.036 H 
ATOM     74  H36 non d ame     -33.230   9.805  22.548  0.00  0.00     0.036 H 
BRANCH  72  75
ATOM     75  C25 non d ame     -31.412   8.691  23.038  0.00  0.00    -0.001 C 
ATOM     76  C26 non d ame     -30.791  10.212  23.107  0.00  0.00    -0.035 C 
ATOM     77  C27 non d ame     -29.664  10.258  22.357  0.00  0.00     0.085 C 
ATOM     78  H38 non d ame     -31.460  10.912  22.607  0.00  0.00     0.036 H 
ATOM     79  H39 non d ame     -30.434  10.425  24.115  0.00  0.00     0.036 H 
ATOM     80  N5  non d ame     -29.639   9.001  21.521  0.00  0.00    -0.049 N 
ATOM     81  H40 non d ame     -29.787  11.120  21.701  0.00  0.00     0.075 H 
ATOM     82  H41 non d ame     -28.840  10.228  23.068  0.00  0.00     0.075 H 
ATOM     83  C28 non d ame     -30.734   8.011  22.174  0.00  0.00     0.193 C 
ATOM     84  H42 non d ame     -29.954   9.265  20.598  0.00  0.00     0.280 HD
ATOM     85  H43 non d ame     -28.723   8.594  21.645  0.00  0.00     0.280 HD
ATOM     86  H44 non d ame     -30.421   7.167  22.788  0.00  0.00     0.129 H 
ATOM     87  H37 non d ame     -31.231   8.042  23.895  0.00  0.00     0.046 H 
BRANCH  83  88
ATOM     88  O6  non d ame     -31.566   7.454  21.155  0.00  0.00    -0.369 OA
ATOM     89  H45 non d ame     -31.027   6.943  20.546  0.00  0.00     0.212 HD
ENDBRANCH  83  88
ENDBRANCH  72  75
ENDBRANCH  47  72
ENDBRANCH  45  47
ENDBRANCH   1  43
BRANCH   1  90
ATOM     90  C16 non d ame     -33.803   8.505  28.591  0.00  0.00    -0.035 C 
ATOM     91  H21 non d ame     -34.554   7.930  28.050  0.00  0.00     0.037 H 
ATOM     92  H22 non d ame     -33.077   7.994  29.224  0.00  0.00     0.037 H 
BRANCH  90  93
ATOM     93  C17 non d ame     -34.585   9.486  29.521  0.00  0.00    -0.059 C 
ATOM     94  H23 non d ame     -34.196  10.489  29.346  0.00  0.00     0.038 H 
BRANCH  93  95
ATOM     95  C18 non d ame     -36.115   9.506  29.204  0.00  0.00    -0.073 C 
ATOM     96  H24 non d ame     -36.268   9.319  28.142  0.00  0.00     0.028 H 
ATOM     97  H25 non d ame     -36.617   8.733  29.785  0.00  0.00     0.028 H 
ATOM     98  H26 non d ame     -36.527  10.481  29.464  0.00  0.00     0.028 H 
ENDBRANCH  93  95
BRANCH  93  99
ATOM     99  C19 non d ame     -34.339   9.155  30.996  0.00  0.00    -0.073 C 
ATOM    100  H27 non d ame     -35.228   8.683  31.416  0.00  0.00     0.028 H 
ATOM    101  H28 non d ame     -33.493   8.473  31.079  0.00  0.00     0.028 H 
ATOM    102  H29 non d ame     -34.122  10.072  31.543  0.00  0.00     0.028 H 
ENDBRANCH  93  99
ENDBRANCH  90  93
ENDBRANCH   1  90
TORSDOF 26
ENDMDL
MODEL 20
REMARK VINA RESULT:      -6.7      2.297      7.643
REMARK  26 active torsions:
REMARK  status: ('A' for Active; 'I' for Inactive)
REMARK    1  A    between atoms: C2_2  and  C3_3 
REMARK    2  A    between atoms: C4_6  and  C5_7 
REMARK       I    between atoms: C5_7  and  N2_9 
REMARK    3  A    between atoms: N2_9  and  C6_10 
REMARK    4  A    between atoms: C6_10  and  C7_11 
REMARK    5  A    between atoms: C6_10  and  C8_13 
REMARK       I    between atoms: C7_11  and  N3_14 
REMARK    6  A    between atoms: N3_14  and  C9_15 
REMARK    7  A    between atoms: C9_15  and  C10_16 
REMARK    8  A    between atoms: C9_15  and  C11_18 
REMARK       I    between atoms: C10_16  and  N4_21 
REMARK    9  A    between atoms: C11_18  and  C12_19 
REMARK   10  A    between atoms: C11_18  and  C13_20 
REMARK   11  A    between atoms: N4_21  and  C14_22 
REMARK   12  A    between atoms: C14_22  and  C15_23 
REMARK   13  A    between atoms: C14_22  and  C16_25 
REMARK       I    between atoms: C15_23  and  N6_40 
REMARK   14  A    between atoms: C16_25  and  C17_26 
REMARK   15  A    between atoms: C17_26  and  C18_27 
REMARK   16  A    between atoms: C17_26  and  C19_28 
REMARK   17  A    between atoms: C20_29  and  C21_30 
REMARK   18  A    between atoms: C20_29  and  C24_33 
REMARK   19  A    between atoms: C20_29  and  N6_40 
REMARK   20  A    between atoms: C21_30  and  C22_31 
REMARK   21  A    between atoms: C22_31  and  C23_32 
REMARK   22  A    between atoms: C23_32  and  O8_43 
REMARK   23  A    between atoms: C24_33  and  C25_34 
REMARK   24  A    between atoms: C28_38  and  O6_39 
REMARK   25  A    between atoms: C29_42  and  O8_43 
REMARK   26  A    between atoms: C29_42  and  C35_49 
ROOT
ATOM      1  C14 non d ame     -32.927  11.917  28.842  0.00  0.00     0.089 C 
ATOM      2  H20 non d ame     -33.131  12.227  29.867  0.00  0.00     0.087 H 
ENDROOT
BRANCH   1   3
ATOM      3  N4  non d ame     -33.640  10.670  28.611  0.00  0.00    -0.346 N 
ATOM      4  C10 non d ame     -33.916   9.727  29.755  0.00  0.00     0.241 C 
ATOM      5  O4  non d ame     -33.552   9.993  30.853  0.00  0.00    -0.271 OA
ATOM      6  H19 non d ame     -33.940  10.461  27.669  0.00  0.00     0.163 HD
BRANCH   4   7
ATOM      7  C9  non d ame     -34.660   8.443  29.499  0.00  0.00     0.092 C 
ATOM      8  H11 non d ame     -35.561   8.659  28.925  0.00  0.00     0.088 H 
BRANCH   7   9
ATOM      9  N3  non d ame     -33.831   7.551  28.684  0.00  0.00    -0.346 N 
ATOM     10  C7  non d ame     -34.104   7.399  27.276  0.00  0.00     0.240 C 
ATOM     11  O3  non d ame     -34.989   7.986  26.783  0.00  0.00    -0.271 OA
ATOM     12  H10 non d ame     -33.065   7.037  29.095  0.00  0.00     0.163 HD
BRANCH  10  13
ATOM     13  C6  non d ame     -33.220   6.446  26.414  0.00  0.00     0.086 C 
ATOM     14  H6  non d ame     -33.795   5.895  25.670  0.00  0.00     0.086 H 
BRANCH  13  15
ATOM     15  N2  non d ame     -32.245   7.239  25.683  0.00  0.00    -0.343 N 
ATOM     16  C5  non d ame     -32.545   7.669  24.316  0.00  0.00     0.273 C 
ATOM     17  O2  non d ame     -33.571   7.368  23.811  0.00  0.00    -0.266 OA
ATOM     18  H5  non d ame     -31.370   7.489  26.121  0.00  0.00     0.163 HD
BRANCH  16  19
ATOM     19  C4  non d ame     -31.525   8.509  23.532  0.00  0.00     0.154 A 
ATOM     20  C1  non d ame     -31.389   9.933  23.541  0.00  0.00    -0.017 A 
ATOM     21  C2  non d ame     -30.315  10.202  22.663  0.00  0.00     0.077 A 
ATOM     22  H1  non d ame     -31.978  10.661  24.100  0.00  0.00     0.091 H 
ATOM     23  O1  non d ame     -29.891   9.059  22.209  0.00  0.00    -0.218 OA
ATOM     24  N1  non d ame     -30.582   8.056  22.701  0.00  0.00    -0.123 NA
BRANCH  21  25
ATOM     25  C3  non d ame     -29.757  11.575  22.314  0.00  0.00    -0.029 C 
ATOM     26  H2  non d ame     -29.063  11.894  23.091  0.00  0.00     0.036 H 
ATOM     27  H3  non d ame     -29.235  11.523  21.359  0.00  0.00     0.036 H 
ATOM     28  H4  non d ame     -30.575  12.292  22.242  0.00  0.00     0.036 H 
ENDBRANCH  21  25
ENDBRANCH  16  19
ENDBRANCH  13  15
BRANCH  13  29
ATOM     29  C8  non d ame     -32.515   5.461  27.312  0.00  0.00    -0.049 C 
ATOM     30  H7  non d ame     -32.089   4.659  26.709  0.00  0.00     0.030 H 
ATOM     31  H8  non d ame     -31.718   5.970  27.854  0.00  0.00     0.030 H 
ATOM     32  H9  non d ame     -33.228   5.042  28.023  0.00  0.00     0.030 H 
ENDBRANCH  13  29
ENDBRANCH  10  13
ENDBRANCH   7   9
BRANCH   7  33
ATOM     33  C11 non d ame     -34.983   7.751  30.856  0.00  0.00    -0.033 C 
ATOM     34  H12 non d ame     -34.256   8.107  31.587  0.00  0.00     0.042 H 
BRANCH  33  35
ATOM     35  C12 non d ame     -36.401   8.147  31.373  0.00  0.00    -0.071 C 
ATOM     36  H13 non d ame     -36.434   9.221  31.557  0.00  0.00     0.028 H 
ATOM     37  H14 non d ame     -37.147   7.883  30.625  0.00  0.00     0.028 H 
ATOM     38  H15 non d ame     -36.611   7.614  32.301  0.00  0.00     0.028 H 
ENDBRANCH  33  35
BRANCH  33  39
ATOM     39  C13 non d ame     -34.834   6.200  30.742  0.00  0.00    -0.071 C 
ATOM     40  H16 non d ame     -33.786   5.946  30.579  0.00  0.00     0.028 H 
ATOM     41  H17 non d ame     -35.182   5.733  31.664  0.00  0.00     0.028 H 
ATOM     42  H18 non d ame     -35.431   5.838  29.905  0.00  0.00     0.028 H 
ENDBRANCH  33  39
ENDBRANCH   7  33
ENDBRANCH   4   7
ENDBRANCH   1   3
BRANCH   1  43
ATOM     43  C15 non d ame     -33.416  12.967  27.803  0.00  0.00     0.240 C 
ATOM     44  O5  non d ame     -33.374  12.713  26.643  0.00  0.00    -0.271 OA
ATOM     45  N6  non d ame     -33.944  14.285  28.256  0.00  0.00    -0.355 N 
ATOM     46  H46 non d ame     -33.989  14.510  29.239  0.00  0.00     0.162 HD
BRANCH  45  47
ATOM     47  C20 non d ame     -34.406  15.272  27.256  0.00  0.00     0.013 C 
ATOM     48  H30 non d ame     -33.762  15.190  26.381  0.00  0.00     0.072 H 
BRANCH  47  49
ATOM     49  C21 non d ame     -34.307  16.662  27.842  0.00  0.00    -0.038 C 
ATOM     50  H31 non d ame     -35.042  17.262  27.305  0.00  0.00     0.036 H 
ATOM     51  H32 non d ame     -34.392  16.533  28.921  0.00  0.00     0.036 H 
BRANCH  49  52
ATOM     52  C22 non d ame     -32.934  17.322  27.588  0.00  0.00     0.018 C 
ATOM     53  H33 non d ame     -33.038  18.355  27.920  0.00  0.00     0.048 H 
ATOM     54  H34 non d ame     -32.200  16.669  28.060  0.00  0.00     0.048 H 
BRANCH  52  55
ATOM     55  C23 non d ame     -32.542  17.394  26.086  0.00  0.00     0.259 C 
ATOM     56  O7  non d ame     -33.176  18.053  25.328  0.00  0.00    -0.265 OA
BRANCH  55  57
ATOM     57  O8  non d ame     -31.421  16.650  25.623  0.00  0.00    -0.317 OA
BRANCH  57  58
ATOM     58  C29 non d ame     -31.764  15.529  24.804  0.00  0.00     0.052 C 
ATOM     59  H47 non d ame     -31.484  14.647  25.380  0.00  0.00     0.082 H 
ATOM     60  H48 non d ame     -32.802  15.683  24.512  0.00  0.00     0.082 H 
BRANCH  58  61
ATOM     61  C35 non d ame     -30.883  15.582  23.527  0.00  0.00    -0.034 A 
ATOM     62  C30 non d ame     -31.416  16.052  22.332  0.00  0.00    -0.075 A 
ATOM     63  C31 non d ame     -30.625  16.099  21.185  0.00  0.00    -0.082 A 
ATOM     64  H49 non d ame     -32.454  16.384  22.293  0.00  0.00     0.084 H 
ATOM     65  C32 non d ame     -29.296  15.671  21.236  0.00  0.00    -0.083 A 
ATOM     66  H50 non d ame     -31.045  16.470  20.250  0.00  0.00     0.083 H 
ATOM     67  C33 non d ame     -28.769  15.198  22.431  0.00  0.00    -0.082 A 
ATOM     68  H51 non d ame     -28.670  15.705  20.344  0.00  0.00     0.083 H 
ATOM     69  C34 non d ame     -29.555  15.152  23.580  0.00  0.00    -0.075 A 
ATOM     70  H52 non d ame     -27.732  14.863  22.467  0.00  0.00     0.083 H 
ATOM     71  H53 non d ame     -29.134  14.781  24.515  0.00  0.00     0.084 H 
ENDBRANCH  58  61
ENDBRANCH  57  58
ENDBRANCH  55  57
ENDBRANCH  52  55
ENDBRANCH  49  52
ENDBRANCH  47  49
BRANCH  47  72
ATOM     72  C24 non d ame     -35.857  14.981  26.876  0.00  0.00    -0.039 C 
ATOM     73  H35 non d ame     -35.859  13.956  26.503  0.00  0.00     0.036 H 
ATOM     74  H36 non d ame     -36.445  15.243  27.755  0.00  0.00     0.036 H 
BRANCH  72  75
ATOM     75  C25 non d ame     -36.355  15.920  25.677  0.00  0.00    -0.001 C 
ATOM     76  C26 non d ame     -37.860  16.497  26.006  0.00  0.00    -0.035 C 
ATOM     77  C27 non d ame     -38.662  16.253  24.942  0.00  0.00     0.085 C 
ATOM     78  H38 non d ame     -38.315  15.916  26.808  0.00  0.00     0.036 H 
ATOM     79  H39 non d ame     -37.839  17.585  26.065  0.00  0.00     0.036 H 
ATOM     80  N5  non d ame     -37.932  15.275  24.053  0.00  0.00    -0.049 N 
ATOM     81  H40 non d ame     -39.549  15.768  25.352  0.00  0.00     0.075 H 
ATOM     82  H41 non d ame     -38.754  17.206  24.422  0.00  0.00     0.075 H 
ATOM     83  C28 non d ame     -36.400  15.271  24.562  0.00  0.00     0.193 C 
ATOM     84  H42 non d ame     -38.334  14.367  24.236  0.00  0.00     0.280 HD
ATOM     85  H43 non d ame     -37.961  15.662  23.120  0.00  0.00     0.280 HD
ATOM     86  H44 non d ame     -35.628  15.793  23.997  0.00  0.00     0.129 H 
ATOM     87  H37 non d ame     -35.599  16.648  25.381  0.00  0.00     0.046 H 
BRANCH  83  88
ATOM     88  O6  non d ame     -35.931  13.929  24.700  0.00  0.00    -0.369 OA
ATOM     89  H45 non d ame     -36.664  13.356  24.935  0.00  0.00     0.212 HD
ENDBRANCH  83  88
ENDBRANCH  72  75
ENDBRANCH  47  72
ENDBRANCH  45  47
ENDBRANCH   1  43
BRANCH   1  90
ATOM     90  C16 non d ame     -31.436  11.677  28.663  0.00  0.00    -0.035 C 
ATOM     91  H21 non d ame     -31.254  10.682  29.068  0.00  0.00     0.037 H 
ATOM     92  H22 non d ame     -31.235  11.883  27.612  0.00  0.00     0.037 H 
BRANCH  90  93
ATOM     93  C17 non d ame     -30.541  12.658  29.485  0.00  0.00    -0.059 C 
ATOM     94  H23 non d ame     -29.561  12.194  29.599  0.00  0.00     0.038 H 
BRANCH  93  95
ATOM     95  C18 non d ame     -30.339  14.024  28.755  0.00  0.00    -0.073 C 
ATOM     96  H24 non d ame     -30.278  13.856  27.680  0.00  0.00     0.028 H 
ATOM     97  H25 non d ame     -31.181  14.680  28.972  0.00  0.00     0.028 H 
ATOM     98  H26 non d ame     -29.417  14.489  29.103  0.00  0.00     0.028 H 
ENDBRANCH  93  95
BRANCH  93  99
ATOM     99  C19 non d ame     -31.110  12.870  30.890  0.00  0.00    -0.073 C 
ATOM    100  H27 non d ame     -31.685  13.796  30.914  0.00  0.00     0.028 H 
ATOM    101  H28 non d ame     -31.758  12.033  31.151  0.00  0.00     0.028 H 
ATOM    102  H29 non d ame     -30.292  12.932  31.608  0.00  0.00     0.028 H 
ENDBRANCH  93  99
ENDBRANCH  90  93
ENDBRANCH   1  90
TORSDOF 26
ENDMDL
