MODEL 1
REMARK VINA RESULT:      -7.1      0.000      0.000
REMARK  26 active torsions:
REMARK  status: ('A' for Active; 'I' for Inactive)
REMARK    1  A    between atoms: C2_2  and  C3_3 
REMARK    2  A    between atoms: C4_6  and  C5_7 
REMARK       I    between atoms: C5_7  and  N2_9 
REMARK    3  A    between atoms: N2_9  and  C6_10 
REMARK    4  A    between atoms: C6_10  and  C7_11 
REMARK    5  A    between atoms: C6_10  and  C8_13 
REMARK       I    between atoms: C7_11  and  N3_14 
REMARK    6  A    between atoms: N3_14  and  C9_15 
REMARK    7  A    between atoms: C9_15  and  C10_16 
REMARK    8  A    between atoms: C9_15  and  C11_18 
REMARK       I    between atoms: C10_16  and  N4_21 
REMARK    9  A    between atoms: C11_18  and  C12_19 
REMARK   10  A    between atoms: C11_18  and  C13_20 
REMARK   11  A    between atoms: N4_21  and  C14_22 
REMARK   12  A    between atoms: C14_22  and  C15_23 
REMARK   13  A    between atoms: C14_22  and  C16_25 
REMARK       I    between atoms: C15_23  and  N6_40 
REMARK   14  A    between atoms: C16_25  and  C17_26 
REMARK   15  A    between atoms: C17_26  and  C18_27 
REMARK   16  A    between atoms: C17_26  and  C19_28 
REMARK   17  A    between atoms: C20_29  and  C21_30 
REMARK   18  A    between atoms: C20_29  and  C24_33 
REMARK   19  A    between atoms: C20_29  and  N6_40 
REMARK   20  A    between atoms: C21_30  and  C22_31 
REMARK   21  A    between atoms: C22_31  and  C23_32 
REMARK   22  A    between atoms: C23_32  and  O8_43 
REMARK   23  A    between atoms: C24_33  and  C25_34 
REMARK   24  A    between atoms: C28_38  and  O6_39 
REMARK   25  A    between atoms: C29_42  and  O8_43 
REMARK   26  A    between atoms: C29_42  and  C35_49 
ROOT
ATOM      1  C14 non d ame     -30.727  14.447  23.854  0.00  0.00     0.089 C 
ATOM      2  H20 non d ame     -29.644  14.527  23.766  0.00  0.00     0.087 H 
ENDROOT
BRANCH   1   3
ATOM      3  N4  non d ame     -31.042  13.054  24.134  0.00  0.00    -0.346 N 
ATOM      4  C10 non d ame     -30.437  11.953  23.299  0.00  0.00     0.241 C 
ATOM      5  O4  non d ame     -29.702  12.214  22.404  0.00  0.00    -0.271 OA
ATOM      6  H19 non d ame     -31.672  12.853  24.898  0.00  0.00     0.163 HD
BRANCH   4   7
ATOM      7  C9  non d ame     -30.770  10.517  23.606  0.00  0.00     0.092 C 
ATOM      8  H11 non d ame     -30.115  10.159  24.400  0.00  0.00     0.088 H 
BRANCH   7   9
ATOM      9  N3  non d ame     -32.145  10.429  24.106  0.00  0.00    -0.346 N 
ATOM     10  C7  non d ame     -32.403  10.501  25.523  0.00  0.00     0.240 C 
ATOM     11  O3  non d ame     -31.515  10.628  26.275  0.00  0.00    -0.271 OA
ATOM     12  H10 non d ame     -32.921  10.318  23.469  0.00  0.00     0.163 HD
BRANCH  10  13
ATOM     13  C6  non d ame     -33.868  10.404  26.049  0.00  0.00     0.086 C 
ATOM     14  H6  non d ame     -33.940  10.551  27.127  0.00  0.00     0.086 H 
BRANCH  13  15
ATOM     15  N2  non d ame     -34.661  11.455  25.433  0.00  0.00    -0.343 N 
ATOM     16  C5  non d ame     -35.662  12.166  26.231  0.00  0.00     0.273 C 
ATOM     17  O2  non d ame     -35.823  11.884  27.367  0.00  0.00    -0.266 OA
ATOM     18  H5  non d ame     -34.518  11.688  24.460  0.00  0.00     0.163 HD
BRANCH  16  19
ATOM     19  C4  non d ame     -36.506  13.280  25.593  0.00  0.00     0.154 A 
ATOM     20  C1  non d ame     -37.024  13.316  24.259  0.00  0.00    -0.017 A 
ATOM     21  C2  non d ame     -37.722  14.541  24.173  0.00  0.00     0.077 A 
ATOM     22  H1  non d ame     -36.912  12.568  23.475  0.00  0.00     0.091 H 
ATOM     23  O1  non d ame     -37.612  15.132  25.328  0.00  0.00    -0.218 OA
ATOM     24  N1  non d ame     -36.907  14.415  26.172  0.00  0.00    -0.123 NA
BRANCH  21  25
ATOM     25  C3  non d ame     -38.466  15.072  22.955  0.00  0.00    -0.029 C 
ATOM     26  H2  non d ame     -39.278  14.391  22.700  0.00  0.00     0.036 H 
ATOM     27  H3  non d ame     -38.876  16.056  23.180  0.00  0.00     0.036 H 
ATOM     28  H4  non d ame     -37.778  15.149  22.114  0.00  0.00     0.036 H 
ENDBRANCH  21  25
ENDBRANCH  16  19
ENDBRANCH  13  15
BRANCH  13  29
ATOM     29  C8  non d ame     -34.442   9.054  25.702  0.00  0.00    -0.049 C 
ATOM     30  H7  non d ame     -34.377   8.898  24.625  0.00  0.00     0.030 H 
ATOM     31  H8  non d ame     -33.876   8.277  26.216  0.00  0.00     0.030 H 
ATOM     32  H9  non d ame     -35.485   9.011  26.014  0.00  0.00     0.030 H 
ENDBRANCH  13  29
ENDBRANCH  10  13
ENDBRANCH   7   9
BRANCH   7  33
ATOM     33  C11 non d ame     -30.637   9.665  22.310  0.00  0.00    -0.033 C 
ATOM     34  H12 non d ame     -30.648  10.351  21.463  0.00  0.00     0.042 H 
BRANCH  33  35
ATOM     35  C12 non d ame     -29.279   8.896  22.272  0.00  0.00    -0.071 C 
ATOM     36  H13 non d ame     -29.042   8.628  21.242  0.00  0.00     0.028 H 
ATOM     37  H14 non d ame     -28.490   9.532  22.672  0.00  0.00     0.028 H 
ATOM     38  H15 non d ame     -29.358   7.991  22.873  0.00  0.00     0.028 H 
ENDBRANCH  33  35
BRANCH  33  39
ATOM     39  C13 non d ame     -31.846   8.688  22.156  0.00  0.00    -0.071 C 
ATOM     40  H16 non d ame     -31.788   7.915  22.922  0.00  0.00     0.028 H 
ATOM     41  H17 non d ame     -32.778   9.242  22.268  0.00  0.00     0.028 H 
ATOM     42  H18 non d ame     -31.816   8.225  21.169  0.00  0.00     0.028 H 
ENDBRANCH  33  39
ENDBRANCH   7  33
ENDBRANCH   4   7
ENDBRANCH   1   3
BRANCH   1  43
ATOM     43  C15 non d ame     -31.290  15.323  25.010  0.00  0.00     0.240 C 
ATOM     44  O5  non d ame     -31.353  16.503  24.880  0.00  0.00    -0.271 OA
ATOM     45  N6  non d ame     -31.758  14.691  26.276  0.00  0.00    -0.355 N 
ATOM     46  H46 non d ame     -31.713  13.689  26.396  0.00  0.00     0.162 HD
BRANCH  45  47
ATOM     47  C20 non d ame     -32.291  15.538  27.365  0.00  0.00     0.013 C 
ATOM     48  H30 non d ame     -31.866  16.535  27.253  0.00  0.00     0.072 H 
BRANCH  47  49
ATOM     49  C21 non d ame     -31.887  14.951  28.698  0.00  0.00    -0.038 C 
ATOM     50  H31 non d ame     -30.807  14.811  28.644  0.00  0.00     0.036 H 
ATOM     51  H32 non d ame     -32.314  15.612  29.452  0.00  0.00     0.036 H 
BRANCH  49  52
ATOM     52  C22 non d ame     -32.497  13.554  28.947  0.00  0.00     0.018 C 
ATOM     53  H33 non d ame     -33.149  13.666  29.812  0.00  0.00     0.048 H 
ATOM     54  H34 non d ame     -32.910  13.237  27.989  0.00  0.00     0.048 H 
BRANCH  52  55
ATOM     55  C23 non d ame     -31.449  12.474  29.339  0.00  0.00     0.259 C 
ATOM     56  O7  non d ame     -30.340  12.530  28.918  0.00  0.00    -0.265 OA
BRANCH  55  57
ATOM     57  O8  non d ame     -31.836  11.408  30.198  0.00  0.00    -0.317 OA
BRANCH  57  58
ATOM     58  C29 non d ame     -32.818  10.534  29.635  0.00  0.00     0.052 C 
ATOM     59  H47 non d ame     -33.334  11.120  28.875  0.00  0.00     0.082 H 
ATOM     60  H48 non d ame     -32.281   9.629  29.354  0.00  0.00     0.082 H 
BRANCH  58  61
ATOM     61  C35 non d ame     -33.834  10.174  30.752  0.00  0.00    -0.034 A 
ATOM     62  C30 non d ame     -34.404   8.906  30.793  0.00  0.00    -0.075 A 
ATOM     63  C31 non d ame     -35.317   8.583  31.795  0.00  0.00    -0.082 A 
ATOM     64  H49 non d ame     -34.135   8.165  30.040  0.00  0.00     0.084 H 
ATOM     65  C32 non d ame     -35.663   9.535  32.758  0.00  0.00    -0.083 A 
ATOM     66  H50 non d ame     -35.761   7.587  31.826  0.00  0.00     0.083 H 
ATOM     67  C33 non d ame     -35.094  10.801  32.711  0.00  0.00    -0.082 A 
ATOM     68  H51 non d ame     -36.375   9.291  33.546  0.00  0.00     0.083 H 
ATOM     69  C34 non d ame     -34.179  11.127  31.712  0.00  0.00    -0.075 A 
ATOM     70  H52 non d ame     -35.367  11.542  33.462  0.00  0.00     0.083 H 
ATOM     71  H53 non d ame     -33.736  12.123  31.682  0.00  0.00     0.084 H 
ENDBRANCH  58  61
ENDBRANCH  57  58
ENDBRANCH  55  57
ENDBRANCH  52  55
ENDBRANCH  49  52
ENDBRANCH  47  49
BRANCH  47  72
ATOM     72  C24 non d ame     -33.814  15.597  27.274  0.00  0.00    -0.039 C 
ATOM     73  H35 non d ame     -34.075  15.016  26.389  0.00  0.00     0.036 H 
ATOM     74  H36 non d ame     -34.176  15.288  28.254  0.00  0.00     0.036 H 
BRANCH  72  75
ATOM     75  C25 non d ame     -34.335  17.092  27.028  0.00  0.00    -0.001 C 
ATOM     76  C26 non d ame     -35.570  17.431  28.060  0.00  0.00    -0.035 C 
ATOM     77  C27 non d ame     -36.614  17.917  27.346  0.00  0.00     0.085 C 
ATOM     78  H38 non d ame     -35.962  16.510  28.489  0.00  0.00     0.036 H 
ATOM     79  H39 non d ame     -35.297  18.263  28.709  0.00  0.00     0.036 H 
ATOM     80  N5  non d ame     -36.324  17.634  25.892  0.00  0.00    -0.049 N 
ATOM     81  H40 non d ame     -37.478  17.330  27.657  0.00  0.00     0.075 H 
ATOM     82  H41 non d ame     -36.601  18.994  27.507  0.00  0.00     0.075 H 
ATOM     83  C28 non d ame     -34.759  17.247  25.818  0.00  0.00     0.193 C 
ATOM     84  H42 non d ame     -36.869  16.820  25.644  0.00  0.00     0.280 HD
ATOM     85  H43 non d ame     -36.464  18.504  25.398  0.00  0.00     0.280 HD
ATOM     86  H44 non d ame     -34.028  17.963  25.442  0.00  0.00     0.129 H 
ATOM     87  H37 non d ame     -33.518  17.812  26.980  0.00  0.00     0.046 H 
BRANCH  83  88
ATOM     88  O6  non d ame     -34.579  16.069  25.030  0.00  0.00    -0.369 OA
ATOM     89  H45 non d ame     -34.922  15.309  25.506  0.00  0.00     0.212 HD
ENDBRANCH  83  88
ENDBRANCH  72  75
ENDBRANCH  47  72
ENDBRANCH  45  47
ENDBRANCH   1  43
BRANCH   1  90
ATOM     90  C16 non d ame     -31.382  14.849  22.542  0.00  0.00    -0.035 C 
ATOM     91  H21 non d ame     -31.598  13.913  22.028  0.00  0.00     0.037 H 
ATOM     92  H22 non d ame     -32.195  15.520  22.819  0.00  0.00     0.037 H 
BRANCH  90  93
ATOM     93  C17 non d ame     -30.441  15.664  21.597  0.00  0.00    -0.059 C 
ATOM     94  H23 non d ame     -30.712  16.715  21.688  0.00  0.00     0.038 H 
BRANCH  93  95
ATOM     95  C18 non d ame     -28.938  15.522  21.997  0.00  0.00    -0.073 C 
ATOM     96  H24 non d ame     -28.847  14.822  22.827  0.00  0.00     0.028 H 
ATOM     97  H25 non d ame     -28.369  15.150  21.146  0.00  0.00     0.028 H 
ATOM     98  H26 non d ame     -28.548  16.494  22.297  0.00  0.00     0.028 H 
ENDBRANCH  93  95
BRANCH  93  99
ATOM     99  C19 non d ame     -30.656  15.264  20.135  0.00  0.00    -0.073 C 
ATOM    100  H27 non d ame     -29.705  14.960  19.698  0.00  0.00     0.028 H 
ATOM    101  H28 non d ame     -31.361  14.433  20.085  0.00  0.00     0.028 H 
ATOM    102  H29 non d ame     -31.056  16.113  19.581  0.00  0.00     0.028 H 
ENDBRANCH  93  99
ENDBRANCH  90  93
ENDBRANCH   1  90
TORSDOF 26
ENDMDL
MODEL 2
REMARK VINA RESULT:      -7.0      3.291      6.640
REMARK  26 active torsions:
REMARK  status: ('A' for Active; 'I' for Inactive)
REMARK    1  A    between atoms: C2_2  and  C3_3 
REMARK    2  A    between atoms: C4_6  and  C5_7 
REMARK       I    between atoms: C5_7  and  N2_9 
REMARK    3  A    between atoms: N2_9  and  C6_10 
REMARK    4  A    between atoms: C6_10  and  C7_11 
REMARK    5  A    between atoms: C6_10  and  C8_13 
REMARK       I    between atoms: C7_11  and  N3_14 
REMARK    6  A    between atoms: N3_14  and  C9_15 
REMARK    7  A    between atoms: C9_15  and  C10_16 
REMARK    8  A    between atoms: C9_15  and  C11_18 
REMARK       I    between atoms: C10_16  and  N4_21 
REMARK    9  A    between atoms: C11_18  and  C12_19 
REMARK   10  A    between atoms: C11_18  and  C13_20 
REMARK   11  A    between atoms: N4_21  and  C14_22 
REMARK   12  A    between atoms: C14_22  and  C15_23 
REMARK   13  A    between atoms: C14_22  and  C16_25 
REMARK       I    between atoms: C15_23  and  N6_40 
REMARK   14  A    between atoms: C16_25  and  C17_26 
REMARK   15  A    between atoms: C17_26  and  C18_27 
REMARK   16  A    between atoms: C17_26  and  C19_28 
REMARK   17  A    between atoms: C20_29  and  C21_30 
REMARK   18  A    between atoms: C20_29  and  C24_33 
REMARK   19  A    between atoms: C20_29  and  N6_40 
REMARK   20  A    between atoms: C21_30  and  C22_31 
REMARK   21  A    between atoms: C22_31  and  C23_32 
REMARK   22  A    between atoms: C23_32  and  O8_43 
REMARK   23  A    between atoms: C24_33  and  C25_34 
REMARK   24  A    between atoms: C28_38  and  O6_39 
REMARK   25  A    between atoms: C29_42  and  O8_43 
REMARK   26  A    between atoms: C29_42  and  C35_49 
ROOT
ATOM      1  C14 non d ame     -32.927  10.421  25.625  0.00  0.00     0.089 C 
ATOM      2  H20 non d ame     -33.645  10.508  24.809  0.00  0.00     0.087 H 
ENDROOT
BRANCH   1   3
ATOM      3  N4  non d ame     -32.369   9.077  25.575  0.00  0.00    -0.346 N 
ATOM      4  C10 non d ame     -33.084   7.983  24.822  0.00  0.00     0.241 C 
ATOM      5  O4  non d ame     -34.108   8.208  24.267  0.00  0.00    -0.271 OA
ATOM      6  H19 non d ame     -31.498   8.907  26.057  0.00  0.00     0.163 HD
BRANCH   4   7
ATOM      7  C9  non d ame     -32.489   6.600  24.776  0.00  0.00     0.092 C 
ATOM      8  H11 non d ame     -31.425   6.660  25.003  0.00  0.00     0.088 H 
BRANCH   7   9
ATOM      9  N3  non d ame     -33.107   5.768  25.813  0.00  0.00    -0.346 N 
ATOM     10  C7  non d ame     -32.655   5.865  27.179  0.00  0.00     0.240 C 
ATOM     11  O3  non d ame     -31.795   6.607  27.462  0.00  0.00    -0.271 OA
ATOM     12  H10 non d ame     -33.849   5.122  25.583  0.00  0.00     0.163 HD
BRANCH  10  13
ATOM     13  C6  non d ame     -33.315   4.974  28.277  0.00  0.00     0.086 C 
ATOM     14  H6  non d ame     -32.681   4.849  29.155  0.00  0.00     0.086 H 
BRANCH  13  15
ATOM     15  N2  non d ame     -34.537   5.615  28.734  0.00  0.00    -0.343 N 
ATOM     16  C5  non d ame     -34.907   5.537  30.148  0.00  0.00     0.273 C 
ATOM     17  O2  non d ame     -34.217   4.953  30.910  0.00  0.00    -0.266 OA
ATOM     18  H5  non d ame     -35.122   6.110  28.075  0.00  0.00     0.163 HD
BRANCH  16  19
ATOM     19  C4  non d ame     -36.195   6.211  30.645  0.00  0.00     0.154 A 
ATOM     20  C1  non d ame     -36.467   7.615  30.709  0.00  0.00    -0.017 A 
ATOM     21  C2  non d ame     -37.776   7.708  31.233  0.00  0.00     0.077 A 
ATOM     22  H1  non d ame     -35.815   8.439  30.419  0.00  0.00     0.091 H 
ATOM     23  O1  non d ame     -38.197   6.495  31.441  0.00  0.00    -0.218 OA
ATOM     24  N1  non d ame     -37.293   5.604  31.106  0.00  0.00    -0.123 NA
BRANCH  21  25
ATOM     25  C3  non d ame     -38.550   8.992  31.503  0.00  0.00    -0.029 C 
ATOM     26  H2  non d ame     -38.927   8.981  32.525  0.00  0.00     0.036 H 
ATOM     27  H3  non d ame     -37.889   9.848  31.368  0.00  0.00     0.036 H 
ATOM     28  H4  non d ame     -39.386   9.065  30.807  0.00  0.00     0.036 H 
ENDBRANCH  21  25
ENDBRANCH  16  19
ENDBRANCH  13  15
BRANCH  13  29
ATOM     29  C8  non d ame     -33.628   3.615  27.704  0.00  0.00    -0.049 C 
ATOM     30  H7  non d ame     -33.398   2.847  28.444  0.00  0.00     0.030 H 
ATOM     31  H8  non d ame     -34.685   3.565  27.445  0.00  0.00     0.030 H 
ATOM     32  H9  non d ame     -33.026   3.450  26.810  0.00  0.00     0.030 H 
ENDBRANCH  13  29
ENDBRANCH  10  13
ENDBRANCH   7   9
BRANCH   7  33
ATOM     33  C11 non d ame     -32.756   5.967  23.379  0.00  0.00    -0.033 C 
ATOM     34  H12 non d ame     -33.598   6.497  22.934  0.00  0.00     0.042 H 
BRANCH  33  35
ATOM     35  C12 non d ame     -31.531   6.151  22.429  0.00  0.00    -0.071 C 
ATOM     36  H13 non d ame     -30.762   6.735  22.936  0.00  0.00     0.028 H 
ATOM     37  H14 non d ame     -31.129   5.174  22.162  0.00  0.00     0.028 H 
ATOM     38  H15 non d ame     -31.847   6.674  21.526  0.00  0.00     0.028 H 
ENDBRANCH  33  35
BRANCH  33  39
ATOM     39  C13 non d ame     -33.148   4.461  23.513  0.00  0.00    -0.071 C 
ATOM     40  H16 non d ame     -32.717   4.053  24.428  0.00  0.00     0.028 H 
ATOM     41  H17 non d ame     -34.234   4.370  23.550  0.00  0.00     0.028 H 
ATOM     42  H18 non d ame     -32.767   3.909  22.654  0.00  0.00     0.028 H 
ENDBRANCH  33  39
ENDBRANCH   7  33
ENDBRANCH   4   7
ENDBRANCH   1   3
BRANCH   1  43
ATOM     43  C15 non d ame     -31.764  11.445  25.496  0.00  0.00     0.240 C 
ATOM     44  O5  non d ame     -30.687  11.172  25.918  0.00  0.00    -0.271 OA
ATOM     45  N6  non d ame     -31.991  12.764  24.840  0.00  0.00    -0.355 N 
ATOM     46  H46 non d ame     -32.900  13.005  24.474  0.00  0.00     0.162 HD
BRANCH  45  47
ATOM     47  C20 non d ame     -30.874  13.727  24.724  0.00  0.00     0.013 C 
ATOM     48  H30 non d ame     -30.065  13.381  25.367  0.00  0.00     0.072 H 
BRANCH  47  49
ATOM     49  C21 non d ame     -31.343  15.092  25.172  0.00  0.00    -0.038 C 
ATOM     50  H31 non d ame     -30.796  15.305  26.091  0.00  0.00     0.036 H 
ATOM     51  H32 non d ame     -31.227  15.743  24.305  0.00  0.00     0.036 H 
BRANCH  49  52
ATOM     52  C22 non d ame     -32.843  15.120  25.541  0.00  0.00     0.018 C 
ATOM     53  H33 non d ame     -33.354  15.522  24.667  0.00  0.00     0.048 H 
ATOM     54  H34 non d ame     -33.078  14.117  25.896  0.00  0.00     0.048 H 
BRANCH  52  55
ATOM     55  C23 non d ame     -33.181  16.081  26.714  0.00  0.00     0.259 C 
ATOM     56  O7  non d ame     -33.366  17.237  26.513  0.00  0.00    -0.265 OA
BRANCH  55  57
ATOM     57  O8  non d ame     -33.256  15.565  28.038  0.00  0.00    -0.317 OA
BRANCH  57  58
ATOM     58  C29 non d ame     -33.662  14.195  28.106  0.00  0.00     0.052 C 
ATOM     59  H47 non d ame     -34.607  14.194  28.650  0.00  0.00     0.082 H 
ATOM     60  H48 non d ame     -33.623  13.824  27.083  0.00  0.00     0.082 H 
BRANCH  58  61
ATOM     61  C35 non d ame     -32.610  13.425  28.948  0.00  0.00    -0.034 A 
ATOM     62  C30 non d ame     -33.006  12.712  30.075  0.00  0.00    -0.075 A 
ATOM     63  C31 non d ame     -32.061  12.021  30.832  0.00  0.00    -0.082 A 
ATOM     64  H49 non d ame     -34.057  12.694  30.366  0.00  0.00     0.084 H 
ATOM     65  C32 non d ame     -30.714  12.047  30.459  0.00  0.00    -0.083 A 
ATOM     66  H50 non d ame     -32.375  11.461  31.713  0.00  0.00     0.083 H 
ATOM     67  C33 non d ame     -30.323  12.763  29.336  0.00  0.00    -0.082 A 
ATOM     68  H51 non d ame     -29.969  11.509  31.045  0.00  0.00     0.083 H 
ATOM     69  C34 non d ame     -31.265  13.453  28.576  0.00  0.00    -0.075 A 
ATOM     70  H52 non d ame     -29.271  12.783  29.049  0.00  0.00     0.083 H 
ATOM     71  H53 non d ame     -30.950  14.013  27.694  0.00  0.00     0.084 H 
ENDBRANCH  58  61
ENDBRANCH  57  58
ENDBRANCH  55  57
ENDBRANCH  52  55
ENDBRANCH  49  52
ENDBRANCH  47  49
BRANCH  47  72
ATOM     72  C24 non d ame     -30.404  13.800  23.273  0.00  0.00    -0.039 C 
ATOM     73  H35 non d ame     -29.425  13.321  23.261  0.00  0.00     0.036 H 
ATOM     74  H36 non d ame     -31.221  13.386  22.682  0.00  0.00     0.036 H 
BRANCH  72  75
ATOM     75  C25 non d ame     -30.195  15.314  22.793  0.00  0.00    -0.001 C 
ATOM     76  C26 non d ame     -31.277  15.682  21.611  0.00  0.00    -0.035 C 
ATOM     77  C27 non d ame     -30.609  16.211  20.558  0.00  0.00     0.085 C 
ATOM     78  H38 non d ame     -31.711  14.769  21.205  0.00  0.00     0.036 H 
ATOM     79  H39 non d ame     -31.925  16.496  21.936  0.00  0.00     0.036 H 
ATOM     80  N5  non d ame     -29.142  15.936  20.782  0.00  0.00    -0.049 N 
ATOM     81  H40 non d ame     -30.947  15.649  19.687  0.00  0.00     0.075 H 
ATOM     82  H41 non d ame     -30.782  17.285  20.613  0.00  0.00     0.075 H 
ATOM     83  C28 non d ame     -29.004  15.498  22.329  0.00  0.00     0.193 C 
ATOM     84  H42 non d ame     -28.907  15.144  20.201  0.00  0.00     0.280 HD
ATOM     85  H43 non d ame     -28.664  16.816  20.653  0.00  0.00     0.280 HD
ATOM     86  H44 non d ame     -28.608  16.194  23.069  0.00  0.00     0.129 H 
ATOM     87  H37 non d ame     -30.123  16.007  23.632  0.00  0.00     0.046 H 
BRANCH  83  88
ATOM     88  O6  non d ame     -28.196  14.324  22.439  0.00  0.00    -0.369 OA
ATOM     89  H45 non d ame     -28.736  13.547  22.274  0.00  0.00     0.212 HD
ENDBRANCH  83  88
ENDBRANCH  72  75
ENDBRANCH  47  72
ENDBRANCH  45  47
ENDBRANCH   1  43
BRANCH   1  90
ATOM     90  C16 non d ame     -33.635  10.615  26.957  0.00  0.00    -0.035 C 
ATOM     91  H21 non d ame     -32.893  11.066  27.614  0.00  0.00     0.037 H 
ATOM     92  H22 non d ame     -34.553  11.153  26.720  0.00  0.00     0.037 H 
BRANCH  90  93
ATOM     93  C17 non d ame     -34.070   9.277  27.636  0.00  0.00    -0.059 C 
ATOM     94  H23 non d ame     -33.580   8.462  27.104  0.00  0.00     0.038 H 
BRANCH  93  95
ATOM     95  C18 non d ame     -33.625   9.205  29.132  0.00  0.00    -0.073 C 
ATOM     96  H24 non d ame     -32.876   8.423  29.251  0.00  0.00     0.028 H 
ATOM     97  H25 non d ame     -33.202  10.162  29.433  0.00  0.00     0.028 H 
ATOM     98  H26 non d ame     -34.489   8.977  29.757  0.00  0.00     0.028 H 
ENDBRANCH  93  95
BRANCH  93  99
ATOM     99  C19 non d ame     -35.580   9.064  27.505  0.00  0.00    -0.073 C 
ATOM    100  H27 non d ame     -36.106   9.812  28.100  0.00  0.00     0.028 H 
ATOM    101  H28 non d ame     -35.872   9.161  26.459  0.00  0.00     0.028 H 
ATOM    102  H29 non d ame     -35.839   8.068  27.863  0.00  0.00     0.028 H 
ENDBRANCH  93  99
ENDBRANCH  90  93
ENDBRANCH   1  90
TORSDOF 26
ENDMDL
MODEL 3
REMARK VINA RESULT:      -7.0      1.803      2.828
REMARK  26 active torsions:
REMARK  status: ('A' for Active; 'I' for Inactive)
REMARK    1  A    between atoms: C2_2  and  C3_3 
REMARK    2  A    between atoms: C4_6  and  C5_7 
REMARK       I    between atoms: C5_7  and  N2_9 
REMARK    3  A    between atoms: N2_9  and  C6_10 
REMARK    4  A    between atoms: C6_10  and  C7_11 
REMARK    5  A    between atoms: C6_10  and  C8_13 
REMARK       I    between atoms: C7_11  and  N3_14 
REMARK    6  A    between atoms: N3_14  and  C9_15 
REMARK    7  A    between atoms: C9_15  and  C10_16 
REMARK    8  A    between atoms: C9_15  and  C11_18 
REMARK       I    between atoms: C10_16  and  N4_21 
REMARK    9  A    between atoms: C11_18  and  C12_19 
REMARK   10  A    between atoms: C11_18  and  C13_20 
REMARK   11  A    between atoms: N4_21  and  C14_22 
REMARK   12  A    between atoms: C14_22  and  C15_23 
REMARK   13  A    between atoms: C14_22  and  C16_25 
REMARK       I    between atoms: C15_23  and  N6_40 
REMARK   14  A    between atoms: C16_25  and  C17_26 
REMARK   15  A    between atoms: C17_26  and  C18_27 
REMARK   16  A    between atoms: C17_26  and  C19_28 
REMARK   17  A    between atoms: C20_29  and  C21_30 
REMARK   18  A    between atoms: C20_29  and  C24_33 
REMARK   19  A    between atoms: C20_29  and  N6_40 
REMARK   20  A    between atoms: C21_30  and  C22_31 
REMARK   21  A    between atoms: C22_31  and  C23_32 
REMARK   22  A    between atoms: C23_32  and  O8_43 
REMARK   23  A    between atoms: C24_33  and  C25_34 
REMARK   24  A    between atoms: C28_38  and  O6_39 
REMARK   25  A    between atoms: C29_42  and  O8_43 
REMARK   26  A    between atoms: C29_42  and  C35_49 
ROOT
ATOM      1  C14 non d ame     -31.086  14.161  24.372  0.00  0.00     0.089 C 
ATOM      2  H20 non d ame     -30.097  13.772  24.613  0.00  0.00     0.087 H 
ENDROOT
BRANCH   1   3
ATOM      3  N4  non d ame     -32.046  13.091  24.602  0.00  0.00    -0.346 N 
ATOM      4  C10 non d ame     -31.835  12.107  25.726  0.00  0.00     0.241 C 
ATOM      5  O4  non d ame     -30.883  12.195  26.430  0.00  0.00    -0.271 OA
ATOM      6  H19 non d ame     -32.848  13.032  23.991  0.00  0.00     0.163 HD
BRANCH   4   7
ATOM      7  C9  non d ame     -32.841  11.010  25.953  0.00  0.00     0.092 C 
ATOM      8  H11 non d ame     -32.996  10.882  27.024  0.00  0.00     0.088 H 
BRANCH   7   9
ATOM      9  N3  non d ame     -34.129  11.399  25.372  0.00  0.00    -0.346 N 
ATOM     10  C7  non d ame     -35.136  12.016  26.200  0.00  0.00     0.240 C 
ATOM     11  O3  non d ame     -34.927  12.204  27.336  0.00  0.00    -0.271 OA
ATOM     12  H10 non d ame     -34.325  11.241  24.394  0.00  0.00     0.163 HD
BRANCH  10  13
ATOM     13  C6  non d ame     -36.507  12.425  25.577  0.00  0.00     0.086 C 
ATOM     14  H6  non d ame     -37.352  12.187  26.222  0.00  0.00     0.086 H 
BRANCH  13  15
ATOM     15  N2  non d ame     -36.525  13.866  25.383  0.00  0.00    -0.343 N 
ATOM     16  C5  non d ame     -37.524  14.675  26.084  0.00  0.00     0.273 C 
ATOM     17  O2  non d ame     -38.310  14.158  26.800  0.00  0.00    -0.266 OA
ATOM     18  H5  non d ame     -35.851  14.299  24.768  0.00  0.00     0.163 HD
BRANCH  16  19
ATOM     19  C4  non d ame     -37.553  16.199  25.890  0.00  0.00     0.154 A 
ATOM     20  C1  non d ame     -37.179  16.929  24.717  0.00  0.00    -0.017 A 
ATOM     21  C2  non d ame     -37.388  18.286  25.051  0.00  0.00     0.077 A 
ATOM     22  H1  non d ame     -36.812  16.535  23.770  0.00  0.00     0.091 H 
ATOM     23  O1  non d ame     -37.832  18.320  26.274  0.00  0.00    -0.218 OA
ATOM     24  N1  non d ame     -37.937  17.115  26.784  0.00  0.00    -0.123 NA
BRANCH  21  25
ATOM     25  C3  non d ame     -37.141  19.485  24.146  0.00  0.00    -0.029 C 
ATOM     26  H2  non d ame     -37.213  19.176  23.104  0.00  0.00     0.036 H 
ATOM     27  H3  non d ame     -37.888  20.253  24.349  0.00  0.00     0.036 H 
ATOM     28  H4  non d ame     -36.146  19.887  24.338  0.00  0.00     0.036 H 
ENDBRANCH  21  25
ENDBRANCH  16  19
ENDBRANCH  13  15
BRANCH  13  29
ATOM     29  C8  non d ame     -36.690  11.724  24.255  0.00  0.00    -0.049 C 
ATOM     30  H7  non d ame     -37.427  12.261  23.658  0.00  0.00     0.030 H 
ATOM     31  H8  non d ame     -35.740  11.699  23.722  0.00  0.00     0.030 H 
ATOM     32  H9  non d ame     -37.037  10.705  24.429  0.00  0.00     0.030 H 
ENDBRANCH  13  29
ENDBRANCH  10  13
ENDBRANCH   7   9
BRANCH   7  33
ATOM     33  C11 non d ame     -32.343   9.701  25.273  0.00  0.00    -0.033 C 
ATOM     34  H12 non d ame     -31.337   9.501  25.642  0.00  0.00     0.042 H 
BRANCH  33  35
ATOM     35  C12 non d ame     -33.236   8.482  25.663  0.00  0.00    -0.071 C 
ATOM     36  H13 non d ame     -33.534   7.947  24.761  0.00  0.00     0.028 H 
ATOM     37  H14 non d ame     -32.674   7.813  26.313  0.00  0.00     0.028 H 
ATOM     38  H15 non d ame     -34.125   8.836  26.185  0.00  0.00     0.028 H 
ENDBRANCH  33  35
BRANCH  33  39
ATOM     39  C13 non d ame     -32.263   9.872  23.722  0.00  0.00    -0.071 C 
ATOM     40  H16 non d ame     -32.149   8.894  23.254  0.00  0.00     0.028 H 
ATOM     41  H17 non d ame     -33.178  10.343  23.361  0.00  0.00     0.028 H 
ATOM     42  H18 non d ame     -31.409  10.499  23.469  0.00  0.00     0.028 H 
ENDBRANCH  33  39
ENDBRANCH   7  33
ENDBRANCH   4   7
ENDBRANCH   1   3
BRANCH   1  43
ATOM     43  C15 non d ame     -31.473  15.374  25.266  0.00  0.00     0.240 C 
ATOM     44  O5  non d ame     -31.104  16.465  24.974  0.00  0.00    -0.271 OA
ATOM     45  N6  non d ame     -32.313  15.177  26.482  0.00  0.00    -0.355 N 
ATOM     46  H46 non d ame     -32.637  14.255  26.738  0.00  0.00     0.162 HD
BRANCH  45  47
ATOM     47  C20 non d ame     -32.673  16.340  27.321  0.00  0.00     0.013 C 
ATOM     48  H30 non d ame     -31.949  17.131  27.126  0.00  0.00     0.072 H 
BRANCH  47  49
ATOM     49  C21 non d ame     -32.623  15.941  28.778  0.00  0.00    -0.038 C 
ATOM     50  H31 non d ame     -31.700  16.369  29.169  0.00  0.00     0.036 H 
ATOM     51  H32 non d ame     -33.583  16.240  29.198  0.00  0.00     0.036 H 
BRANCH  49  52
ATOM     52  C22 non d ame     -32.515  14.413  28.977  0.00  0.00     0.018 C 
ATOM     53  H33 non d ame     -33.325  14.146  29.655  0.00  0.00     0.048 H 
ATOM     54  H34 non d ame     -32.480  13.986  27.975  0.00  0.00     0.048 H 
BRANCH  52  55
ATOM     55  C23 non d ame     -31.204  13.965  29.680  0.00  0.00     0.259 C 
ATOM     56  O7  non d ame     -30.464  14.769  30.146  0.00  0.00    -0.265 OA
BRANCH  55  57
ATOM     57  O8  non d ame     -30.889  12.579  29.749  0.00  0.00    -0.317 OA
BRANCH  57  58
ATOM     58  C29 non d ame     -31.314  11.945  30.959  0.00  0.00     0.052 C 
ATOM     59  H47 non d ame     -30.516  11.252  31.224  0.00  0.00     0.082 H 
ATOM     60  H48 non d ame     -31.581  12.754  31.638  0.00  0.00     0.082 H 
BRANCH  58  61
ATOM     61  C35 non d ame     -32.593  11.124  30.645  0.00  0.00    -0.034 A 
ATOM     62  C30 non d ame     -32.649  10.329  29.505  0.00  0.00    -0.075 A 
ATOM     63  C31 non d ame     -33.798   9.592  29.224  0.00  0.00    -0.082 A 
ATOM     64  H49 non d ame     -31.793  10.284  28.832  0.00  0.00     0.084 H 
ATOM     65  C32 non d ame     -34.896   9.654  30.086  0.00  0.00    -0.083 A 
ATOM     66  H50 non d ame     -33.838   8.969  28.330  0.00  0.00     0.083 H 
ATOM     67  C33 non d ame     -34.837  10.451  31.221  0.00  0.00    -0.082 A 
ATOM     68  H51 non d ame     -35.798   9.080  29.874  0.00  0.00     0.083 H 
ATOM     69  C34 non d ame     -33.689  11.188  31.508  0.00  0.00    -0.075 A 
ATOM     70  H52 non d ame     -35.696  10.499  31.891  0.00  0.00     0.083 H 
ATOM     71  H53 non d ame     -33.650  11.811  32.402  0.00  0.00     0.084 H 
ENDBRANCH  58  61
ENDBRANCH  57  58
ENDBRANCH  55  57
ENDBRANCH  52  55
ENDBRANCH  49  52
ENDBRANCH  47  49
BRANCH  47  72
ATOM     72  C24 non d ame     -34.083  16.813  26.970  0.00  0.00    -0.039 C 
ATOM     73  H35 non d ame     -34.335  16.305  26.039  0.00  0.00     0.036 H 
ATOM     74  H36 non d ame     -34.679  16.637  27.865  0.00  0.00     0.036 H 
BRANCH  72  75
ATOM     75  C25 non d ame     -34.124  18.387  26.676  0.00  0.00    -0.001 C 
ATOM     76  C26 non d ame     -32.608  19.016  26.779  0.00  0.00    -0.035 C 
ATOM     77  C27 non d ame     -32.636  20.088  27.606  0.00  0.00     0.085 C 
ATOM     78  H38 non d ame     -31.947  18.316  27.290  0.00  0.00     0.036 H 
ATOM     79  H39 non d ame     -32.314  19.442  25.820  0.00  0.00     0.036 H 
ATOM     80  N5  non d ame     -33.959  20.051  28.332  0.00  0.00    -0.049 N 
ATOM     81  H40 non d ame     -31.832  19.922  28.324  0.00  0.00     0.075 H 
ATOM     82  H41 non d ame     -32.613  20.960  26.954  0.00  0.00     0.075 H 
ATOM     83  C28 non d ame     -34.880  19.001  27.523  0.00  0.00     0.193 C 
ATOM     84  H42 non d ame     -33.771  19.674  29.250  0.00  0.00     0.280 HD
ATOM     85  H43 non d ame     -34.362  20.973  28.238  0.00  0.00     0.280 HD
ATOM     86  H44 non d ame     -35.672  19.354  26.862  0.00  0.00     0.129 H 
ATOM     87  H37 non d ame     -34.700  18.625  25.781  0.00  0.00     0.046 H 
BRANCH  83  88
ATOM     88  O6  non d ame     -35.514  18.100  28.432  0.00  0.00    -0.369 OA
ATOM     89  H45 non d ame     -35.801  17.316  27.957  0.00  0.00     0.212 HD
ENDBRANCH  83  88
ENDBRANCH  72  75
ENDBRANCH  47  72
ENDBRANCH  45  47
ENDBRANCH   1  43
BRANCH   1  90
ATOM     90  C16 non d ame     -31.138  14.568  22.908  0.00  0.00    -0.035 C 
ATOM     91  H21 non d ame     -31.907  13.938  22.461  0.00  0.00     0.037 H 
ATOM     92  H22 non d ame     -31.256  15.651  22.914  0.00  0.00     0.037 H 
BRANCH  90  93
ATOM     93  C17 non d ame     -29.818  14.271  22.129  0.00  0.00    -0.059 C 
ATOM     94  H23 non d ame     -29.962  14.596  21.098  0.00  0.00     0.038 H 
BRANCH  93  95
ATOM     95  C18 non d ame     -28.600  15.058  22.710  0.00  0.00    -0.073 C 
ATOM     96  H24 non d ame     -27.719  14.869  22.098  0.00  0.00     0.028 H 
ATOM     97  H25 non d ame     -28.822  16.125  22.707  0.00  0.00     0.028 H 
ATOM     98  H26 non d ame     -28.410  14.730  23.732  0.00  0.00     0.028 H 
ENDBRANCH  93  95
BRANCH  93  99
ATOM     99  C19 non d ame     -29.529  12.768  22.095  0.00  0.00    -0.073 C 
ATOM    100  H27 non d ame     -29.600  12.361  23.104  0.00  0.00     0.028 H 
ATOM    101  H28 non d ame     -30.255  12.272  21.451  0.00  0.00     0.028 H 
ATOM    102  H29 non d ame     -28.525  12.599  21.706  0.00  0.00     0.028 H 
ENDBRANCH  93  99
ENDBRANCH  90  93
ENDBRANCH   1  90
TORSDOF 26
ENDMDL
MODEL 4
REMARK VINA RESULT:      -6.9      3.423      7.361
REMARK  26 active torsions:
REMARK  status: ('A' for Active; 'I' for Inactive)
REMARK    1  A    between atoms: C2_2  and  C3_3 
REMARK    2  A    between atoms: C4_6  and  C5_7 
REMARK       I    between atoms: C5_7  and  N2_9 
REMARK    3  A    between atoms: N2_9  and  C6_10 
REMARK    4  A    between atoms: C6_10  and  C7_11 
REMARK    5  A    between atoms: C6_10  and  C8_13 
REMARK       I    between atoms: C7_11  and  N3_14 
REMARK    6  A    between atoms: N3_14  and  C9_15 
REMARK    7  A    between atoms: C9_15  and  C10_16 
REMARK    8  A    between atoms: C9_15  and  C11_18 
REMARK       I    between atoms: C10_16  and  N4_21 
REMARK    9  A    between atoms: C11_18  and  C12_19 
REMARK   10  A    between atoms: C11_18  and  C13_20 
REMARK   11  A    between atoms: N4_21  and  C14_22 
REMARK   12  A    between atoms: C14_22  and  C15_23 
REMARK   13  A    between atoms: C14_22  and  C16_25 
REMARK       I    between atoms: C15_23  and  N6_40 
REMARK   14  A    between atoms: C16_25  and  C17_26 
REMARK   15  A    between atoms: C17_26  and  C18_27 
REMARK   16  A    between atoms: C17_26  and  C19_28 
REMARK   17  A    between atoms: C20_29  and  C21_30 
REMARK   18  A    between atoms: C20_29  and  C24_33 
REMARK   19  A    between atoms: C20_29  and  N6_40 
REMARK   20  A    between atoms: C21_30  and  C22_31 
REMARK   21  A    between atoms: C22_31  and  C23_32 
REMARK   22  A    between atoms: C23_32  and  O8_43 
REMARK   23  A    between atoms: C24_33  and  C25_34 
REMARK   24  A    between atoms: C28_38  and  O6_39 
REMARK   25  A    between atoms: C29_42  and  O8_43 
REMARK   26  A    between atoms: C29_42  and  C35_49 
ROOT
ATOM      1  C14 non d ame     -32.968  10.259  25.459  0.00  0.00     0.089 C 
ATOM      2  H20 non d ame     -33.649  10.345  24.612  0.00  0.00     0.087 H 
ENDROOT
BRANCH   1   3
ATOM      3  N4  non d ame     -32.408   8.916  25.437  0.00  0.00    -0.346 N 
ATOM      4  C10 non d ame     -33.192   7.774  24.841  0.00  0.00     0.241 C 
ATOM      5  O4  non d ame     -34.273   7.960  24.389  0.00  0.00    -0.271 OA
ATOM      6  H19 non d ame     -31.487   8.779  25.829  0.00  0.00     0.163 HD
BRANCH   4   7
ATOM      7  C9  non d ame     -32.594   6.392  24.821  0.00  0.00     0.092 C 
ATOM      8  H11 non d ame     -31.528   6.459  25.036  0.00  0.00     0.088 H 
BRANCH   7   9
ATOM      9  N3  non d ame     -33.200   5.581  25.882  0.00  0.00    -0.346 N 
ATOM     10  C7  non d ame     -32.720   5.694  27.237  0.00  0.00     0.240 C 
ATOM     11  O3  non d ame     -31.846   6.431  27.492  0.00  0.00    -0.271 OA
ATOM     12  H10 non d ame     -33.953   4.940  25.678  0.00  0.00     0.163 HD
BRANCH  10  13
ATOM     13  C6  non d ame     -33.366   4.827  28.362  0.00  0.00     0.086 C 
ATOM     14  H6  non d ame     -32.732   4.740  29.244  0.00  0.00     0.086 H 
BRANCH  13  15
ATOM     15  N2  non d ame     -34.599   5.462  28.797  0.00  0.00    -0.343 N 
ATOM     16  C5  non d ame     -34.925   5.502  30.224  0.00  0.00     0.273 C 
ATOM     17  O2  non d ame     -34.191   5.017  31.014  0.00  0.00    -0.266 OA
ATOM     18  H5  non d ame     -35.222   5.872  28.115  0.00  0.00     0.163 HD
BRANCH  16  19
ATOM     19  C4  non d ame     -36.225   6.171  30.699  0.00  0.00     0.154 A 
ATOM     20  C1  non d ame     -36.504   7.574  30.756  0.00  0.00    -0.017 A 
ATOM     21  C2  non d ame     -37.821   7.662  31.258  0.00  0.00     0.077 A 
ATOM     22  H1  non d ame     -35.850   8.400  30.476  0.00  0.00     0.091 H 
ATOM     23  O1  non d ame     -38.241   6.448  31.460  0.00  0.00    -0.218 OA
ATOM     24  N1  non d ame     -37.327   5.560  31.142  0.00  0.00    -0.123 NA
BRANCH  21  25
ATOM     25  C3  non d ame     -38.605   8.943  31.513  0.00  0.00    -0.029 C 
ATOM     26  H2  non d ame     -38.647   9.136  32.584  0.00  0.00     0.036 H 
ATOM     27  H3  non d ame     -38.111   9.776  31.013  0.00  0.00     0.036 H 
ATOM     28  H4  non d ame     -39.617   8.834  31.123  0.00  0.00     0.036 H 
ENDBRANCH  21  25
ENDBRANCH  16  19
ENDBRANCH  13  15
BRANCH  13  29
ATOM     29  C8  non d ame     -33.656   3.446  27.831  0.00  0.00    -0.049 C 
ATOM     30  H7  non d ame     -32.789   2.806  27.993  0.00  0.00     0.030 H 
ATOM     31  H8  non d ame     -34.517   3.030  28.354  0.00  0.00     0.030 H 
ATOM     32  H9  non d ame     -33.871   3.504  26.764  0.00  0.00     0.030 H 
ENDBRANCH  13  29
ENDBRANCH  10  13
ENDBRANCH   7   9
BRANCH   7  33
ATOM     33  C11 non d ame     -32.873   5.726  23.441  0.00  0.00    -0.033 C 
ATOM     34  H12 non d ame     -33.753   6.208  23.016  0.00  0.00     0.042 H 
BRANCH  33  35
ATOM     35  C12 non d ame     -31.688   5.955  22.451  0.00  0.00    -0.071 C 
ATOM     36  H13 non d ame     -30.967   6.638  22.898  0.00  0.00     0.028 H 
ATOM     37  H14 non d ame     -31.204   5.002  22.238  0.00  0.00     0.028 H 
ATOM     38  H15 non d ame     -32.068   6.384  21.524  0.00  0.00     0.028 H 
ENDBRANCH  33  35
BRANCH  33  39
ATOM     39  C13 non d ame     -33.187   4.205  23.607  0.00  0.00    -0.071 C 
ATOM     40  H16 non d ame     -32.604   3.633  22.885  0.00  0.00     0.028 H 
ATOM     41  H17 non d ame     -32.927   3.888  24.618  0.00  0.00     0.028 H 
ATOM     42  H18 non d ame     -34.249   4.032  23.435  0.00  0.00     0.028 H 
ENDBRANCH  33  39
ENDBRANCH   7  33
ENDBRANCH   4   7
ENDBRANCH   1   3
BRANCH   1  43
ATOM     43  C15 non d ame     -31.801  11.284  25.380  0.00  0.00     0.240 C 
ATOM     44  O5  non d ame     -30.754  11.029  25.883  0.00  0.00    -0.271 OA
ATOM     45  N6  non d ame     -31.984  12.582  24.669  0.00  0.00    -0.355 N 
ATOM     46  H46 non d ame     -32.867  12.808  24.234  0.00  0.00     0.162 HD
BRANCH  45  47
ATOM     47  C20 non d ame     -30.864  13.545  24.601  0.00  0.00     0.013 C 
ATOM     48  H30 non d ame     -30.050  13.156  25.212  0.00  0.00     0.072 H 
BRANCH  47  49
ATOM     49  C21 non d ame     -31.321  14.882  25.141  0.00  0.00    -0.038 C 
ATOM     50  H31 non d ame     -30.449  15.317  25.628  0.00  0.00     0.036 H 
ATOM     51  H32 non d ame     -31.789  15.394  24.300  0.00  0.00     0.036 H 
BRANCH  49  52
ATOM     52  C22 non d ame     -32.408  14.748  26.230  0.00  0.00     0.018 C 
ATOM     53  H33 non d ame     -33.054  15.618  26.111  0.00  0.00     0.048 H 
ATOM     54  H34 non d ame     -32.819  13.745  26.116  0.00  0.00     0.048 H 
BRANCH  52  55
ATOM     55  C23 non d ame     -31.854  14.822  27.680  0.00  0.00     0.259 C 
ATOM     56  O7  non d ame     -30.984  14.094  28.031  0.00  0.00    -0.265 OA
BRANCH  55  57
ATOM     57  O8  non d ame     -32.409  15.764  28.590  0.00  0.00    -0.317 OA
BRANCH  57  58
ATOM     58  C29 non d ame     -33.702  16.245  28.214  0.00  0.00     0.052 C 
ATOM     59  H47 non d ame     -34.050  15.573  27.429  0.00  0.00     0.082 H 
ATOM     60  H48 non d ame     -34.265  16.336  29.143  0.00  0.00     0.082 H 
BRANCH  58  61
ATOM     61  C35 non d ame     -33.528  17.662  27.606  0.00  0.00    -0.034 A 
ATOM     62  C30 non d ame     -32.641  18.564  28.184  0.00  0.00    -0.075 A 
ATOM     63  C31 non d ame     -32.484  19.837  27.638  0.00  0.00    -0.082 A 
ATOM     64  H49 non d ame     -32.069  18.274  29.066  0.00  0.00     0.084 H 
ATOM     65  C32 non d ame     -33.221  20.208  26.510  0.00  0.00    -0.083 A 
ATOM     66  H50 non d ame     -31.787  20.542  28.093  0.00  0.00     0.083 H 
ATOM     67  C33 non d ame     -34.107  19.306  25.938  0.00  0.00    -0.082 A 
ATOM     68  H51 non d ame     -33.104  21.201  26.076  0.00  0.00     0.083 H 
ATOM     69  C34 non d ame     -34.266  18.032  26.479  0.00  0.00    -0.075 A 
ATOM     70  H52 non d ame     -34.682  19.599  25.059  0.00  0.00     0.083 H 
ATOM     71  H53 non d ame     -34.963  17.328  26.024  0.00  0.00     0.084 H 
ENDBRANCH  58  61
ENDBRANCH  57  58
ENDBRANCH  55  57
ENDBRANCH  52  55
ENDBRANCH  49  52
ENDBRANCH  47  49
BRANCH  47  72
ATOM     72  C24 non d ame     -30.411  13.708  23.152  0.00  0.00    -0.039 C 
ATOM     73  H35 non d ame     -29.431  13.232  23.099  0.00  0.00     0.036 H 
ATOM     74  H36 non d ame     -31.234  13.330  22.546  0.00  0.00     0.036 H 
BRANCH  72  75
ATOM     75  C25 non d ame     -30.207  15.250  22.765  0.00  0.00    -0.001 C 
ATOM     76  C26 non d ame     -31.276  15.677  21.590  0.00  0.00    -0.035 C 
ATOM     77  C27 non d ame     -30.598  16.272  20.579  0.00  0.00     0.085 C 
ATOM     78  H38 non d ame     -31.697  14.786  21.126  0.00  0.00     0.036 H 
ATOM     79  H39 non d ame     -31.935  16.466  21.953  0.00  0.00     0.036 H 
ATOM     80  N5  non d ame     -29.132  15.995  20.808  0.00  0.00    -0.049 N 
ATOM     81  H40 non d ame     -30.920  15.759  19.673  0.00  0.00     0.075 H 
ATOM     82  H41 non d ame     -30.781  17.339  20.695  0.00  0.00     0.075 H 
ATOM     83  C28 non d ame     -29.012  15.469  22.330  0.00  0.00     0.193 C 
ATOM     84  H42 non d ame     -28.882  15.240  20.186  0.00  0.00     0.280 HD
ATOM     85  H43 non d ame     -28.660  16.885  20.738  0.00  0.00     0.280 HD
ATOM     86  H44 non d ame     -28.632  16.123  23.114  0.00  0.00     0.129 H 
ATOM     87  H37 non d ame     -30.153  15.892  23.643  0.00  0.00     0.046 H 
BRANCH  83  88
ATOM     88  O6  non d ame     -28.196  14.297  22.382  0.00  0.00    -0.369 OA
ATOM     89  H45 non d ame     -27.898  14.155  23.284  0.00  0.00     0.212 HD
ENDBRANCH  83  88
ENDBRANCH  72  75
ENDBRANCH  47  72
ENDBRANCH  45  47
ENDBRANCH   1  43
BRANCH   1  90
ATOM     90  C16 non d ame     -33.733  10.456  26.758  0.00  0.00    -0.035 C 
ATOM     91  H21 non d ame     -33.824  11.535  26.879  0.00  0.00     0.037 H 
ATOM     92  H22 non d ame     -34.628   9.841  26.662  0.00  0.00     0.037 H 
BRANCH  90  93
ATOM     93  C17 non d ame     -32.973   9.934  28.019  0.00  0.00    -0.059 C 
ATOM     94  H23 non d ame     -32.076   9.418  27.674  0.00  0.00     0.038 H 
BRANCH  93  95
ATOM     95  C18 non d ame     -32.522  11.097  28.959  0.00  0.00    -0.073 C 
ATOM     96  H24 non d ame     -31.811  10.717  29.692  0.00  0.00     0.028 H 
ATOM     97  H25 non d ame     -32.048  11.880  28.367  0.00  0.00     0.028 H 
ATOM     98  H26 non d ame     -33.391  11.506  29.473  0.00  0.00     0.028 H 
ENDBRANCH  93  95
BRANCH  93  99
ATOM     99  C19 non d ame     -33.819   8.912  28.783  0.00  0.00    -0.073 C 
ATOM    100  H27 non d ame     -34.871   9.190  28.718  0.00  0.00     0.028 H 
ATOM    101  H28 non d ame     -33.677   7.923  28.348  0.00  0.00     0.028 H 
ATOM    102  H29 non d ame     -33.511   8.895  29.829  0.00  0.00     0.028 H 
ENDBRANCH  93  99
ENDBRANCH  90  93
ENDBRANCH   1  90
TORSDOF 26
ENDMDL
MODEL 5
REMARK VINA RESULT:      -6.8      2.669      7.147
REMARK  26 active torsions:
REMARK  status: ('A' for Active; 'I' for Inactive)
REMARK    1  A    between atoms: C2_2  and  C3_3 
REMARK    2  A    between atoms: C4_6  and  C5_7 
REMARK       I    between atoms: C5_7  and  N2_9 
REMARK    3  A    between atoms: N2_9  and  C6_10 
REMARK    4  A    between atoms: C6_10  and  C7_11 
REMARK    5  A    between atoms: C6_10  and  C8_13 
REMARK       I    between atoms: C7_11  and  N3_14 
REMARK    6  A    between atoms: N3_14  and  C9_15 
REMARK    7  A    between atoms: C9_15  and  C10_16 
REMARK    8  A    between atoms: C9_15  and  C11_18 
REMARK       I    between atoms: C10_16  and  N4_21 
REMARK    9  A    between atoms: C11_18  and  C12_19 
REMARK   10  A    between atoms: C11_18  and  C13_20 
REMARK   11  A    between atoms: N4_21  and  C14_22 
REMARK   12  A    between atoms: C14_22  and  C15_23 
REMARK   13  A    between atoms: C14_22  and  C16_25 
REMARK       I    between atoms: C15_23  and  N6_40 
REMARK   14  A    between atoms: C16_25  and  C17_26 
REMARK   15  A    between atoms: C17_26  and  C18_27 
REMARK   16  A    between atoms: C17_26  and  C19_28 
REMARK   17  A    between atoms: C20_29  and  C21_30 
REMARK   18  A    between atoms: C20_29  and  C24_33 
REMARK   19  A    between atoms: C20_29  and  N6_40 
REMARK   20  A    between atoms: C21_30  and  C22_31 
REMARK   21  A    between atoms: C22_31  and  C23_32 
REMARK   22  A    between atoms: C23_32  and  O8_43 
REMARK   23  A    between atoms: C24_33  and  C25_34 
REMARK   24  A    between atoms: C28_38  and  O6_39 
REMARK   25  A    between atoms: C29_42  and  O8_43 
REMARK   26  A    between atoms: C29_42  and  C35_49 
ROOT
ATOM      1  C14 non d ame     -35.360  14.189  26.440  0.00  0.00     0.089 C 
ATOM      2  H20 non d ame     -35.709  14.665  27.357  0.00  0.00     0.087 H 
ENDROOT
BRANCH   1   3
ATOM      3  N4  non d ame     -34.324  15.038  25.872  0.00  0.00    -0.346 N 
ATOM      4  C10 non d ame     -33.590  16.028  26.741  0.00  0.00     0.241 C 
ATOM      5  O4  non d ame     -33.853  16.126  27.894  0.00  0.00    -0.271 OA
ATOM      6  H19 non d ame     -34.116  14.941  24.888  0.00  0.00     0.163 HD
BRANCH   4   7
ATOM      7  C9  non d ame     -32.516  16.895  26.137  0.00  0.00     0.092 C 
ATOM      8  H11 non d ame     -31.650  16.906  26.799  0.00  0.00     0.088 H 
BRANCH   7   9
ATOM      9  N3  non d ame     -32.079  16.318  24.863  0.00  0.00    -0.346 N 
ATOM     10  C7  non d ame     -31.164  15.203  24.853  0.00  0.00     0.240 C 
ATOM     11  O3  non d ame     -30.767  14.760  25.861  0.00  0.00    -0.271 OA
ATOM     12  H10 non d ame     -32.412  16.690  23.985  0.00  0.00     0.163 HD
BRANCH  10  13
ATOM     13  C6  non d ame     -30.701  14.594  23.493  0.00  0.00     0.086 C 
ATOM     14  H6  non d ame     -29.636  14.736  23.308  0.00  0.00     0.086 H 
BRANCH  13  15
ATOM     15  N2  non d ame     -30.932  13.160  23.515  0.00  0.00    -0.343 N 
ATOM     16  C5  non d ame     -30.089  12.280  22.702  0.00  0.00     0.273 C 
ATOM     17  O2  non d ame     -29.230  12.737  22.031  0.00  0.00    -0.266 OA
ATOM     18  H5  non d ame     -31.670  12.778  24.089  0.00  0.00     0.163 HD
BRANCH  16  19
ATOM     19  C4  non d ame     -30.321  10.761  22.717  0.00  0.00     0.154 A 
ATOM     20  C1  non d ame     -31.340  10.050  23.426  0.00  0.00    -0.017 A 
ATOM     21  C2  non d ame     -31.121   8.690  23.110  0.00  0.00     0.077 A 
ATOM     22  H1  non d ame     -32.119  10.457  24.071  0.00  0.00     0.091 H 
ATOM     23  O1  non d ame     -30.095   8.639  22.312  0.00  0.00    -0.218 OA
ATOM     24  N1  non d ame     -29.611   9.835  22.068  0.00  0.00    -0.123 NA
BRANCH  21  25
ATOM     25  C3  non d ame     -31.936   7.505  23.611  0.00  0.00    -0.029 C 
ATOM     26  H2  non d ame     -32.979   7.801  23.718  0.00  0.00     0.036 H 
ATOM     27  H3  non d ame     -31.862   6.686  22.896  0.00  0.00     0.036 H 
ATOM     28  H4  non d ame     -31.550   7.180  24.577  0.00  0.00     0.036 H 
ENDBRANCH  21  25
ENDBRANCH  16  19
ENDBRANCH  13  15
BRANCH  13  29
ATOM     29  C8  non d ame     -31.478  15.225  22.366  0.00  0.00    -0.049 C 
ATOM     30  H7  non d ame     -30.815  15.396  21.518  0.00  0.00     0.030 H 
ATOM     31  H8  non d ame     -32.287  14.560  22.066  0.00  0.00     0.030 H 
ATOM     32  H9  non d ame     -31.894  16.176  22.699  0.00  0.00     0.030 H 
ENDBRANCH  13  29
ENDBRANCH  10  13
ENDBRANCH   7   9
BRANCH   7  33
ATOM     33  C11 non d ame     -33.081  18.324  25.889  0.00  0.00    -0.033 C 
ATOM     34  H12 non d ame     -32.676  18.678  24.941  0.00  0.00     0.042 H 
BRANCH  33  35
ATOM     35  C12 non d ame     -34.636  18.305  25.757  0.00  0.00    -0.071 C 
ATOM     36  H13 non d ame     -35.059  17.661  26.528  0.00  0.00     0.028 H 
ATOM     37  H14 non d ame     -35.023  19.317  25.876  0.00  0.00     0.028 H 
ATOM     38  H15 non d ame     -34.912  17.923  24.774  0.00  0.00     0.028 H 
ENDBRANCH  33  35
BRANCH  33  39
ATOM     39  C13 non d ame     -32.621  19.311  27.010  0.00  0.00    -0.071 C 
ATOM     40  H16 non d ame     -32.262  20.235  26.556  0.00  0.00     0.028 H 
ATOM     41  H17 non d ame     -33.461  19.531  27.669  0.00  0.00     0.028 H 
ATOM     42  H18 non d ame     -31.817  18.854  27.588  0.00  0.00     0.028 H 
ENDBRANCH  33  39
ENDBRANCH   7  33
ENDBRANCH   4   7
ENDBRANCH   1   3
BRANCH   1  43
ATOM     43  C15 non d ame     -34.757  12.779  26.703  0.00  0.00     0.240 C 
ATOM     44  O5  non d ame     -34.161  12.221  25.840  0.00  0.00    -0.271 OA
ATOM     45  N6  non d ame     -34.914  12.130  28.036  0.00  0.00    -0.355 N 
ATOM     46  H46 non d ame     -35.414  12.596  28.778  0.00  0.00     0.162 HD
BRANCH  45  47
ATOM     47  C20 non d ame     -34.333  10.790  28.271  0.00  0.00     0.013 C 
ATOM     48  H30 non d ame     -34.196  10.309  27.302  0.00  0.00     0.072 H 
BRANCH  47  49
ATOM     49  C21 non d ame     -35.282   9.976  29.122  0.00  0.00    -0.038 C 
ATOM     50  H31 non d ame     -35.399  10.535  30.050  0.00  0.00     0.036 H 
ATOM     51  H32 non d ame     -36.149   9.781  28.490  0.00  0.00     0.036 H 
BRANCH  49  52
ATOM     52  C22 non d ame     -34.706   8.598  29.511  0.00  0.00     0.018 C 
ATOM     53  H33 non d ame     -35.331   7.863  29.005  0.00  0.00     0.048 H 
ATOM     54  H34 non d ame     -33.639   8.651  29.290  0.00  0.00     0.048 H 
BRANCH  52  55
ATOM     55  C23 non d ame     -34.814   8.280  31.028  0.00  0.00     0.259 C 
ATOM     56  O7  non d ame     -34.316   8.999  31.832  0.00  0.00    -0.265 OA
BRANCH  55  57
ATOM     57  O8  non d ame     -35.505   7.110  31.447  0.00  0.00    -0.317 OA
BRANCH  57  58
ATOM     58  C29 non d ame     -35.672   6.131  30.417  0.00  0.00     0.052 C 
ATOM     59  H47 non d ame     -36.574   5.578  30.679  0.00  0.00     0.082 H 
ATOM     60  H48 non d ame     -35.623   6.681  29.478  0.00  0.00     0.082 H 
BRANCH  58  61
ATOM     61  C35 non d ame     -34.464   5.159  30.481  0.00  0.00    -0.034 A 
ATOM     62  C30 non d ame     -34.032   4.663  31.707  0.00  0.00    -0.075 A 
ATOM     63  C31 non d ame     -32.947   3.790  31.764  0.00  0.00    -0.082 A 
ATOM     64  H49 non d ame     -34.543   4.960  32.623  0.00  0.00     0.084 H 
ATOM     65  C32 non d ame     -32.291   3.414  30.589  0.00  0.00    -0.083 A 
ATOM     66  H50 non d ame     -32.612   3.402  32.727  0.00  0.00     0.083 H 
ATOM     67  C33 non d ame     -32.724   3.914  29.368  0.00  0.00    -0.082 A 
ATOM     68  H51 non d ame     -31.442   2.731  30.625  0.00  0.00     0.083 H 
ATOM     69  C34 non d ame     -33.809   4.785  29.306  0.00  0.00    -0.075 A 
ATOM     70  H52 non d ame     -32.208   3.620  28.453  0.00  0.00     0.083 H 
ATOM     71  H53 non d ame     -34.143   5.172  28.343  0.00  0.00     0.084 H 
ENDBRANCH  58  61
ENDBRANCH  57  58
ENDBRANCH  55  57
ENDBRANCH  52  55
ENDBRANCH  49  52
ENDBRANCH  47  49
BRANCH  47  72
ATOM     72  C24 non d ame     -32.993  10.927  28.990  0.00  0.00    -0.039 C 
ATOM     73  H35 non d ame     -32.982  10.133  29.737  0.00  0.00     0.036 H 
ATOM     74  H36 non d ame     -32.241  10.943  28.201  0.00  0.00     0.036 H 
BRANCH  72  75
ATOM     75  C25 non d ame     -32.883  12.318  29.777  0.00  0.00    -0.001 C 
ATOM     76  C26 non d ame     -31.856  13.330  28.985  0.00  0.00    -0.035 C 
ATOM     77  C27 non d ame     -30.939  13.798  29.865  0.00  0.00     0.085 C 
ATOM     78  H38 non d ame     -31.258  12.768  28.268  0.00  0.00     0.036 H 
ATOM     79  H39 non d ame     -32.387  14.228  28.668  0.00  0.00     0.036 H 
ATOM     80  N5  non d ame     -31.046  12.947  31.108  0.00  0.00    -0.049 N 
ATOM     81  H40 non d ame     -29.971  13.623  29.397  0.00  0.00     0.075 H 
ATOM     82  H41 non d ame     -31.255  14.813  30.102  0.00  0.00     0.075 H 
ATOM     83  C28 non d ame     -32.439  12.142  30.977  0.00  0.00     0.193 C 
ATOM     84  H42 non d ame     -30.286  12.283  31.066  0.00  0.00     0.280 HD
ATOM     85  H43 non d ame     -31.116  13.587  31.887  0.00  0.00     0.280 HD
ATOM     86  H44 non d ame     -33.310  12.445  31.557  0.00  0.00     0.129 H 
ATOM     87  H37 non d ame     -33.860  12.717  30.050  0.00  0.00     0.046 H 
BRANCH  83  88
ATOM     88  O6  non d ame     -32.240  10.760  31.281  0.00  0.00    -0.369 OA
ATOM     89  H45 non d ame     -32.943  10.455  31.859  0.00  0.00     0.212 HD
ENDBRANCH  83  88
ENDBRANCH  72  75
ENDBRANCH  47  72
ENDBRANCH  45  47
ENDBRANCH   1  43
BRANCH   1  90
ATOM     90  C16 non d ame     -36.508  14.077  25.449  0.00  0.00    -0.035 C 
ATOM     91  H21 non d ame     -36.044  13.814  24.499  0.00  0.00     0.037 H 
ATOM     92  H22 non d ame     -37.224  13.397  25.912  0.00  0.00     0.037 H 
BRANCH  90  93
ATOM     93  C17 non d ame     -37.265  15.422  25.212  0.00  0.00    -0.059 C 
ATOM     94  H23 non d ame     -36.586  16.096  24.689  0.00  0.00     0.038 H 
BRANCH  93  95
ATOM     95  C18 non d ame     -38.533  15.235  24.319  0.00  0.00    -0.073 C 
ATOM     96  H24 non d ame     -39.229  16.054  24.499  0.00  0.00     0.028 H 
ATOM     97  H25 non d ame     -38.241  15.232  23.269  0.00  0.00     0.028 H 
ATOM     98  H26 non d ame     -39.014  14.289  24.565  0.00  0.00     0.028 H 
ENDBRANCH  93  95
BRANCH  93  99
ATOM     99  C19 non d ame     -37.629  16.086  26.543  0.00  0.00    -0.073 C 
ATOM    100  H27 non d ame     -36.722  16.444  27.031  0.00  0.00     0.028 H 
ATOM    101  H28 non d ame     -38.299  16.926  26.359  0.00  0.00     0.028 H 
ATOM    102  H29 non d ame     -38.126  15.360  27.187  0.00  0.00     0.028 H 
ENDBRANCH  93  99
ENDBRANCH  90  93
ENDBRANCH   1  90
TORSDOF 26
ENDMDL
MODEL 6
REMARK VINA RESULT:      -6.8      2.020      5.717
REMARK  26 active torsions:
REMARK  status: ('A' for Active; 'I' for Inactive)
REMARK    1  A    between atoms: C2_2  and  C3_3 
REMARK    2  A    between atoms: C4_6  and  C5_7 
REMARK       I    between atoms: C5_7  and  N2_9 
REMARK    3  A    between atoms: N2_9  and  C6_10 
REMARK    4  A    between atoms: C6_10  and  C7_11 
REMARK    5  A    between atoms: C6_10  and  C8_13 
REMARK       I    between atoms: C7_11  and  N3_14 
REMARK    6  A    between atoms: N3_14  and  C9_15 
REMARK    7  A    between atoms: C9_15  and  C10_16 
REMARK    8  A    between atoms: C9_15  and  C11_18 
REMARK       I    between atoms: C10_16  and  N4_21 
REMARK    9  A    between atoms: C11_18  and  C12_19 
REMARK   10  A    between atoms: C11_18  and  C13_20 
REMARK   11  A    between atoms: N4_21  and  C14_22 
REMARK   12  A    between atoms: C14_22  and  C15_23 
REMARK   13  A    between atoms: C14_22  and  C16_25 
REMARK       I    between atoms: C15_23  and  N6_40 
REMARK   14  A    between atoms: C16_25  and  C17_26 
REMARK   15  A    between atoms: C17_26  and  C18_27 
REMARK   16  A    between atoms: C17_26  and  C19_28 
REMARK   17  A    between atoms: C20_29  and  C21_30 
REMARK   18  A    between atoms: C20_29  and  C24_33 
REMARK   19  A    between atoms: C20_29  and  N6_40 
REMARK   20  A    between atoms: C21_30  and  C22_31 
REMARK   21  A    between atoms: C22_31  and  C23_32 
REMARK   22  A    between atoms: C23_32  and  O8_43 
REMARK   23  A    between atoms: C24_33  and  C25_34 
REMARK   24  A    between atoms: C28_38  and  O6_39 
REMARK   25  A    between atoms: C29_42  and  O8_43 
REMARK   26  A    between atoms: C29_42  and  C35_49 
ROOT
ATOM      1  C14 non d ame     -32.707  10.014  24.896  0.00  0.00     0.089 C 
ATOM      2  H20 non d ame     -32.535   9.224  25.627  0.00  0.00     0.087 H 
ENDROOT
BRANCH   1   3
ATOM      3  N4  non d ame     -34.035  10.557  25.141  0.00  0.00    -0.346 N 
ATOM      4  C10 non d ame     -35.081   9.725  25.839  0.00  0.00     0.241 C 
ATOM      5  O4  non d ame     -34.831   8.620  26.192  0.00  0.00    -0.271 OA
ATOM      6  H19 non d ame     -34.228  11.499  24.830  0.00  0.00     0.163 HD
BRANCH   4   7
ATOM      7  C9  non d ame     -36.449  10.305  26.089  0.00  0.00     0.092 C 
ATOM      8  H11 non d ame     -36.571  10.486  27.157  0.00  0.00     0.088 H 
BRANCH   7   9
ATOM      9  N3  non d ame     -36.561  11.601  25.414  0.00  0.00    -0.346 N 
ATOM     10  C7  non d ame     -37.028  12.755  26.143  0.00  0.00     0.240 C 
ATOM     11  O3  non d ame     -37.318  12.658  27.273  0.00  0.00    -0.271 OA
ATOM     12  H10 non d ame     -36.317  11.699  24.439  0.00  0.00     0.163 HD
BRANCH  10  13
ATOM     13  C6  non d ame     -37.149  14.131  25.418  0.00  0.00     0.086 C 
ATOM     14  H6  non d ame     -38.055  14.672  25.689  0.00  0.00     0.086 H 
BRANCH  13  15
ATOM     15  N2  non d ame     -36.029  14.971  25.810  0.00  0.00    -0.343 N 
ATOM     16  C5  non d ame     -36.218  15.984  26.851  0.00  0.00     0.273 C 
ATOM     17  O2  non d ame     -37.275  16.118  27.363  0.00  0.00    -0.266 OA
ATOM     18  H5  non d ame     -35.130  14.852  25.365  0.00  0.00     0.163 HD
BRANCH  16  19
ATOM     19  C4  non d ame     -35.043  16.878  27.277  0.00  0.00     0.154 A 
ATOM     20  C1  non d ame     -34.366  17.855  26.480  0.00  0.00    -0.017 A 
ATOM     21  C2  non d ame     -33.374  18.393  27.329  0.00  0.00     0.077 A 
ATOM     22  H1  non d ame     -34.563  18.130  25.443  0.00  0.00     0.091 H 
ATOM     23  O1  non d ame     -33.479  17.791  28.478  0.00  0.00    -0.218 OA
ATOM     24  N1  non d ame     -34.446  16.902  28.472  0.00  0.00    -0.123 NA
BRANCH  21  25
ATOM     25  C3  non d ame     -32.369  19.479  26.967  0.00  0.00    -0.029 C 
ATOM     26  H2  non d ame     -32.496  19.757  25.922  0.00  0.00     0.036 H 
ATOM     27  H3  non d ame     -32.535  20.352  27.598  0.00  0.00     0.036 H 
ATOM     28  H4  non d ame     -31.357  19.104  27.124  0.00  0.00     0.036 H 
ENDBRANCH  21  25
ENDBRANCH  16  19
ENDBRANCH  13  15
BRANCH  13  29
ATOM     29  C8  non d ame     -37.136  13.919  23.925  0.00  0.00    -0.049 C 
ATOM     30  H7  non d ame     -36.874  14.852  23.427  0.00  0.00     0.030 H 
ATOM     31  H8  non d ame     -36.402  13.154  23.673  0.00  0.00     0.030 H 
ATOM     32  H9  non d ame     -38.124  13.596  23.595  0.00  0.00     0.030 H 
ENDBRANCH  13  29
ENDBRANCH  10  13
ENDBRANCH   7   9
BRANCH   7  33
ATOM     33  C11 non d ame     -37.532   9.336  25.532  0.00  0.00    -0.033 C 
ATOM     34  H12 non d ame     -37.097   8.337  25.503  0.00  0.00     0.042 H 
BRANCH  33  35
ATOM     35  C12 non d ame     -38.779   9.278  26.469  0.00  0.00    -0.071 C 
ATOM     36  H13 non d ame     -38.616   8.530  27.244  0.00  0.00     0.028 H 
ATOM     37  H14 non d ame     -38.932  10.253  26.931  0.00  0.00     0.028 H 
ATOM     38  H15 non d ame     -39.660   9.010  25.885  0.00  0.00     0.028 H 
ENDBRANCH  33  35
BRANCH  33  39
ATOM     39  C13 non d ame     -37.937   9.729  24.074  0.00  0.00    -0.071 C 
ATOM     40  H16 non d ame     -38.920  10.200  24.085  0.00  0.00     0.028 H 
ATOM     41  H17 non d ame     -37.203  10.426  23.669  0.00  0.00     0.028 H 
ATOM     42  H18 non d ame     -37.968   8.834  23.453  0.00  0.00     0.028 H 
ENDBRANCH  33  39
ENDBRANCH   7  33
ENDBRANCH   4   7
ENDBRANCH   1   3
BRANCH   1  43
ATOM     43  C15 non d ame     -31.670  11.167  25.021  0.00  0.00     0.240 C 
ATOM     44  O5  non d ame     -30.637  10.975  25.576  0.00  0.00    -0.271 OA
ATOM     45  N6  non d ame     -31.962  12.509  24.440  0.00  0.00    -0.355 N 
ATOM     46  H46 non d ame     -32.834  12.683  23.962  0.00  0.00     0.162 HD
BRANCH  45  47
ATOM     47  C20 non d ame     -30.965  13.594  24.567  0.00  0.00     0.013 C 
ATOM     48  H30 non d ame     -30.283  13.331  25.375  0.00  0.00     0.072 H 
BRANCH  47  49
ATOM     49  C21 non d ame     -31.674  14.889  24.891  0.00  0.00    -0.038 C 
ATOM     50  H31 non d ame     -31.125  15.667  24.360  0.00  0.00     0.036 H 
ATOM     51  H32 non d ame     -32.726  14.713  24.664  0.00  0.00     0.036 H 
BRANCH  49  52
ATOM     52  C22 non d ame     -31.606  15.251  26.390  0.00  0.00     0.018 C 
ATOM     53  H33 non d ame     -30.554  15.176  26.664  0.00  0.00     0.048 H 
ATOM     54  H34 non d ame     -32.128  16.203  26.488  0.00  0.00     0.048 H 
BRANCH  52  55
ATOM     55  C23 non d ame     -32.360  14.252  27.311  0.00  0.00     0.259 C 
ATOM     56  O7  non d ame     -33.400  13.788  26.973  0.00  0.00    -0.265 OA
BRANCH  55  57
ATOM     57  O8  non d ame     -31.799  13.907  28.572  0.00  0.00    -0.317 OA
BRANCH  57  58
ATOM     58  C29 non d ame     -31.226  12.597  28.615  0.00  0.00     0.052 C 
ATOM     59  H47 non d ame     -31.153  12.272  27.577  0.00  0.00     0.082 H 
ATOM     60  H48 non d ame     -30.326  12.688  29.221  0.00  0.00     0.082 H 
BRANCH  58  61
ATOM     61  C35 non d ame     -32.222  11.663  29.352  0.00  0.00    -0.034 A 
ATOM     62  C30 non d ame     -32.708  10.523  28.719  0.00  0.00    -0.075 A 
ATOM     63  C31 non d ame     -33.603   9.684  29.382  0.00  0.00    -0.082 A 
ATOM     64  H49 non d ame     -32.388  10.288  27.704  0.00  0.00     0.084 H 
ATOM     65  C32 non d ame     -34.014   9.990  30.682  0.00  0.00    -0.083 A 
ATOM     66  H50 non d ame     -33.981   8.791  28.883  0.00  0.00     0.083 H 
ATOM     67  C33 non d ame     -33.529  11.130  31.308  0.00  0.00    -0.082 A 
ATOM     68  H51 non d ame     -34.713   9.339  31.207  0.00  0.00     0.083 H 
ATOM     69  C34 non d ame     -32.633  11.970  30.651  0.00  0.00    -0.075 A 
ATOM     70  H52 non d ame     -33.854  11.367  32.322  0.00  0.00     0.083 H 
ATOM     71  H53 non d ame     -32.256  12.863  31.150  0.00  0.00     0.084 H 
ENDBRANCH  58  61
ENDBRANCH  57  58
ENDBRANCH  55  57
ENDBRANCH  52  55
ENDBRANCH  49  52
ENDBRANCH  47  49
BRANCH  47  72
ATOM     72  C24 non d ame     -30.199  13.747  23.254  0.00  0.00    -0.039 C 
ATOM     73  H35 non d ame     -29.170  13.468  23.485  0.00  0.00     0.036 H 
ATOM     74  H36 non d ame     -30.766  13.176  22.519  0.00  0.00     0.036 H 
BRANCH  72  75
ATOM     75  C25 non d ame     -30.175  15.269  22.755  0.00  0.00    -0.001 C 
ATOM     76  C26 non d ame     -31.218  15.462  21.499  0.00  0.00    -0.035 C 
ATOM     77  C27 non d ame     -30.564  16.067  20.478  0.00  0.00     0.085 C 
ATOM     78  H38 non d ame     -31.491  14.491  21.087  0.00  0.00     0.036 H 
ATOM     79  H39 non d ame     -31.995  16.180  21.765  0.00  0.00     0.036 H 
ATOM     80  N5  non d ame     -29.091  16.008  20.801  0.00  0.00    -0.049 N 
ATOM     81  H40 non d ame     -30.761  15.452  19.601  0.00  0.00     0.075 H 
ATOM     82  H41 non d ame     -30.890  17.107  20.499  0.00  0.00     0.075 H 
ATOM     83  C28 non d ame     -28.994  15.614  22.364  0.00  0.00     0.193 C 
ATOM     84  H42 non d ame     -28.708  15.250  20.254  0.00  0.00     0.280 HD
ATOM     85  H43 non d ame     -28.735  16.946  20.683  0.00  0.00     0.280 HD
ATOM     86  H44 non d ame     -28.750  16.369  23.111  0.00  0.00     0.129 H 
ATOM     87  H37 non d ame     -30.257  15.975  23.582  0.00  0.00     0.046 H 
BRANCH  83  88
ATOM     88  O6  non d ame     -28.037  14.569  22.551  0.00  0.00    -0.369 OA
ATOM     89  H45 non d ame     -28.052  13.982  21.791  0.00  0.00     0.212 HD
ENDBRANCH  83  88
ENDBRANCH  72  75
ENDBRANCH  47  72
ENDBRANCH  45  47
ENDBRANCH   1  43
BRANCH   1  90
ATOM     90  C16 non d ame     -32.660   9.434  23.491  0.00  0.00    -0.035 C 
ATOM     91  H21 non d ame     -33.616   8.931  23.354  0.00  0.00     0.037 H 
ATOM     92  H22 non d ame     -32.385  10.267  22.844  0.00  0.00     0.037 H 
BRANCH  90  93
ATOM     93  C17 non d ame     -31.557   8.344  23.300  0.00  0.00    -0.059 C 
ATOM     94  H23 non d ame     -30.622   8.749  23.686  0.00  0.00     0.038 H 
BRANCH  93  95
ATOM     95  C18 non d ame     -31.876   7.038  24.097  0.00  0.00    -0.073 C 
ATOM     96  H24 non d ame     -32.743   6.546  23.657  0.00  0.00     0.028 H 
ATOM     97  H25 non d ame     -31.018   6.368  24.053  0.00  0.00     0.028 H 
ATOM     98  H26 non d ame     -32.088   7.289  25.136  0.00  0.00     0.028 H 
ENDBRANCH  93  95
BRANCH  93  99
ATOM     99  C19 non d ame     -31.342   8.038  21.816  0.00  0.00    -0.073 C 
ATOM    100  H27 non d ame     -31.295   6.959  21.670  0.00  0.00     0.028 H 
ATOM    101  H28 non d ame     -32.170   8.447  21.236  0.00  0.00     0.028 H 
ATOM    102  H29 non d ame     -30.409   8.492  21.483  0.00  0.00     0.028 H 
ENDBRANCH  93  99
ENDBRANCH  90  93
ENDBRANCH   1  90
TORSDOF 26
ENDMDL
MODEL 7
REMARK VINA RESULT:      -6.8      3.366      8.251
REMARK  26 active torsions:
REMARK  status: ('A' for Active; 'I' for Inactive)
REMARK    1  A    between atoms: C2_2  and  C3_3 
REMARK    2  A    between atoms: C4_6  and  C5_7 
REMARK       I    between atoms: C5_7  and  N2_9 
REMARK    3  A    between atoms: N2_9  and  C6_10 
REMARK    4  A    between atoms: C6_10  and  C7_11 
REMARK    5  A    between atoms: C6_10  and  C8_13 
REMARK       I    between atoms: C7_11  and  N3_14 
REMARK    6  A    between atoms: N3_14  and  C9_15 
REMARK    7  A    between atoms: C9_15  and  C10_16 
REMARK    8  A    between atoms: C9_15  and  C11_18 
REMARK       I    between atoms: C10_16  and  N4_21 
REMARK    9  A    between atoms: C11_18  and  C12_19 
REMARK   10  A    between atoms: C11_18  and  C13_20 
REMARK   11  A    between atoms: N4_21  and  C14_22 
REMARK   12  A    between atoms: C14_22  and  C15_23 
REMARK   13  A    between atoms: C14_22  and  C16_25 
REMARK       I    between atoms: C15_23  and  N6_40 
REMARK   14  A    between atoms: C16_25  and  C17_26 
REMARK   15  A    between atoms: C17_26  and  C18_27 
REMARK   16  A    between atoms: C17_26  and  C19_28 
REMARK   17  A    between atoms: C20_29  and  C21_30 
REMARK   18  A    between atoms: C20_29  and  C24_33 
REMARK   19  A    between atoms: C20_29  and  N6_40 
REMARK   20  A    between atoms: C21_30  and  C22_31 
REMARK   21  A    between atoms: C22_31  and  C23_32 
REMARK   22  A    between atoms: C23_32  and  O8_43 
REMARK   23  A    between atoms: C24_33  and  C25_34 
REMARK   24  A    between atoms: C28_38  and  O6_39 
REMARK   25  A    between atoms: C29_42  and  O8_43 
REMARK   26  A    between atoms: C29_42  and  C35_49 
ROOT
ATOM      1  C14 non d ame     -32.896  10.231  25.820  0.00  0.00     0.089 C 
ATOM      2  H20 non d ame     -32.462   9.240  25.960  0.00  0.00     0.087 H 
ENDROOT
BRANCH   1   3
ATOM      3  N4  non d ame     -33.724  10.514  26.983  0.00  0.00    -0.346 N 
ATOM      4  C10 non d ame     -33.541   9.730  28.258  0.00  0.00     0.241 C 
ATOM      5  O4  non d ame     -32.723   8.873  28.323  0.00  0.00    -0.271 OA
ATOM      6  H19 non d ame     -34.417  11.246  26.906  0.00  0.00     0.163 HD
BRANCH   4   7
ATOM      7  C9  non d ame     -34.404  10.041  29.453  0.00  0.00     0.092 C 
ATOM      8  H11 non d ame     -35.216  10.700  29.148  0.00  0.00     0.088 H 
BRANCH   7   9
ATOM      9  N3  non d ame     -35.014   8.804  29.950  0.00  0.00    -0.346 N 
ATOM     10  C7  non d ame     -36.368   8.469  29.581  0.00  0.00     0.240 C 
ATOM     11  O3  non d ame     -36.981   9.185  28.887  0.00  0.00    -0.271 OA
ATOM     12  H10 non d ame     -34.498   8.178  30.552  0.00  0.00     0.163 HD
BRANCH  10  13
ATOM     13  C6  non d ame     -37.013   7.153  30.116  0.00  0.00     0.086 C 
ATOM     14  H6  non d ame     -37.521   6.586  29.337  0.00  0.00     0.086 H 
BRANCH  13  15
ATOM     15  N2  non d ame     -35.965   6.293  30.640  0.00  0.00    -0.343 N 
ATOM     16  C5  non d ame     -35.035   5.643  29.713  0.00  0.00     0.273 C 
ATOM     17  O2  non d ame     -35.141   5.816  28.548  0.00  0.00    -0.266 OA
ATOM     18  H5  non d ame     -35.883   6.149  31.636  0.00  0.00     0.163 HD
BRANCH  16  19
ATOM     19  C4  non d ame     -33.921   4.732  30.253  0.00  0.00     0.154 A 
ATOM     20  C1  non d ame     -33.692   4.361  31.615  0.00  0.00    -0.017 A 
ATOM     21  C2  non d ame     -32.558   3.520  31.577  0.00  0.00     0.077 A 
ATOM     22  H1  non d ame     -34.262   4.656  32.497  0.00  0.00     0.091 H 
ATOM     23  O1  non d ame     -32.188   3.425  30.334  0.00  0.00    -0.218 OA
ATOM     24  N1  non d ame     -32.968   4.124  29.542  0.00  0.00    -0.123 NA
BRANCH  21  25
ATOM     25  C3  non d ame     -31.893   2.848  32.771  0.00  0.00    -0.029 C 
ATOM     26  H2  non d ame     -32.250   1.821  32.856  0.00  0.00     0.036 H 
ATOM     27  H3  non d ame     -30.812   2.846  32.631  0.00  0.00     0.036 H 
ATOM     28  H4  non d ame     -32.141   3.395  33.681  0.00  0.00     0.036 H 
ENDBRANCH  21  25
ENDBRANCH  16  19
ENDBRANCH  13  15
BRANCH  13  29
ATOM     29  C8  non d ame     -38.003   7.482  31.204  0.00  0.00    -0.049 C 
ATOM     30  H7  non d ame     -38.183   8.557  31.219  0.00  0.00     0.030 H 
ATOM     31  H8  non d ame     -38.940   6.959  31.013  0.00  0.00     0.030 H 
ATOM     32  H9  non d ame     -37.602   7.167  32.168  0.00  0.00     0.030 H 
ENDBRANCH  13  29
ENDBRANCH  10  13
ENDBRANCH   7   9
BRANCH   7  33
ATOM     33  C11 non d ame     -33.528  10.671  30.575  0.00  0.00    -0.033 C 
ATOM     34  H12 non d ame     -32.767   9.940  30.848  0.00  0.00     0.042 H 
BRANCH  33  35
ATOM     35  C12 non d ame     -32.789  11.949  30.069  0.00  0.00    -0.071 C 
ATOM     36  H13 non d ame     -33.454  12.809  30.152  0.00  0.00     0.028 H 
ATOM     37  H14 non d ame     -31.899  12.118  30.674  0.00  0.00     0.028 H 
ATOM     38  H15 non d ame     -32.501  11.813  29.027  0.00  0.00     0.028 H 
ENDBRANCH  33  35
BRANCH  33  39
ATOM     39  C13 non d ame     -34.382  10.976  31.847  0.00  0.00    -0.071 C 
ATOM     40  H16 non d ame     -34.898  10.070  32.164  0.00  0.00     0.028 H 
ATOM     41  H17 non d ame     -33.730  11.324  32.649  0.00  0.00     0.028 H 
ATOM     42  H18 non d ame     -35.115  11.750  31.615  0.00  0.00     0.028 H 
ENDBRANCH  33  39
ENDBRANCH   7  33
ENDBRANCH   4   7
ENDBRANCH   1   3
BRANCH   1  43
ATOM     43  C15 non d ame     -31.808  11.337  25.706  0.00  0.00     0.240 C 
ATOM     44  O5  non d ame     -30.839  11.287  26.392  0.00  0.00    -0.271 OA
ATOM     45  N6  non d ame     -31.971  12.456  24.734  0.00  0.00    -0.355 N 
ATOM     46  H46 non d ame     -32.787  12.507  24.142  0.00  0.00     0.162 HD
BRANCH  45  47
ATOM     47  C20 non d ame     -30.927  13.499  24.636  0.00  0.00     0.013 C 
ATOM     48  H30 non d ame     -30.070  13.173  25.226  0.00  0.00     0.072 H 
BRANCH  47  49
ATOM     49  C21 non d ame     -31.467  14.800  25.186  0.00  0.00    -0.038 C 
ATOM     50  H31 non d ame     -30.771  15.571  24.856  0.00  0.00     0.036 H 
ATOM     51  H32 non d ame     -32.511  14.839  24.875  0.00  0.00     0.036 H 
BRANCH  49  52
ATOM     52  C22 non d ame     -31.469  14.843  26.729  0.00  0.00     0.018 C 
ATOM     53  H33 non d ame     -30.864  13.995  27.049  0.00  0.00     0.048 H 
ATOM     54  H34 non d ame     -31.170  15.857  26.996  0.00  0.00     0.048 H 
BRANCH  52  55
ATOM     55  C23 non d ame     -32.873  14.631  27.360  0.00  0.00     0.259 C 
ATOM     56  O7  non d ame     -33.586  13.765  26.968  0.00  0.00    -0.265 OA
BRANCH  55  57
ATOM     57  O8  non d ame     -33.304  15.492  28.407  0.00  0.00    -0.317 OA
BRANCH  57  58
ATOM     58  C29 non d ame     -34.424  16.312  28.063  0.00  0.00     0.052 C 
ATOM     59  H47 non d ame     -34.986  15.746  27.320  0.00  0.00     0.082 H 
ATOM     60  H48 non d ame     -34.892  16.584  29.008  0.00  0.00     0.082 H 
BRANCH  58  61
ATOM     61  C35 non d ame     -33.885  17.603  27.393  0.00  0.00    -0.034 A 
ATOM     62  C30 non d ame     -32.890  18.349  28.017  0.00  0.00    -0.075 A 
ATOM     63  C31 non d ame     -32.406  19.510  27.415  0.00  0.00    -0.082 A 
ATOM     64  H49 non d ame     -32.491  18.026  28.979  0.00  0.00     0.084 H 
ATOM     65  C32 non d ame     -32.921  19.925  26.185  0.00  0.00    -0.083 A 
ATOM     66  H50 non d ame     -31.626  20.092  27.907  0.00  0.00     0.083 H 
ATOM     67  C33 non d ame     -33.916  19.179  25.566  0.00  0.00    -0.082 A 
ATOM     68  H51 non d ame     -32.548  20.830  25.707  0.00  0.00     0.083 H 
ATOM     69  C34 non d ame     -34.401  18.017  26.163  0.00  0.00    -0.075 A 
ATOM     70  H52 non d ame     -34.317  19.507  24.607  0.00  0.00     0.083 H 
ATOM     71  H53 non d ame     -35.182  17.436  25.671  0.00  0.00     0.084 H 
ENDBRANCH  58  61
ENDBRANCH  57  58
ENDBRANCH  55  57
ENDBRANCH  52  55
ENDBRANCH  49  52
ENDBRANCH  47  49
BRANCH  47  72
ATOM     72  C24 non d ame     -30.523  13.691  23.175  0.00  0.00    -0.039 C 
ATOM     73  H35 non d ame     -29.594  13.133  23.055  0.00  0.00     0.036 H 
ATOM     74  H36 non d ame     -31.403  13.416  22.593  0.00  0.00     0.036 H 
BRANCH  72  75
ATOM     75  C25 non d ame     -30.200  15.225  22.847  0.00  0.00    -0.001 C 
ATOM     76  C26 non d ame     -31.300  15.812  21.775  0.00  0.00    -0.035 C 
ATOM     77  C27 non d ame     -30.638  16.394  20.746  0.00  0.00     0.085 C 
ATOM     78  H38 non d ame     -31.835  14.990  21.301  0.00  0.00     0.036 H 
ATOM     79  H39 non d ame     -31.853  16.638  22.221  0.00  0.00     0.036 H 
ATOM     80  N5  non d ame     -29.193  15.971  20.854  0.00  0.00    -0.049 N 
ATOM     81  H40 non d ame     -31.069  15.963  19.842  0.00  0.00     0.075 H 
ATOM     82  H41 non d ame     -30.709  17.467  20.924  0.00  0.00     0.075 H 
ATOM     83  C28 non d ame     -29.021  15.355  22.336  0.00  0.00     0.193 C 
ATOM     84  H42 non d ame     -29.061  15.231  20.180  0.00  0.00     0.280 HD
ATOM     85  H43 non d ame     -28.643  16.816  20.791  0.00  0.00     0.280 HD
ATOM     86  H44 non d ame     -28.527  15.929  23.120  0.00  0.00     0.129 H 
ATOM     87  H37 non d ame     -30.023  15.812  23.748  0.00  0.00     0.046 H 
BRANCH  83  88
ATOM     88  O6  non d ame     -28.320  14.111  22.274  0.00  0.00    -0.369 OA
ATOM     89  H45 non d ame     -28.196  13.859  21.356  0.00  0.00     0.212 HD
ENDBRANCH  83  88
ENDBRANCH  72  75
ENDBRANCH  47  72
ENDBRANCH  45  47
ENDBRANCH   1  43
BRANCH   1  90
ATOM     90  C16 non d ame     -33.768  10.241  24.575  0.00  0.00    -0.035 C 
ATOM     91  H21 non d ame     -34.774  10.011  24.926  0.00  0.00     0.037 H 
ATOM     92  H22 non d ame     -33.566  11.196  24.089  0.00  0.00     0.037 H 
BRANCH  90  93
ATOM     93  C17 non d ame     -33.397   9.131  23.541  0.00  0.00    -0.059 C 
ATOM     94  H23 non d ame     -32.748   9.582  22.791  0.00  0.00     0.038 H 
BRANCH  93  95
ATOM     95  C18 non d ame     -32.614   7.950  24.200  0.00  0.00    -0.073 C 
ATOM     96  H24 non d ame     -31.544   8.137  24.126  0.00  0.00     0.028 H 
ATOM     97  H25 non d ame     -32.896   7.867  25.249  0.00  0.00     0.028 H 
ATOM     98  H26 non d ame     -32.857   7.021  23.684  0.00  0.00     0.028 H 
ENDBRANCH  93  95
BRANCH  93  99
ATOM     99  C19 non d ame     -34.644   8.620  22.816  0.00  0.00    -0.073 C 
ATOM    100  H27 non d ame     -35.449   9.348  22.920  0.00  0.00     0.028 H 
ATOM    101  H28 non d ame     -34.418   8.479  21.759  0.00  0.00     0.028 H 
ATOM    102  H29 non d ame     -34.954   7.670  23.251  0.00  0.00     0.028 H 
ENDBRANCH  93  99
ENDBRANCH  90  93
ENDBRANCH   1  90
TORSDOF 26
ENDMDL
MODEL 8
REMARK VINA RESULT:      -6.7      3.412      7.972
REMARK  26 active torsions:
REMARK  status: ('A' for Active; 'I' for Inactive)
REMARK    1  A    between atoms: C2_2  and  C3_3 
REMARK    2  A    between atoms: C4_6  and  C5_7 
REMARK       I    between atoms: C5_7  and  N2_9 
REMARK    3  A    between atoms: N2_9  and  C6_10 
REMARK    4  A    between atoms: C6_10  and  C7_11 
REMARK    5  A    between atoms: C6_10  and  C8_13 
REMARK       I    between atoms: C7_11  and  N3_14 
REMARK    6  A    between atoms: N3_14  and  C9_15 
REMARK    7  A    between atoms: C9_15  and  C10_16 
REMARK    8  A    between atoms: C9_15  and  C11_18 
REMARK       I    between atoms: C10_16  and  N4_21 
REMARK    9  A    between atoms: C11_18  and  C12_19 
REMARK   10  A    between atoms: C11_18  and  C13_20 
REMARK   11  A    between atoms: N4_21  and  C14_22 
REMARK   12  A    between atoms: C14_22  and  C15_23 
REMARK   13  A    between atoms: C14_22  and  C16_25 
REMARK       I    between atoms: C15_23  and  N6_40 
REMARK   14  A    between atoms: C16_25  and  C17_26 
REMARK   15  A    between atoms: C17_26  and  C18_27 
REMARK   16  A    between atoms: C17_26  and  C19_28 
REMARK   17  A    between atoms: C20_29  and  C21_30 
REMARK   18  A    between atoms: C20_29  and  C24_33 
REMARK   19  A    between atoms: C20_29  and  N6_40 
REMARK   20  A    between atoms: C21_30  and  C22_31 
REMARK   21  A    between atoms: C22_31  and  C23_32 
REMARK   22  A    between atoms: C23_32  and  O8_43 
REMARK   23  A    between atoms: C24_33  and  C25_34 
REMARK   24  A    between atoms: C28_38  and  O6_39 
REMARK   25  A    between atoms: C29_42  and  O8_43 
REMARK   26  A    between atoms: C29_42  and  C35_49 
ROOT
ATOM      1  C14 non d ame     -32.778  13.195  28.054  0.00  0.00     0.089 C 
ATOM      2  H20 non d ame     -33.862  13.316  28.034  0.00  0.00     0.087 H 
ENDROOT
BRANCH   1   3
ATOM      3  N4  non d ame     -32.476  11.866  27.545  0.00  0.00    -0.346 N 
ATOM      4  C10 non d ame     -33.099  11.383  26.259  0.00  0.00     0.241 C 
ATOM      5  O4  non d ame     -33.843  12.081  25.653  0.00  0.00    -0.271 OA
ATOM      6  H19 non d ame     -31.842  11.287  28.076  0.00  0.00     0.163 HD
BRANCH   4   7
ATOM      7  C9  non d ame     -32.770  10.006  25.744  0.00  0.00     0.092 C 
ATOM      8  H11 non d ame     -31.810   9.690  26.153  0.00  0.00     0.088 H 
BRANCH   7   9
ATOM      9  N3  non d ame     -33.778   9.053  26.217  0.00  0.00    -0.346 N 
ATOM     10  C7  non d ame     -33.686   8.509  27.550  0.00  0.00     0.240 C 
ATOM     11  O3  non d ame     -32.806   8.826  28.254  0.00  0.00    -0.271 OA
ATOM     12  H10 non d ame     -34.542   8.769  25.620  0.00  0.00     0.163 HD
BRANCH  10  13
ATOM     13  C6  non d ame     -34.760   7.492  28.046  0.00  0.00     0.086 C 
ATOM     14  H6  non d ame     -34.988   6.725  27.307  0.00  0.00     0.086 H 
BRANCH  13  15
ATOM     15  N2  non d ame     -34.250   6.802  29.219  0.00  0.00    -0.343 N 
ATOM     16  C5  non d ame     -34.219   5.338  29.238  0.00  0.00     0.273 C 
ATOM     17  O2  non d ame     -34.609   4.725  28.306  0.00  0.00    -0.266 OA
ATOM     18  H5  non d ame     -33.920   7.334  30.012  0.00  0.00     0.163 HD
BRANCH  16  19
ATOM     19  C4  non d ame     -33.680   4.595  30.471  0.00  0.00     0.154 A 
ATOM     20  C1  non d ame     -32.600   3.658  30.511  0.00  0.00    -0.017 A 
ATOM     21  C2  non d ame     -32.506   3.270  31.867  0.00  0.00     0.077 A 
ATOM     22  H1  non d ame     -31.979   3.312  29.684  0.00  0.00     0.091 H 
ATOM     23  O1  non d ame     -33.427   3.916  32.519  0.00  0.00    -0.218 OA
ATOM     24  N1  non d ame     -34.126   4.695  31.726  0.00  0.00    -0.123 NA
BRANCH  21  25
ATOM     25  C3  non d ame     -31.509   2.280  32.454  0.00  0.00    -0.029 C 
ATOM     26  H2  non d ame     -30.495   2.641  32.285  0.00  0.00     0.036 H 
ATOM     27  H3  non d ame     -31.685   2.180  33.525  0.00  0.00     0.036 H 
ATOM     28  H4  non d ame     -31.634   1.310  31.974  0.00  0.00     0.036 H 
ENDBRANCH  21  25
ENDBRANCH  16  19
ENDBRANCH  13  15
BRANCH  13  29
ATOM     29  C8  non d ame     -36.030   8.228  28.392  0.00  0.00    -0.049 C 
ATOM     30  H7  non d ame     -36.863   7.795  27.838  0.00  0.00     0.030 H 
ATOM     31  H8  non d ame     -36.221   8.140  29.461  0.00  0.00     0.030 H 
ATOM     32  H9  non d ame     -35.925   9.280  28.126  0.00  0.00     0.030 H 
ENDBRANCH  13  29
ENDBRANCH  10  13
ENDBRANCH   7   9
BRANCH   7  33
ATOM     33  C11 non d ame     -32.766  10.023  24.187  0.00  0.00    -0.033 C 
ATOM     34  H12 non d ame     -33.115  11.005  23.868  0.00  0.00     0.042 H 
BRANCH  33  35
ATOM     35  C12 non d ame     -31.324   9.831  23.621  0.00  0.00    -0.071 C 
ATOM     36  H13 non d ame     -31.046  10.705  23.032  0.00  0.00     0.028 H 
ATOM     37  H14 non d ame     -30.623   9.711  24.445  0.00  0.00     0.028 H 
ATOM     38  H15 non d ame     -31.298   8.944  22.988  0.00  0.00     0.028 H 
ENDBRANCH  33  35
BRANCH  33  39
ATOM     39  C13 non d ame     -33.747   8.950  23.614  0.00  0.00    -0.071 C 
ATOM     40  H16 non d ame     -33.220   8.325  22.893  0.00  0.00     0.028 H 
ATOM     41  H17 non d ame     -34.123   8.330  24.428  0.00  0.00     0.028 H 
ATOM     42  H18 non d ame     -34.582   9.448  23.122  0.00  0.00     0.028 H 
ENDBRANCH  33  39
ENDBRANCH   7  33
ENDBRANCH   4   7
ENDBRANCH   1   3
BRANCH   1  43
ATOM     43  C15 non d ame     -32.054  14.244  27.163  0.00  0.00     0.240 C 
ATOM     44  O5  non d ame     -30.867  14.297  27.158  0.00  0.00    -0.271 OA
ATOM     45  N6  non d ame     -32.841  15.178  26.307  0.00  0.00    -0.355 N 
ATOM     46  H46 non d ame     -33.850  15.139  26.299  0.00  0.00     0.162 HD
BRANCH  45  47
ATOM     47  C20 non d ame     -32.137  16.168  25.464  0.00  0.00     0.013 C 
ATOM     48  H30 non d ame     -31.133  16.299  25.867  0.00  0.00     0.072 H 
BRANCH  47  49
ATOM     49  C21 non d ame     -32.885  17.481  25.506  0.00  0.00    -0.038 C 
ATOM     50  H31 non d ame     -32.593  18.016  24.602  0.00  0.00     0.036 H 
ATOM     51  H32 non d ame     -33.930  17.219  25.670  0.00  0.00     0.036 H 
BRANCH  49  52
ATOM     52  C22 non d ame     -32.466  18.372  26.695  0.00  0.00     0.018 C 
ATOM     53  H33 non d ame     -31.411  18.160  26.867  0.00  0.00     0.048 H 
ATOM     54  H34 non d ame     -32.783  19.382  26.434  0.00  0.00     0.048 H 
BRANCH  52  55
ATOM     55  C23 non d ame     -33.194  18.026  28.024  0.00  0.00     0.259 C 
ATOM     56  O7  non d ame     -32.702  17.275  28.803  0.00  0.00    -0.265 OA
BRANCH  55  57
ATOM     57  O8  non d ame     -34.463  18.607  28.295  0.00  0.00    -0.317 OA
BRANCH  57  58
ATOM     58  C29 non d ame     -35.569  17.735  28.042  0.00  0.00     0.052 C 
ATOM     59  H47 non d ame     -35.131  16.765  27.808  0.00  0.00     0.082 H 
ATOM     60  H48 non d ame     -36.231  17.841  28.901  0.00  0.00     0.082 H 
BRANCH  58  61
ATOM     61  C35 non d ame     -36.311  18.256  26.783  0.00  0.00    -0.034 A 
ATOM     62  C30 non d ame     -37.284  17.471  26.173  0.00  0.00    -0.075 A 
ATOM     63  C31 non d ame     -37.951  17.939  25.041  0.00  0.00    -0.082 A 
ATOM     64  H49 non d ame     -37.523  16.488  26.580  0.00  0.00     0.084 H 
ATOM     65  C32 non d ame     -37.640  19.197  24.519  0.00  0.00    -0.083 A 
ATOM     66  H50 non d ame     -38.713  17.321  24.566  0.00  0.00     0.083 H 
ATOM     67  C33 non d ame     -36.667  19.976  25.130  0.00  0.00    -0.082 A 
ATOM     68  H51 non d ame     -38.157  19.571  23.635  0.00  0.00     0.083 H 
ATOM     69  C34 non d ame     -35.999  19.514  26.262  0.00  0.00    -0.075 A 
ATOM     70  H52 non d ame     -36.426  20.957  24.718  0.00  0.00     0.083 H 
ATOM     71  H53 non d ame     -35.237  20.132  26.736  0.00  0.00     0.084 H 
ENDBRANCH  58  61
ENDBRANCH  57  58
ENDBRANCH  55  57
ENDBRANCH  52  55
ENDBRANCH  49  52
ENDBRANCH  47  49
BRANCH  47  72
ATOM     72  C24 non d ame     -32.069  15.665  24.024  0.00  0.00    -0.039 C 
ATOM     73  H35 non d ame     -32.606  14.717  24.022  0.00  0.00     0.036 H 
ATOM     74  H36 non d ame     -32.425  16.493  23.410  0.00  0.00     0.036 H 
BRANCH  72  75
ATOM     75  C25 non d ame     -30.563  15.357  23.574  0.00  0.00    -0.001 C 
ATOM     76  C26 non d ame     -30.310  15.911  22.046  0.00  0.00    -0.035 C 
ATOM     77  C27 non d ame     -29.777  14.912  21.302  0.00  0.00     0.085 C 
ATOM     78  H38 non d ame     -31.264  16.111  21.558  0.00  0.00     0.036 H 
ATOM     79  H39 non d ame     -29.529  16.671  22.048  0.00  0.00     0.036 H 
ATOM     80  N5  non d ame     -29.947  13.635  22.091  0.00  0.00    -0.049 N 
ATOM     81  H40 non d ame     -30.392  14.859  20.403  0.00  0.00     0.075 H 
ATOM     82  H41 non d ame     -28.715  15.142  21.224  0.00  0.00     0.075 H 
ATOM     83  C28 non d ame     -30.319  14.089  23.595  0.00  0.00     0.193 C 
ATOM     84  H42 non d ame     -30.743  13.157  21.693  0.00  0.00     0.280 HD
ATOM     85  H43 non d ame     -29.043  13.186  22.104  0.00  0.00     0.280 HD
ATOM     86  H44 non d ame     -29.572  14.044  24.387  0.00  0.00     0.129 H 
ATOM     87  H37 non d ame     -29.837  15.648  24.333  0.00  0.00     0.046 H 
BRANCH  83  88
ATOM     88  O6  non d ame     -31.433  13.334  24.076  0.00  0.00    -0.369 OA
ATOM     89  H45 non d ame     -31.125  12.490  24.414  0.00  0.00     0.212 HD
ENDBRANCH  83  88
ENDBRANCH  72  75
ENDBRANCH  47  72
ENDBRANCH  45  47
ENDBRANCH   1  43
BRANCH   1  90
ATOM     90  C16 non d ame     -32.275  13.305  29.484  0.00  0.00    -0.035 C 
ATOM     91  H21 non d ame     -31.317  13.820  29.415  0.00  0.00     0.037 H 
ATOM     92  H22 non d ame     -33.095  13.753  30.046  0.00  0.00     0.037 H 
BRANCH  90  93
ATOM     93  C17 non d ame     -31.984  11.924  30.154  0.00  0.00    -0.059 C 
ATOM     94  H23 non d ame     -31.932  11.177  29.362  0.00  0.00     0.038 H 
BRANCH  93  95
ATOM     95  C18 non d ame     -30.617  11.912  30.911  0.00  0.00    -0.073 C 
ATOM     96  H24 non d ame     -29.828  11.595  30.230  0.00  0.00     0.028 H 
ATOM     97  H25 non d ame     -30.397  12.914  31.280  0.00  0.00     0.028 H 
ATOM     98  H26 non d ame     -30.673  11.220  31.751  0.00  0.00     0.028 H 
ENDBRANCH  93  95
BRANCH  93  99
ATOM     99  C19 non d ame     -33.127  11.518  31.088  0.00  0.00    -0.073 C 
ATOM    100  H27 non d ame     -34.012  12.114  30.861  0.00  0.00     0.028 H 
ATOM    101  H28 non d ame     -33.355  10.461  30.946  0.00  0.00     0.028 H 
ATOM    102  H29 non d ame     -32.830  11.689  32.122  0.00  0.00     0.028 H 
ENDBRANCH  93  99
ENDBRANCH  90  93
ENDBRANCH   1  90
TORSDOF 26
ENDMDL
MODEL 9
REMARK VINA RESULT:      -6.6      2.422      8.669
REMARK  26 active torsions:
REMARK  status: ('A' for Active; 'I' for Inactive)
REMARK    1  A    between atoms: C2_2  and  C3_3 
REMARK    2  A    between atoms: C4_6  and  C5_7 
REMARK       I    between atoms: C5_7  and  N2_9 
REMARK    3  A    between atoms: N2_9  and  C6_10 
REMARK    4  A    between atoms: C6_10  and  C7_11 
REMARK    5  A    between atoms: C6_10  and  C8_13 
REMARK       I    between atoms: C7_11  and  N3_14 
REMARK    6  A    between atoms: N3_14  and  C9_15 
REMARK    7  A    between atoms: C9_15  and  C10_16 
REMARK    8  A    between atoms: C9_15  and  C11_18 
REMARK       I    between atoms: C10_16  and  N4_21 
REMARK    9  A    between atoms: C11_18  and  C12_19 
REMARK   10  A    between atoms: C11_18  and  C13_20 
REMARK   11  A    between atoms: N4_21  and  C14_22 
REMARK   12  A    between atoms: C14_22  and  C15_23 
REMARK   13  A    between atoms: C14_22  and  C16_25 
REMARK       I    between atoms: C15_23  and  N6_40 
REMARK   14  A    between atoms: C16_25  and  C17_26 
REMARK   15  A    between atoms: C17_26  and  C18_27 
REMARK   16  A    between atoms: C17_26  and  C19_28 
REMARK   17  A    between atoms: C20_29  and  C21_30 
REMARK   18  A    between atoms: C20_29  and  C24_33 
REMARK   19  A    between atoms: C20_29  and  N6_40 
REMARK   20  A    between atoms: C21_30  and  C22_31 
REMARK   21  A    between atoms: C22_31  and  C23_32 
REMARK   22  A    between atoms: C23_32  and  O8_43 
REMARK   23  A    between atoms: C24_33  and  C25_34 
REMARK   24  A    between atoms: C28_38  and  O6_39 
REMARK   25  A    between atoms: C29_42  and  O8_43 
REMARK   26  A    between atoms: C29_42  and  C35_49 
ROOT
ATOM      1  C14 non d ame     -37.545  13.894  25.074  0.00  0.00     0.089 C 
ATOM      2  H20 non d ame     -38.578  13.959  25.418  0.00  0.00     0.087 H 
ENDROOT
BRANCH   1   3
ATOM      3  N4  non d ame     -36.974  15.231  25.146  0.00  0.00    -0.346 N 
ATOM      4  C10 non d ame     -37.440  16.202  26.201  0.00  0.00     0.241 C 
ATOM      5  O4  non d ame     -38.277  15.886  26.981  0.00  0.00    -0.271 OA
ATOM      6  H19 non d ame     -36.265  15.481  24.472  0.00  0.00     0.163 HD
BRANCH   4   7
ATOM      7  C9  non d ame     -36.834  17.580  26.264  0.00  0.00     0.092 C 
ATOM      8  H11 non d ame     -37.226  18.104  27.136  0.00  0.00     0.088 H 
BRANCH   7   9
ATOM      9  N3  non d ame     -35.383  17.468  26.441  0.00  0.00    -0.346 N 
ATOM     10  C7  non d ame     -34.769  17.929  27.662  0.00  0.00     0.240 C 
ATOM     11  O3  non d ame     -35.426  18.393  28.512  0.00  0.00    -0.271 OA
ATOM     12  H10 non d ame     -34.802  17.072  25.716  0.00  0.00     0.163 HD
BRANCH  10  13
ATOM     13  C6  non d ame     -33.223  17.811  27.843  0.00  0.00     0.086 C 
ATOM     14  H6  non d ame     -32.861  18.338  28.725  0.00  0.00     0.086 H 
BRANCH  13  15
ATOM     15  N2  non d ame     -32.875  16.411  28.023  0.00  0.00    -0.343 N 
ATOM     16  C5  non d ame     -32.092  16.007  29.193  0.00  0.00     0.273 C 
ATOM     17  O2  non d ame     -31.744  16.816  29.981  0.00  0.00    -0.266 OA
ATOM     18  H5  non d ame     -33.175  15.727  27.343  0.00  0.00     0.163 HD
BRANCH  16  19
ATOM     19  C4  non d ame     -31.719  14.531  29.397  0.00  0.00     0.154 A 
ATOM     20  C1  non d ame     -32.566  13.483  29.878  0.00  0.00    -0.017 A 
ATOM     21  C2  non d ame     -31.752  12.328  29.879  0.00  0.00     0.077 A 
ATOM     22  H1  non d ame     -33.612  13.550  30.181  0.00  0.00     0.091 H 
ATOM     23  O1  non d ame     -30.578  12.682  29.446  0.00  0.00    -0.218 OA
ATOM     24  N1  non d ame     -30.533  13.963  29.159  0.00  0.00    -0.123 NA
BRANCH  21  25
ATOM     25  C3  non d ame     -32.173  10.929  30.307  0.00  0.00    -0.029 C 
ATOM     26  H2  non d ame     -32.884  10.998  31.130  0.00  0.00     0.036 H 
ATOM     27  H3  non d ame     -32.641  10.417  29.466  0.00  0.00     0.036 H 
ATOM     28  H4  non d ame     -31.296  10.368  30.631  0.00  0.00     0.036 H 
ENDBRANCH  21  25
ENDBRANCH  16  19
ENDBRANCH  13  15
BRANCH  13  29
ATOM     29  C8  non d ame     -32.528  18.363  26.625  0.00  0.00    -0.049 C 
ATOM     30  H7  non d ame     -31.452  18.380  26.797  0.00  0.00     0.030 H 
ATOM     31  H8  non d ame     -32.748  17.732  25.764  0.00  0.00     0.030 H 
ATOM     32  H9  non d ame     -32.881  19.376  26.433  0.00  0.00     0.030 H 
ENDBRANCH  13  29
ENDBRANCH  10  13
ENDBRANCH   7   9
BRANCH   7  33
ATOM     33  C11 non d ame     -37.136  18.340  24.939  0.00  0.00    -0.033 C 
ATOM     34  H12 non d ame     -36.813  17.704  24.115  0.00  0.00     0.042 H 
BRANCH  33  35
ATOM     35  C12 non d ame     -38.665  18.594  24.766  0.00  0.00    -0.071 C 
ATOM     36  H13 non d ame     -38.970  19.426  25.400  0.00  0.00     0.028 H 
ATOM     37  H14 non d ame     -38.878  18.834  23.724  0.00  0.00     0.028 H 
ATOM     38  H15 non d ame     -39.217  17.699  25.052  0.00  0.00     0.028 H 
ENDBRANCH  33  35
BRANCH  33  39
ATOM     39  C13 non d ame     -36.327  19.675  24.864  0.00  0.00    -0.071 C 
ATOM     40  H16 non d ame     -35.318  19.510  25.243  0.00  0.00     0.028 H 
ATOM     41  H17 non d ame     -36.277  20.011  23.828  0.00  0.00     0.028 H 
ATOM     42  H18 non d ame     -36.824  20.434  25.468  0.00  0.00     0.028 H 
ENDBRANCH  33  39
ENDBRANCH   7  33
ENDBRANCH   4   7
ENDBRANCH   1   3
BRANCH   1  43
ATOM     43  C15 non d ame     -36.690  12.942  25.959  0.00  0.00     0.240 C 
ATOM     44  O5  non d ame     -36.930  12.838  27.118  0.00  0.00    -0.271 OA
ATOM     45  N6  non d ame     -35.577  12.153  25.358  0.00  0.00    -0.355 N 
ATOM     46  H46 non d ame     -35.366  12.230  24.374  0.00  0.00     0.162 HD
BRANCH  45  47
ATOM     47  C20 non d ame     -34.774  11.252  26.212  0.00  0.00     0.013 C 
ATOM     48  H30 non d ame     -35.443  10.795  26.941  0.00  0.00     0.072 H 
BRANCH  47  49
ATOM     49  C21 non d ame     -33.708  12.055  26.923  0.00  0.00    -0.038 C 
ATOM     50  H31 non d ame     -34.236  12.655  27.665  0.00  0.00     0.036 H 
ATOM     51  H32 non d ame     -32.958  11.331  27.242  0.00  0.00     0.036 H 
BRANCH  49  52
ATOM     52  C22 non d ame     -32.985  13.050  25.990  0.00  0.00     0.018 C 
ATOM     53  H33 non d ame     -33.349  12.831  24.987  0.00  0.00     0.048 H 
ATOM     54  H34 non d ame     -33.149  14.036  26.427  0.00  0.00     0.048 H 
BRANCH  52  55
ATOM     55  C23 non d ame     -31.444  12.856  25.939  0.00  0.00     0.259 C 
ATOM     56  O7  non d ame     -30.961  11.800  26.191  0.00  0.00    -0.265 OA
BRANCH  55  57
ATOM     57  O8  non d ame     -30.614  13.959  25.601  0.00  0.00    -0.317 OA
BRANCH  57  58
ATOM     58  C29 non d ame     -31.316  15.059  25.014  0.00  0.00     0.052 C 
ATOM     59  H47 non d ame     -32.342  14.715  24.879  0.00  0.00     0.082 H 
ATOM     60  H48 non d ame     -31.109  15.916  25.653  0.00  0.00     0.082 H 
BRANCH  58  61
ATOM     61  C35 non d ame     -30.700  15.329  23.615  0.00  0.00    -0.034 A 
ATOM     62  C30 non d ame     -29.344  15.107  23.397  0.00  0.00    -0.075 A 
ATOM     63  C31 non d ame     -28.790  15.350  22.141  0.00  0.00    -0.082 A 
ATOM     64  H49 non d ame     -28.715  14.743  24.209  0.00  0.00     0.084 H 
ATOM     65  C32 non d ame     -29.598  15.819  21.101  0.00  0.00    -0.083 A 
ATOM     66  H50 non d ame     -27.728  15.173  21.972  0.00  0.00     0.083 H 
ATOM     67  C33 non d ame     -30.949  16.042  21.325  0.00  0.00    -0.082 A 
ATOM     68  H51 non d ame     -29.173  16.011  20.116  0.00  0.00     0.083 H 
ATOM     69  C34 non d ame     -31.508  15.799  22.578  0.00  0.00    -0.075 A 
ATOM     70  H52 non d ame     -31.576  16.411  20.512  0.00  0.00     0.083 H 
ATOM     71  H53 non d ame     -32.570  15.976  22.746  0.00  0.00     0.084 H 
ENDBRANCH  58  61
ENDBRANCH  57  58
ENDBRANCH  55  57
ENDBRANCH  52  55
ENDBRANCH  49  52
ENDBRANCH  47  49
BRANCH  47  72
ATOM     72  C24 non d ame     -34.113  10.177  25.351  0.00  0.00    -0.039 C 
ATOM     73  H35 non d ame     -34.728  10.106  24.454  0.00  0.00     0.036 H 
ATOM     74  H36 non d ame     -33.066  10.471  25.273  0.00  0.00     0.036 H 
BRANCH  72  75
ATOM     75  C25 non d ame     -34.148   8.742  26.063  0.00  0.00    -0.001 C 
ATOM     76  C26 non d ame     -34.965   8.844  27.487  0.00  0.00    -0.035 C 
ATOM     77  C27 non d ame     -34.202   8.304  28.467  0.00  0.00     0.085 C 
ATOM     78  H38 non d ame     -35.065   9.887  27.787  0.00  0.00     0.036 H 
ATOM     79  H39 non d ame     -35.842   8.197  27.462  0.00  0.00     0.036 H 
ATOM     80  N5  non d ame     -32.810   8.142  27.905  0.00  0.00    -0.049 N 
ATOM     81  H40 non d ame     -34.179   9.050  29.262  0.00  0.00     0.075 H 
ATOM     82  H41 non d ame     -34.625   7.319  28.657  0.00  0.00     0.075 H 
ATOM     83  C28 non d ame     -32.955   8.311  26.306  0.00  0.00     0.193 C 
ATOM     84  H42 non d ame     -32.265   8.913  28.262  0.00  0.00     0.280 HD
ATOM     85  H43 non d ame     -32.531   7.191  28.103  0.00  0.00     0.280 HD
ATOM     86  H44 non d ame     -32.923   7.440  25.651  0.00  0.00     0.129 H 
ATOM     87  H37 non d ame     -34.444   7.948  25.378  0.00  0.00     0.046 H 
BRANCH  83  88
ATOM     88  O6  non d ame     -31.951   9.199  25.811  0.00  0.00    -0.369 OA
ATOM     89  H45 non d ame     -31.753   9.862  26.477  0.00  0.00     0.212 HD
ENDBRANCH  83  88
ENDBRANCH  72  75
ENDBRANCH  47  72
ENDBRANCH  45  47
ENDBRANCH   1  43
BRANCH   1  90
ATOM     90  C16 non d ame     -37.513  13.417  23.631  0.00  0.00    -0.035 C 
ATOM     91  H21 non d ame     -37.152  14.268  23.054  0.00  0.00     0.037 H 
ATOM     92  H22 non d ame     -36.942  12.488  23.646  0.00  0.00     0.037 H 
BRANCH  90  93
ATOM     93  C17 non d ame     -38.921  13.060  23.057  0.00  0.00    -0.059 C 
ATOM     94  H23 non d ame     -39.464  12.515  23.828  0.00  0.00     0.038 H 
BRANCH  93  95
ATOM     95  C18 non d ame     -39.752  14.334  22.700  0.00  0.00    -0.073 C 
ATOM     96  H24 non d ame     -39.075  15.157  22.472  0.00  0.00     0.028 H 
ATOM     97  H25 non d ame     -40.377  14.129  21.832  0.00  0.00     0.028 H 
ATOM     98  H26 non d ame     -40.382  14.605  23.546  0.00  0.00     0.028 H 
ENDBRANCH  93  95
BRANCH  93  99
ATOM     99  C19 non d ame     -38.798  12.133  21.845  0.00  0.00    -0.073 C 
ATOM    100  H27 non d ame     -39.788  11.945  21.429  0.00  0.00     0.028 H 
ATOM    101  H28 non d ame     -38.169  12.603  21.089  0.00  0.00     0.028 H 
ATOM    102  H29 non d ame     -38.349  11.189  22.154  0.00  0.00     0.028 H 
ENDBRANCH  93  99
ENDBRANCH  90  93
ENDBRANCH   1  90
TORSDOF 26
ENDMDL
MODEL 10
REMARK VINA RESULT:      -6.5      2.448      7.632
REMARK  26 active torsions:
REMARK  status: ('A' for Active; 'I' for Inactive)
REMARK    1  A    between atoms: C2_2  and  C3_3 
REMARK    2  A    between atoms: C4_6  and  C5_7 
REMARK       I    between atoms: C5_7  and  N2_9 
REMARK    3  A    between atoms: N2_9  and  C6_10 
REMARK    4  A    between atoms: C6_10  and  C7_11 
REMARK    5  A    between atoms: C6_10  and  C8_13 
REMARK       I    between atoms: C7_11  and  N3_14 
REMARK    6  A    between atoms: N3_14  and  C9_15 
REMARK    7  A    between atoms: C9_15  and  C10_16 
REMARK    8  A    between atoms: C9_15  and  C11_18 
REMARK       I    between atoms: C10_16  and  N4_21 
REMARK    9  A    between atoms: C11_18  and  C12_19 
REMARK   10  A    between atoms: C11_18  and  C13_20 
REMARK   11  A    between atoms: N4_21  and  C14_22 
REMARK   12  A    between atoms: C14_22  and  C15_23 
REMARK   13  A    between atoms: C14_22  and  C16_25 
REMARK       I    between atoms: C15_23  and  N6_40 
REMARK   14  A    between atoms: C16_25  and  C17_26 
REMARK   15  A    between atoms: C17_26  and  C18_27 
REMARK   16  A    between atoms: C17_26  and  C19_28 
REMARK   17  A    between atoms: C20_29  and  C21_30 
REMARK   18  A    between atoms: C20_29  and  C24_33 
REMARK   19  A    between atoms: C20_29  and  N6_40 
REMARK   20  A    between atoms: C21_30  and  C22_31 
REMARK   21  A    between atoms: C22_31  and  C23_32 
REMARK   22  A    between atoms: C23_32  and  O8_43 
REMARK   23  A    between atoms: C24_33  and  C25_34 
REMARK   24  A    between atoms: C28_38  and  O6_39 
REMARK   25  A    between atoms: C29_42  and  O8_43 
REMARK   26  A    between atoms: C29_42  and  C35_49 
ROOT
ATOM      1  C14 non d ame     -36.483  15.938  26.426  0.00  0.00     0.089 C 
ATOM      2  H20 non d ame     -37.097  16.479  27.146  0.00  0.00     0.087 H 
ENDROOT
BRANCH   1   3
ATOM      3  N4  non d ame     -35.092  16.111  26.817  0.00  0.00    -0.346 N 
ATOM      4  C10 non d ame     -34.714  17.144  27.849  0.00  0.00     0.241 C 
ATOM      5  O4  non d ame     -35.547  17.826  28.348  0.00  0.00    -0.271 OA
ATOM      6  H19 non d ame     -34.399  15.521  26.379  0.00  0.00     0.163 HD
BRANCH   4   7
ATOM      7  C9  non d ame     -33.270  17.305  28.246  0.00  0.00     0.092 C 
ATOM      8  H11 non d ame     -33.217  17.843  29.192  0.00  0.00     0.088 H 
BRANCH   7   9
ATOM      9  N3  non d ame     -32.672  15.984  28.464  0.00  0.00    -0.346 N 
ATOM     10  C7  non d ame     -31.748  15.783  29.553  0.00  0.00     0.240 C 
ATOM     11  O3  non d ame     -31.474  16.672  30.262  0.00  0.00    -0.271 OA
ATOM     12  H10 non d ame     -32.898  15.208  27.859  0.00  0.00     0.163 HD
BRANCH  10  13
ATOM     13  C6  non d ame     -31.113  14.375  29.778  0.00  0.00     0.086 C 
ATOM     14  H6  non d ame     -30.521  14.321  30.691  0.00  0.00     0.086 H 
BRANCH  13  15
ATOM     15  N2  non d ame     -32.176  13.394  29.912  0.00  0.00    -0.343 N 
ATOM     16  C5  non d ame     -31.913  12.137  30.616  0.00  0.00     0.273 C 
ATOM     17  O2  non d ame     -30.841  11.923  31.067  0.00  0.00    -0.266 OA
ATOM     18  H5  non d ame     -33.088  13.583  29.521  0.00  0.00     0.163 HD
BRANCH  16  19
ATOM     19  C4  non d ame     -33.028  11.091  30.767  0.00  0.00     0.154 A 
ATOM     20  C1  non d ame     -34.085  11.087  31.732  0.00  0.00    -0.017 A 
ATOM     21  C2  non d ame     -34.833   9.923  31.447  0.00  0.00     0.077 A 
ATOM     22  H1  non d ame     -34.279  11.817  32.518  0.00  0.00     0.091 H 
ATOM     23  O1  non d ame     -34.265   9.335  30.435  0.00  0.00    -0.218 OA
ATOM     24  N1  non d ame     -33.210   9.998  30.021  0.00  0.00    -0.123 NA
BRANCH  21  25
ATOM     25  C3  non d ame     -36.075   9.445  32.188  0.00  0.00    -0.029 C 
ATOM     26  H2  non d ame     -36.761  10.281  32.324  0.00  0.00     0.036 H 
ATOM     27  H3  non d ame     -36.566   8.664  31.608  0.00  0.00     0.036 H 
ATOM     28  H4  non d ame     -35.788   9.049  33.162  0.00  0.00     0.036 H 
ENDBRANCH  21  25
ENDBRANCH  16  19
ENDBRANCH  13  15
BRANCH  13  29
ATOM     29  C8  non d ame     -30.232  14.025  28.605  0.00  0.00    -0.049 C 
ATOM     30  H7  non d ame     -29.269  13.666  28.968  0.00  0.00     0.030 H 
ATOM     31  H8  non d ame     -30.710  13.246  28.012  0.00  0.00     0.030 H 
ATOM     32  H9  non d ame     -30.080  14.911  27.987  0.00  0.00     0.030 H 
ENDBRANCH  13  29
ENDBRANCH  10  13
ENDBRANCH   7   9
BRANCH   7  33
ATOM     33  C11 non d ame     -32.499  18.040  27.111  0.00  0.00    -0.033 C 
ATOM     34  H12 non d ame     -31.454  18.108  27.414  0.00  0.00     0.042 H 
BRANCH  33  35
ATOM     35  C12 non d ame     -32.548  17.233  25.776  0.00  0.00    -0.071 C 
ATOM     36  H13 non d ame     -33.571  17.210  25.402  0.00  0.00     0.028 H 
ATOM     37  H14 non d ame     -31.902  17.710  25.039  0.00  0.00     0.028 H 
ATOM     38  H15 non d ame     -32.205  16.214  25.955  0.00  0.00     0.028 H 
ENDBRANCH  33  35
BRANCH  33  39
ATOM     39  C13 non d ame     -33.041  19.492  26.915  0.00  0.00    -0.071 C 
ATOM     40  H16 non d ame     -32.258  20.209  27.162  0.00  0.00     0.028 H 
ATOM     41  H17 non d ame     -33.345  19.629  25.876  0.00  0.00     0.028 H 
ATOM     42  H18 non d ame     -33.900  19.650  27.567  0.00  0.00     0.028 H 
ENDBRANCH  33  39
ENDBRANCH   7  33
ENDBRANCH   4   7
ENDBRANCH   1   3
BRANCH   1  43
ATOM     43  C15 non d ame     -36.807  14.416  26.405  0.00  0.00     0.240 C 
ATOM     44  O5  non d ame     -37.763  14.008  26.981  0.00  0.00    -0.271 OA
ATOM     45  N6  non d ame     -35.929  13.470  25.660  0.00  0.00    -0.355 N 
ATOM     46  H46 non d ame     -35.116  13.806  25.164  0.00  0.00     0.162 HD
BRANCH  45  47
ATOM     47  C20 non d ame     -36.251  12.026  25.649  0.00  0.00     0.013 C 
ATOM     48  H30 non d ame     -37.038  11.852  26.383  0.00  0.00     0.072 H 
BRANCH  47  49
ATOM     49  C21 non d ame     -35.016  11.236  26.020  0.00  0.00    -0.038 C 
ATOM     50  H31 non d ame     -35.381  10.297  26.436  0.00  0.00     0.036 H 
ATOM     51  H32 non d ame     -34.391  11.230  25.126  0.00  0.00     0.036 H 
BRANCH  49  52
ATOM     52  C22 non d ame     -34.183  11.912  27.131  0.00  0.00     0.018 C 
ATOM     53  H33 non d ame     -34.831  12.673  27.563  0.00  0.00     0.048 H 
ATOM     54  H34 non d ame     -33.806  11.099  27.753  0.00  0.00     0.048 H 
BRANCH  52  55
ATOM     55  C23 non d ame     -32.930  12.664  26.604  0.00  0.00     0.259 C 
ATOM     56  O7  non d ame     -32.901  13.852  26.592  0.00  0.00    -0.265 OA
BRANCH  55  57
ATOM     57  O8  non d ame     -31.819  11.917  26.123  0.00  0.00    -0.317 OA
BRANCH  57  58
ATOM     58  C29 non d ame     -31.355  12.329  24.834  0.00  0.00     0.052 C 
ATOM     59  H47 non d ame     -32.143  12.960  24.425  0.00  0.00     0.082 H 
ATOM     60  H48 non d ame     -30.358  12.738  24.996  0.00  0.00     0.082 H 
BRANCH  58  61
ATOM     61  C35 non d ame     -31.227  11.063  23.945  0.00  0.00    -0.034 A 
ATOM     62  C30 non d ame     -30.139  10.920  23.089  0.00  0.00    -0.075 A 
ATOM     63  C31 non d ame     -30.025   9.784  22.290  0.00  0.00    -0.082 A 
ATOM     64  H49 non d ame     -29.377  11.698  23.045  0.00  0.00     0.084 H 
ATOM     65  C32 non d ame     -31.005   8.789  22.346  0.00  0.00    -0.083 A 
ATOM     66  H50 non d ame     -29.170   9.674  21.622  0.00  0.00     0.083 H 
ATOM     67  C33 non d ame     -32.090   8.938  23.199  0.00  0.00    -0.082 A 
ATOM     68  H51 non d ame     -30.922   7.897  21.725  0.00  0.00     0.083 H 
ATOM     69  C34 non d ame     -32.208  10.071  24.001  0.00  0.00    -0.075 A 
ATOM     70  H52 non d ame     -32.854   8.161  23.239  0.00  0.00     0.083 H 
ATOM     71  H53 non d ame     -33.063  10.180  24.669  0.00  0.00     0.084 H 
ENDBRANCH  58  61
ENDBRANCH  57  58
ENDBRANCH  55  57
ENDBRANCH  52  55
ENDBRANCH  49  52
ENDBRANCH  47  49
BRANCH  47  72
ATOM     72  C24 non d ame     -36.722  11.613  24.256  0.00  0.00    -0.039 C 
ATOM     73  H35 non d ame     -36.096  12.172  23.561  0.00  0.00     0.036 H 
ATOM     74  H36 non d ame     -36.698  10.523  24.254  0.00  0.00     0.036 H 
BRANCH  72  75
ATOM     75  C25 non d ame     -38.238  12.054  23.989  0.00  0.00    -0.001 C 
ATOM     76  C26 non d ame     -39.107  10.768  23.443  0.00  0.00    -0.035 C 
ATOM     77  C27 non d ame     -39.755  11.129  22.310  0.00  0.00     0.085 C 
ATOM     78  H38 non d ame     -38.436   9.977  23.112  0.00  0.00     0.036 H 
ATOM     79  H39 non d ame     -39.916  10.542  24.138  0.00  0.00     0.036 H 
ATOM     80  N5  non d ame     -39.152  12.435  21.853  0.00  0.00    -0.049 N 
ATOM     81  H40 non d ame     -39.519  10.354  21.581  0.00  0.00     0.075 H 
ATOM     82  H41 non d ame     -40.789  11.300  22.608  0.00  0.00     0.075 H 
ATOM     83  C28 non d ame     -38.303  12.995  23.107  0.00  0.00     0.193 C 
ATOM     84  H42 non d ame     -38.511  12.209  21.106  0.00  0.00     0.280 HD
ATOM     85  H43 non d ame     -39.925  13.063  21.683  0.00  0.00     0.280 HD
ATOM     86  H44 non d ame     -38.689  13.812  23.717  0.00  0.00     0.129 H 
ATOM     87  H37 non d ame     -38.658  12.618  24.822  0.00  0.00     0.046 H 
BRANCH  83  88
ATOM     88  O6  non d ame     -37.008  13.419  22.676  0.00  0.00    -0.369 OA
ATOM     89  H45 non d ame     -37.010  14.370  22.546  0.00  0.00     0.212 HD
ENDBRANCH  83  88
ENDBRANCH  72  75
ENDBRANCH  47  72
ENDBRANCH  45  47
ENDBRANCH   1  43
BRANCH   1  90
ATOM     90  C16 non d ame     -36.684  16.522  25.036  0.00  0.00    -0.035 C 
ATOM     91  H21 non d ame     -35.680  16.676  24.640  0.00  0.00     0.037 H 
ATOM     92  H22 non d ame     -37.370  15.840  24.533  0.00  0.00     0.037 H 
BRANCH  90  93
ATOM     93  C17 non d ame     -37.376  17.922  25.039  0.00  0.00    -0.059 C 
ATOM     94  H23 non d ame     -37.924  18.022  24.102  0.00  0.00     0.038 H 
BRANCH  93  95
ATOM     95  C18 non d ame     -38.401  18.071  26.209  0.00  0.00    -0.073 C 
ATOM     96  H24 non d ame     -37.935  17.756  27.142  0.00  0.00     0.028 H 
ATOM     97  H25 non d ame     -38.710  19.112  26.291  0.00  0.00     0.028 H 
ATOM     98  H26 non d ame     -39.272  17.447  26.009  0.00  0.00     0.028 H 
ENDBRANCH  93  95
BRANCH  93  99
ATOM     99  C19 non d ame     -36.336  19.045  25.080  0.00  0.00    -0.073 C 
ATOM    100  H27 non d ame     -36.296  19.467  26.085  0.00  0.00     0.028 H 
ATOM    101  H28 non d ame     -35.357  18.645  24.815  0.00  0.00     0.028 H 
ATOM    102  H29 non d ame     -36.614  19.824  24.370  0.00  0.00     0.028 H 
ENDBRANCH  93  99
ENDBRANCH  90  93
ENDBRANCH   1  90
TORSDOF 26
ENDMDL
MODEL 11
REMARK VINA RESULT:      -6.5      3.195      6.654
REMARK  26 active torsions:
REMARK  status: ('A' for Active; 'I' for Inactive)
REMARK    1  A    between atoms: C2_2  and  C3_3 
REMARK    2  A    between atoms: C4_6  and  C5_7 
REMARK       I    between atoms: C5_7  and  N2_9 
REMARK    3  A    between atoms: N2_9  and  C6_10 
REMARK    4  A    between atoms: C6_10  and  C7_11 
REMARK    5  A    between atoms: C6_10  and  C8_13 
REMARK       I    between atoms: C7_11  and  N3_14 
REMARK    6  A    between atoms: N3_14  and  C9_15 
REMARK    7  A    between atoms: C9_15  and  C10_16 
REMARK    8  A    between atoms: C9_15  and  C11_18 
REMARK       I    between atoms: C10_16  and  N4_21 
REMARK    9  A    between atoms: C11_18  and  C12_19 
REMARK   10  A    between atoms: C11_18  and  C13_20 
REMARK   11  A    between atoms: N4_21  and  C14_22 
REMARK   12  A    between atoms: C14_22  and  C15_23 
REMARK   13  A    between atoms: C14_22  and  C16_25 
REMARK       I    between atoms: C15_23  and  N6_40 
REMARK   14  A    between atoms: C16_25  and  C17_26 
REMARK   15  A    between atoms: C17_26  and  C18_27 
REMARK   16  A    between atoms: C17_26  and  C19_28 
REMARK   17  A    between atoms: C20_29  and  C21_30 
REMARK   18  A    between atoms: C20_29  and  C24_33 
REMARK   19  A    between atoms: C20_29  and  N6_40 
REMARK   20  A    between atoms: C21_30  and  C22_31 
REMARK   21  A    between atoms: C22_31  and  C23_32 
REMARK   22  A    between atoms: C23_32  and  O8_43 
REMARK   23  A    between atoms: C24_33  and  C25_34 
REMARK   24  A    between atoms: C28_38  and  O6_39 
REMARK   25  A    between atoms: C29_42  and  O8_43 
REMARK   26  A    between atoms: C29_42  and  C35_49 
ROOT
ATOM      1  C14 non d ame     -32.769  10.421  26.221  0.00  0.00     0.089 C 
ATOM      2  H20 non d ame     -33.709  10.609  25.702  0.00  0.00     0.087 H 
ENDROOT
BRANCH   1   3
ATOM      3  N4  non d ame     -32.221   9.177  25.699  0.00  0.00    -0.346 N 
ATOM      4  C10 non d ame     -32.431   8.801  24.254  0.00  0.00     0.241 C 
ATOM      5  O4  non d ame     -33.047   9.513  23.531  0.00  0.00    -0.271 OA
ATOM      6  H19 non d ame     -31.703   8.584  26.331  0.00  0.00     0.163 HD
BRANCH   4   7
ATOM      7  C9  non d ame     -31.853   7.513  23.728  0.00  0.00     0.092 C 
ATOM      8  H11 non d ame     -30.873   7.351  24.177  0.00  0.00     0.088 H 
BRANCH   7   9
ATOM      9  N3  non d ame     -32.706   6.392  24.134  0.00  0.00    -0.346 N 
ATOM     10  C7  non d ame     -32.507   5.763  25.417  0.00  0.00     0.240 C 
ATOM     11  O3  non d ame     -31.665   6.145  26.134  0.00  0.00    -0.271 OA
ATOM     12  H10 non d ame     -33.436   6.051  23.525  0.00  0.00     0.163 HD
BRANCH  10  13
ATOM     13  C6  non d ame     -33.417   4.568  25.842  0.00  0.00     0.086 C 
ATOM     14  H6  non d ame     -32.848   3.722  26.228  0.00  0.00     0.086 H 
BRANCH  13  15
ATOM     15  N2  non d ame     -34.296   5.003  26.914  0.00  0.00    -0.343 N 
ATOM     16  C5  non d ame     -33.900   4.781  28.306  0.00  0.00     0.273 C 
ATOM     17  O2  non d ame     -32.873   4.248  28.553  0.00  0.00    -0.266 OA
ATOM     18  H5  non d ame     -35.172   5.455  26.694  0.00  0.00     0.163 HD
BRANCH  16  19
ATOM     19  C4  non d ame     -34.818   5.237  29.451  0.00  0.00     0.154 A 
ATOM     20  C1  non d ame     -36.149   5.751  29.338  0.00  0.00    -0.017 A 
ATOM     21  C2  non d ame     -36.549   6.018  30.667  0.00  0.00     0.077 A 
ATOM     22  H1  non d ame     -36.735   5.906  28.432  0.00  0.00     0.091 H 
ATOM     23  O1  non d ame     -35.558   5.691  31.443  0.00  0.00    -0.218 OA
ATOM     24  N1  non d ame     -34.536   5.233  30.756  0.00  0.00    -0.123 NA
BRANCH  21  25
ATOM     25  C3  non d ame     -37.893   6.583  31.107  0.00  0.00    -0.029 C 
ATOM     26  H2  non d ame     -37.746   7.254  31.953  0.00  0.00     0.036 H 
ATOM     27  H3  non d ame     -38.344   7.132  30.282  0.00  0.00     0.036 H 
ATOM     28  H4  non d ame     -38.552   5.766  31.402  0.00  0.00     0.036 H 
ENDBRANCH  21  25
ENDBRANCH  16  19
ENDBRANCH  13  15
BRANCH  13  29
ATOM     29  C8  non d ame     -34.232   4.109  24.660  0.00  0.00    -0.049 C 
ATOM     30  H7  non d ame     -35.090   4.769  24.531  0.00  0.00     0.030 H 
ATOM     31  H8  non d ame     -33.616   4.135  23.761  0.00  0.00     0.030 H 
ATOM     32  H9  non d ame     -34.580   3.090  24.832  0.00  0.00     0.030 H 
ENDBRANCH  13  29
ENDBRANCH  10  13
ENDBRANCH   7   9
BRANCH   7  33
ATOM     33  C11 non d ame     -31.782   7.572  22.174  0.00  0.00    -0.033 C 
ATOM     34  H12 non d ame     -32.622   8.175  21.830  0.00  0.00     0.042 H 
BRANCH  33  35
ATOM     35  C12 non d ame     -30.473   8.270  21.690  0.00  0.00    -0.071 C 
ATOM     36  H13 non d ame     -29.649   7.991  22.346  0.00  0.00     0.028 H 
ATOM     37  H14 non d ame     -30.249   7.956  20.671  0.00  0.00     0.028 H 
ATOM     38  H15 non d ame     -30.607   9.351  21.717  0.00  0.00     0.028 H 
ENDBRANCH  33  35
BRANCH  33  39
ATOM     39  C13 non d ame     -31.926   6.145  21.553  0.00  0.00    -0.071 C 
ATOM     40  H16 non d ame     -32.552   5.529  22.199  0.00  0.00     0.028 H 
ATOM     41  H17 non d ame     -32.385   6.222  20.567  0.00  0.00     0.028 H 
ATOM     42  H18 non d ame     -30.941   5.689  21.459  0.00  0.00     0.028 H 
ENDBRANCH  33  39
ENDBRANCH   7  33
ENDBRANCH   4   7
ENDBRANCH   1   3
BRANCH   1  43
ATOM     43  C15 non d ame     -31.731  11.556  25.988  0.00  0.00     0.240 C 
ATOM     44  O5  non d ame     -30.867  11.739  26.783  0.00  0.00    -0.271 OA
ATOM     45  N6  non d ame     -31.809  12.408  24.767  0.00  0.00    -0.355 N 
ATOM     46  H46 non d ame     -32.535  12.259  24.082  0.00  0.00     0.162 HD
BRANCH  45  47
ATOM     47  C20 non d ame     -30.814  13.482  24.559  0.00  0.00     0.013 C 
ATOM     48  H30 non d ame     -29.888  13.182  25.049  0.00  0.00     0.072 H 
BRANCH  47  49
ATOM     49  C21 non d ame     -31.329  14.766  25.171  0.00  0.00    -0.038 C 
ATOM     50  H31 non d ame     -31.016  14.741  26.215  0.00  0.00     0.036 H 
ATOM     51  H32 non d ame     -30.980  15.564  24.515  0.00  0.00     0.036 H 
BRANCH  49  52
ATOM     52  C22 non d ame     -32.870  14.850  25.179  0.00  0.00     0.018 C 
ATOM     53  H33 non d ame     -33.119  15.775  24.661  0.00  0.00     0.048 H 
ATOM     54  H34 non d ame     -33.220  13.895  24.786  0.00  0.00     0.048 H 
BRANCH  52  55
ATOM     55  C23 non d ame     -33.483  14.978  26.601  0.00  0.00     0.259 C 
ATOM     56  O7  non d ame     -34.649  14.825  26.771  0.00  0.00    -0.265 OA
BRANCH  55  57
ATOM     57  O8  non d ame     -32.636  15.294  27.699  0.00  0.00    -0.317 OA
BRANCH  57  58
ATOM     58  C29 non d ame     -33.185  14.955  28.975  0.00  0.00     0.052 C 
ATOM     59  H47 non d ame     -33.060  15.842  29.596  0.00  0.00     0.082 H 
ATOM     60  H48 non d ame     -34.184  14.568  28.773  0.00  0.00     0.082 H 
BRANCH  58  61
ATOM     61  C35 non d ame     -32.328  13.809  29.577  0.00  0.00    -0.034 A 
ATOM     62  C30 non d ame     -32.942  12.770  30.269  0.00  0.00    -0.075 A 
ATOM     63  C31 non d ame     -32.172  11.741  30.810  0.00  0.00    -0.082 A 
ATOM     64  H49 non d ame     -34.025  12.762  30.389  0.00  0.00     0.084 H 
ATOM     65  C32 non d ame     -30.783  11.755  30.658  0.00  0.00    -0.083 A 
ATOM     66  H50 non d ame     -32.656  10.927  31.351  0.00  0.00     0.083 H 
ATOM     67  C33 non d ame     -30.175  12.795  29.968  0.00  0.00    -0.082 A 
ATOM     68  H51 non d ame     -30.173  10.954  31.076  0.00  0.00     0.083 H 
ATOM     69  C34 non d ame     -30.940  13.825  29.425  0.00  0.00    -0.075 A 
ATOM     70  H52 non d ame     -29.091  12.804  29.853  0.00  0.00     0.083 H 
ATOM     71  H53 non d ame     -30.456  14.638  28.884  0.00  0.00     0.084 H 
ENDBRANCH  58  61
ENDBRANCH  57  58
ENDBRANCH  55  57
ENDBRANCH  52  55
ENDBRANCH  49  52
ENDBRANCH  47  49
BRANCH  47  72
ATOM     72  C24 non d ame     -30.581  13.688  23.064  0.00  0.00    -0.039 C 
ATOM     73  H35 non d ame     -29.735  13.047  22.811  0.00  0.00     0.036 H 
ATOM     74  H36 non d ame     -31.550  13.522  22.593  0.00  0.00     0.036 H 
BRANCH  72  75
ATOM     75  C25 non d ame     -30.146  15.194  22.733  0.00  0.00    -0.001 C 
ATOM     76  C26 non d ame     -31.282  15.908  21.782  0.00  0.00    -0.035 C 
ATOM     77  C27 non d ame     -30.669  16.454  20.705  0.00  0.00     0.085 C 
ATOM     78  H38 non d ame     -31.935  15.151  21.347  0.00  0.00     0.036 H 
ATOM     79  H39 non d ame     -31.711  16.769  22.295  0.00  0.00     0.036 H 
ATOM     80  N5  non d ame     -29.266  15.898  20.666  0.00  0.00    -0.049 N 
ATOM     81  H40 non d ame     -31.221  16.088  19.839  0.00  0.00     0.075 H 
ATOM     82  H41 non d ame     -30.621  17.523  20.908  0.00  0.00     0.075 H 
ATOM     83  C28 non d ame     -29.014  15.229  22.114  0.00  0.00     0.193 C 
ATOM     84  H42 non d ame     -29.267  15.166  19.970  0.00  0.00     0.280 HD
ATOM     85  H43 non d ame     -28.647  16.690  20.566  0.00  0.00     0.280 HD
ATOM     86  H44 non d ame     -28.397  15.734  22.857  0.00  0.00     0.129 H 
ATOM     87  H37 non d ame     -29.832  15.738  23.624  0.00  0.00     0.046 H 
BRANCH  83  88
ATOM     88  O6  non d ame     -28.442  13.928  21.963  0.00  0.00    -0.369 OA
ATOM     89  H45 non d ame     -28.572  13.624  21.061  0.00  0.00     0.212 HD
ENDBRANCH  83  88
ENDBRANCH  72  75
ENDBRANCH  47  72
ENDBRANCH  45  47
ENDBRANCH   1  43
BRANCH   1  90
ATOM     90  C16 non d ame     -33.026  10.262  27.711  0.00  0.00    -0.035 C 
ATOM     91  H21 non d ame     -32.071   9.959  28.138  0.00  0.00     0.037 H 
ATOM     92  H22 non d ame     -33.492  11.196  28.025  0.00  0.00     0.037 H 
BRANCH  90  93
ATOM     93  C17 non d ame     -34.041   9.126  28.054  0.00  0.00    -0.059 C 
ATOM     94  H23 non d ame     -33.612   8.184  27.711  0.00  0.00     0.038 H 
BRANCH  93  95
ATOM     95  C18 non d ame     -34.292   9.003  29.591  0.00  0.00    -0.073 C 
ATOM     96  H24 non d ame     -34.551   9.981  29.996  0.00  0.00     0.028 H 
ATOM     97  H25 non d ame     -35.111   8.307  29.772  0.00  0.00     0.028 H 
ATOM     98  H26 non d ame     -33.389   8.636  30.078  0.00  0.00     0.028 H 
ENDBRANCH  93  95
BRANCH  93  99
ATOM     99  C19 non d ame     -35.360   9.325  27.301  0.00  0.00    -0.073 C 
ATOM    100  H27 non d ame     -35.676  10.365  27.392  0.00  0.00     0.028 H 
ATOM    101  H28 non d ame     -35.219   9.079  26.249  0.00  0.00     0.028 H 
ATOM    102  H29 non d ame     -36.123   8.674  27.727  0.00  0.00     0.028 H 
ENDBRANCH  93  99
ENDBRANCH  90  93
ENDBRANCH   1  90
TORSDOF 26
ENDMDL
MODEL 12
REMARK VINA RESULT:      -6.4      2.485      7.857
REMARK  26 active torsions:
REMARK  status: ('A' for Active; 'I' for Inactive)
REMARK    1  A    between atoms: C2_2  and  C3_3 
REMARK    2  A    between atoms: C4_6  and  C5_7 
REMARK       I    between atoms: C5_7  and  N2_9 
REMARK    3  A    between atoms: N2_9  and  C6_10 
REMARK    4  A    between atoms: C6_10  and  C7_11 
REMARK    5  A    between atoms: C6_10  and  C8_13 
REMARK       I    between atoms: C7_11  and  N3_14 
REMARK    6  A    between atoms: N3_14  and  C9_15 
REMARK    7  A    between atoms: C9_15  and  C10_16 
REMARK    8  A    between atoms: C9_15  and  C11_18 
REMARK       I    between atoms: C10_16  and  N4_21 
REMARK    9  A    between atoms: C11_18  and  C12_19 
REMARK   10  A    between atoms: C11_18  and  C13_20 
REMARK   11  A    between atoms: N4_21  and  C14_22 
REMARK   12  A    between atoms: C14_22  and  C15_23 
REMARK   13  A    between atoms: C14_22  and  C16_25 
REMARK       I    between atoms: C15_23  and  N6_40 
REMARK   14  A    between atoms: C16_25  and  C17_26 
REMARK   15  A    between atoms: C17_26  and  C18_27 
REMARK   16  A    between atoms: C17_26  and  C19_28 
REMARK   17  A    between atoms: C20_29  and  C21_30 
REMARK   18  A    between atoms: C20_29  and  C24_33 
REMARK   19  A    between atoms: C20_29  and  N6_40 
REMARK   20  A    between atoms: C21_30  and  C22_31 
REMARK   21  A    between atoms: C22_31  and  C23_32 
REMARK   22  A    between atoms: C23_32  and  O8_43 
REMARK   23  A    between atoms: C24_33  and  C25_34 
REMARK   24  A    between atoms: C28_38  and  O6_39 
REMARK   25  A    between atoms: C29_42  and  O8_43 
REMARK   26  A    between atoms: C29_42  and  C35_49 
ROOT
ATOM      1  C14 non d ame     -32.866  12.773  27.933  0.00  0.00     0.089 C 
ATOM      2  H20 non d ame     -33.349  13.318  28.745  0.00  0.00     0.087 H 
ENDROOT
BRANCH   1   3
ATOM      3  N4  non d ame     -33.906  12.067  27.200  0.00  0.00    -0.346 N 
ATOM      4  C10 non d ame     -35.220  12.744  26.901  0.00  0.00     0.241 C 
ATOM      5  O4  non d ame     -35.418  13.856  27.264  0.00  0.00    -0.271 OA
ATOM      6  H19 non d ame     -33.718  11.120  26.902  0.00  0.00     0.163 HD
BRANCH   4   7
ATOM      7  C9  non d ame     -36.283  12.001  26.135  0.00  0.00     0.092 C 
ATOM      8  H11 non d ame     -36.598  12.602  25.283  0.00  0.00     0.088 H 
BRANCH   7   9
ATOM      9  N3  non d ame     -35.722  10.755  25.603  0.00  0.00    -0.346 N 
ATOM     10  C7  non d ame     -36.002  10.362  24.244  0.00  0.00     0.240 C 
ATOM     11  O3  non d ame     -36.678  11.034  23.565  0.00  0.00    -0.271 OA
ATOM     12  H10 non d ame     -35.138  10.164  26.177  0.00  0.00     0.163 HD
BRANCH  10  13
ATOM     13  C6  non d ame     -35.405   9.033  23.684  0.00  0.00     0.086 C 
ATOM     14  H6  non d ame     -35.665   8.861  22.640  0.00  0.00     0.086 H 
BRANCH  13  15
ATOM     15  N2  non d ame     -33.955   9.106  23.745  0.00  0.00    -0.343 N 
ATOM     16  C5  non d ame     -33.170   8.905  22.525  0.00  0.00     0.273 C 
ATOM     17  O2  non d ame     -33.715   8.683  21.500  0.00  0.00    -0.266 OA
ATOM     18  H5  non d ame     -33.497   9.294  24.626  0.00  0.00     0.163 HD
BRANCH  16  19
ATOM     19  C4  non d ame     -31.636   8.981  22.574  0.00  0.00     0.154 A 
ATOM     20  C1  non d ame     -30.709   7.928  22.294  0.00  0.00    -0.017 A 
ATOM     21  C2  non d ame     -29.434   8.507  22.480  0.00  0.00     0.077 A 
ATOM     22  H1  non d ame     -30.928   6.901  22.000  0.00  0.00     0.091 H 
ATOM     23  O1  non d ame     -29.619   9.748  22.826  0.00  0.00    -0.218 OA
ATOM     24  N1  non d ame     -30.895  10.048  22.888  0.00  0.00    -0.123 NA
BRANCH  21  25
ATOM     25  C3  non d ame     -28.092   7.808  22.307  0.00  0.00    -0.029 C 
ATOM     26  H2  non d ame     -28.203   6.748  22.534  0.00  0.00     0.036 H 
ATOM     27  H3  non d ame     -27.751   7.925  21.279  0.00  0.00     0.036 H 
ATOM     28  H4  non d ame     -27.362   8.250  22.984  0.00  0.00     0.036 H 
ENDBRANCH  21  25
ENDBRANCH  16  19
ENDBRANCH  13  15
BRANCH  13  29
ATOM     29  C8  non d ame     -35.899   7.871  24.507  0.00  0.00    -0.049 C 
ATOM     30  H7  non d ame     -35.487   6.943  24.109  0.00  0.00     0.030 H 
ATOM     31  H8  non d ame     -35.579   7.996  25.541  0.00  0.00     0.030 H 
ATOM     32  H9  non d ame     -36.988   7.832  24.465  0.00  0.00     0.030 H 
ENDBRANCH  13  29
ENDBRANCH  10  13
ENDBRANCH   7   9
BRANCH   7  33
ATOM     33  C11 non d ame     -37.469  11.667  27.087  0.00  0.00    -0.033 C 
ATOM     34  H12 non d ame     -37.583  12.503  27.776  0.00  0.00     0.042 H 
BRANCH  33  35
ATOM     35  C12 non d ame     -38.808  11.525  26.297  0.00  0.00    -0.071 C 
ATOM     36  H13 non d ame     -39.129  10.483  26.311  0.00  0.00     0.028 H 
ATOM     37  H14 non d ame     -39.572  12.147  26.763  0.00  0.00     0.028 H 
ATOM     38  H15 non d ame     -38.658  11.845  25.266  0.00  0.00     0.028 H 
ENDBRANCH  33  35
BRANCH  33  39
ATOM     39  C13 non d ame     -37.169  10.385  27.927  0.00  0.00    -0.071 C 
ATOM     40  H16 non d ame     -36.154  10.439  28.322  0.00  0.00     0.028 H 
ATOM     41  H17 non d ame     -37.878  10.317  28.753  0.00  0.00     0.028 H 
ATOM     42  H18 non d ame     -37.266   9.503  27.293  0.00  0.00     0.028 H 
ENDBRANCH  33  39
ENDBRANCH   7  33
ENDBRANCH   4   7
ENDBRANCH   1   3
BRANCH   1  43
ATOM     43  C15 non d ame     -32.122  13.721  26.950  0.00  0.00     0.240 C 
ATOM     44  O5  non d ame     -31.002  13.483  26.632  0.00  0.00    -0.271 OA
ATOM     45  N6  non d ame     -32.810  14.922  26.397  0.00  0.00    -0.355 N 
ATOM     46  H46 non d ame     -33.764  15.132  26.655  0.00  0.00     0.162 HD
BRANCH  45  47
ATOM     47  C20 non d ame     -32.090  15.813  25.462  0.00  0.00     0.013 C 
ATOM     48  H30 non d ame     -31.060  15.900  25.807  0.00  0.00     0.072 H 
BRANCH  47  49
ATOM     49  C21 non d ame     -32.751  17.174  25.459  0.00  0.00    -0.038 C 
ATOM     50  H31 non d ame     -32.360  17.689  24.581  0.00  0.00     0.036 H 
ATOM     51  H32 non d ame     -33.820  16.981  25.548  0.00  0.00     0.036 H 
BRANCH  49  52
ATOM     52  C22 non d ame     -32.359  18.033  26.681  0.00  0.00     0.018 C 
ATOM     53  H33 non d ame     -31.340  17.740  26.933  0.00  0.00     0.048 H 
ATOM     54  H34 non d ame     -32.576  19.063  26.399  0.00  0.00     0.048 H 
BRANCH  52  55
ATOM     55  C23 non d ame     -33.213  17.747  27.947  0.00  0.00     0.259 C 
ATOM     56  O7  non d ame     -32.912  16.872  28.692  0.00  0.00    -0.265 OA
BRANCH  55  57
ATOM     57  O8  non d ame     -34.368  18.536  28.201  0.00  0.00    -0.317 OA
BRANCH  57  58
ATOM     58  C29 non d ame     -34.268  19.883  27.731  0.00  0.00     0.052 C 
ATOM     59  H47 non d ame     -34.352  20.512  28.617  0.00  0.00     0.082 H 
ATOM     60  H48 non d ame     -33.365  19.917  27.122  0.00  0.00     0.082 H 
BRANCH  58  61
ATOM     61  C35 non d ame     -35.489  20.162  26.814  0.00  0.00    -0.034 A 
ATOM     62  C30 non d ame     -36.537  20.955  27.271  0.00  0.00    -0.075 A 
ATOM     63  C31 non d ame     -37.634  21.206  26.448  0.00  0.00    -0.082 A 
ATOM     64  H49 non d ame     -36.499  21.380  28.274  0.00  0.00     0.084 H 
ATOM     65  C32 non d ame     -37.682  20.658  25.163  0.00  0.00    -0.083 A 
ATOM     66  H50 non d ame     -38.453  21.829  26.808  0.00  0.00     0.083 H 
ATOM     67  C33 non d ame     -36.635  19.864  24.712  0.00  0.00    -0.082 A 
ATOM     68  H51 non d ame     -38.535  20.849  24.513  0.00  0.00     0.083 H 
ATOM     69  C34 non d ame     -35.536  19.613  25.531  0.00  0.00    -0.075 A 
ATOM     70  H52 non d ame     -36.676  19.436  23.710  0.00  0.00     0.083 H 
ATOM     71  H53 non d ame     -34.718  18.990  25.170  0.00  0.00     0.084 H 
ENDBRANCH  58  61
ENDBRANCH  57  58
ENDBRANCH  55  57
ENDBRANCH  52  55
ENDBRANCH  49  52
ENDBRANCH  47  49
BRANCH  47  72
ATOM     72  C24 non d ame     -32.130  15.224  24.053  0.00  0.00    -0.039 C 
ATOM     73  H35 non d ame     -32.369  14.169  24.186  0.00  0.00     0.036 H 
ATOM     74  H36 non d ame     -32.804  15.868  23.488  0.00  0.00     0.036 H 
BRANCH  72  75
ATOM     75  C25 non d ame     -30.697  15.298  23.339  0.00  0.00    -0.001 C 
ATOM     76  C26 non d ame     -30.827  16.090  21.904  0.00  0.00    -0.035 C 
ATOM     77  C27 non d ame     -30.262  15.332  20.935  0.00  0.00     0.085 C 
ATOM     78  H38 non d ame     -31.872  16.151  21.604  0.00  0.00     0.036 H 
ATOM     79  H39 non d ame     -30.210  16.989  21.916  0.00  0.00     0.036 H 
ATOM     80  N5  non d ame     -30.052  13.955  21.517  0.00  0.00    -0.049 N 
ATOM     81  H40 non d ame     -31.006  15.273  20.141  0.00  0.00     0.075 H 
ATOM     82  H41 non d ame     -29.291  15.785  20.739  0.00  0.00     0.075 H 
ATOM     83  C28 non d ame     -30.226  14.117  23.114  0.00  0.00     0.193 C 
ATOM     84  H42 non d ame     -30.805  13.379  21.168  0.00  0.00     0.280 HD
ATOM     85  H43 non d ame     -29.093  13.705  21.322  0.00  0.00     0.280 HD
ATOM     86  H44 non d ame     -29.355  14.123  23.768  0.00  0.00     0.129 H 
ATOM     87  H37 non d ame     -29.914  15.630  24.020  0.00  0.00     0.046 H 
BRANCH  83  88
ATOM     88  O6  non d ame     -31.079  13.090  23.623  0.00  0.00    -0.369 OA
ATOM     89  H45 non d ame     -30.912  12.271  23.151  0.00  0.00     0.212 HD
ENDBRANCH  83  88
ENDBRANCH  72  75
ENDBRANCH  47  72
ENDBRANCH  45  47
ENDBRANCH   1  43
BRANCH   1  90
ATOM     90  C16 non d ame     -31.887  11.759  28.505  0.00  0.00    -0.035 C 
ATOM     91  H21 non d ame     -32.338  10.785  28.318  0.00  0.00     0.037 H 
ATOM     92  H22 non d ame     -30.923  12.007  28.061  0.00  0.00     0.037 H 
BRANCH  90  93
ATOM     93  C17 non d ame     -31.702  11.869  30.052  0.00  0.00    -0.059 C 
ATOM     94  H23 non d ame     -31.031  11.069  30.362  0.00  0.00     0.038 H 
BRANCH  93  95
ATOM     95  C18 non d ame     -31.053  13.227  30.472  0.00  0.00    -0.073 C 
ATOM     96  H24 non d ame     -31.706  13.739  31.177  0.00  0.00     0.028 H 
ATOM     97  H25 non d ame     -30.088  13.037  30.943  0.00  0.00     0.028 H 
ATOM     98  H26 non d ame     -30.910  13.850  29.590  0.00  0.00     0.028 H 
ENDBRANCH  93  95
BRANCH  93  99
ATOM     99  C19 non d ame     -33.033  11.654  30.778  0.00  0.00    -0.073 C 
ATOM    100  H27 non d ame     -33.210  12.482  31.466  0.00  0.00     0.028 H 
ATOM    101  H28 non d ame     -33.842  11.610  30.049  0.00  0.00     0.028 H 
ATOM    102  H29 non d ame     -32.995  10.719  31.336  0.00  0.00     0.028 H 
ENDBRANCH  93  99
ENDBRANCH  90  93
ENDBRANCH   1  90
TORSDOF 26
ENDMDL
MODEL 13
REMARK VINA RESULT:      -6.4      2.754      7.476
REMARK  26 active torsions:
REMARK  status: ('A' for Active; 'I' for Inactive)
REMARK    1  A    between atoms: C2_2  and  C3_3 
REMARK    2  A    between atoms: C4_6  and  C5_7 
REMARK       I    between atoms: C5_7  and  N2_9 
REMARK    3  A    between atoms: N2_9  and  C6_10 
REMARK    4  A    between atoms: C6_10  and  C7_11 
REMARK    5  A    between atoms: C6_10  and  C8_13 
REMARK       I    between atoms: C7_11  and  N3_14 
REMARK    6  A    between atoms: N3_14  and  C9_15 
REMARK    7  A    between atoms: C9_15  and  C10_16 
REMARK    8  A    between atoms: C9_15  and  C11_18 
REMARK       I    between atoms: C10_16  and  N4_21 
REMARK    9  A    between atoms: C11_18  and  C12_19 
REMARK   10  A    between atoms: C11_18  and  C13_20 
REMARK   11  A    between atoms: N4_21  and  C14_22 
REMARK   12  A    between atoms: C14_22  and  C15_23 
REMARK   13  A    between atoms: C14_22  and  C16_25 
REMARK       I    between atoms: C15_23  and  N6_40 
REMARK   14  A    between atoms: C16_25  and  C17_26 
REMARK   15  A    between atoms: C17_26  and  C18_27 
REMARK   16  A    between atoms: C17_26  and  C19_28 
REMARK   17  A    between atoms: C20_29  and  C21_30 
REMARK   18  A    between atoms: C20_29  and  C24_33 
REMARK   19  A    between atoms: C20_29  and  N6_40 
REMARK   20  A    between atoms: C21_30  and  C22_31 
REMARK   21  A    between atoms: C22_31  and  C23_32 
REMARK   22  A    between atoms: C23_32  and  O8_43 
REMARK   23  A    between atoms: C24_33  and  C25_34 
REMARK   24  A    between atoms: C28_38  and  O6_39 
REMARK   25  A    between atoms: C29_42  and  O8_43 
REMARK   26  A    between atoms: C29_42  and  C35_49 
ROOT
ATOM      1  C14 non d ame     -36.078  13.223  26.065  0.00  0.00     0.089 C 
ATOM      2  H20 non d ame     -36.842  13.056  26.824  0.00  0.00     0.087 H 
ENDROOT
BRANCH   1   3
ATOM      3  N4  non d ame     -35.814  14.653  26.016  0.00  0.00    -0.346 N 
ATOM      4  C10 non d ame     -36.838  15.635  26.528  0.00  0.00     0.241 C 
ATOM      5  O4  non d ame     -37.869  15.250  26.972  0.00  0.00    -0.271 OA
ATOM      6  H19 non d ame     -34.931  14.961  25.633  0.00  0.00     0.163 HD
BRANCH   4   7
ATOM      7  C9  non d ame     -36.545  17.111  26.475  0.00  0.00     0.092 C 
ATOM      8  H11 non d ame     -36.782  17.559  27.441  0.00  0.00     0.088 H 
BRANCH   7   9
ATOM      9  N3  non d ame     -35.113  17.318  26.242  0.00  0.00    -0.346 N 
ATOM     10  C7  non d ame     -34.238  17.615  27.349  0.00  0.00     0.240 C 
ATOM     11  O3  non d ame     -34.670  17.693  28.434  0.00  0.00    -0.271 OA
ATOM     12  H10 non d ame     -34.726  17.256  25.311  0.00  0.00     0.163 HD
BRANCH  10  13
ATOM     13  C6  non d ame     -32.715  17.837  27.094  0.00  0.00     0.086 C 
ATOM     14  H6  non d ame     -32.086  17.324  27.821  0.00  0.00     0.086 H 
BRANCH  13  15
ATOM     15  N2  non d ame     -32.371  17.294  25.790  0.00  0.00    -0.343 N 
ATOM     16  C5  non d ame     -31.728  15.982  25.703  0.00  0.00     0.273 C 
ATOM     17  O2  non d ame     -31.489  15.372  26.686  0.00  0.00    -0.266 OA
ATOM     18  H5  non d ame     -32.577  17.824  24.955  0.00  0.00     0.163 HD
BRANCH  16  19
ATOM     19  C4  non d ame     -31.361  15.395  24.331  0.00  0.00     0.154 A 
ATOM     20  C1  non d ame     -31.329  16.083  23.076  0.00  0.00    -0.017 A 
ATOM     21  C2  non d ame     -30.933  15.105  22.136  0.00  0.00     0.077 A 
ATOM     22  H1  non d ame     -31.557  17.130  22.879  0.00  0.00     0.091 H 
ATOM     23  O1  non d ame     -30.760  13.991  22.785  0.00  0.00    -0.218 OA
ATOM     24  N1  non d ame     -31.004  14.135  24.067  0.00  0.00    -0.123 NA
BRANCH  21  25
ATOM     25  C3  non d ame     -30.744  15.318  20.640  0.00  0.00    -0.029 C 
ATOM     26  H2  non d ame     -31.691  15.150  20.126  0.00  0.00     0.036 H 
ATOM     27  H3  non d ame     -30.409  16.339  20.458  0.00  0.00     0.036 H 
ATOM     28  H4  non d ame     -29.998  14.619  20.264  0.00  0.00     0.036 H 
ENDBRANCH  21  25
ENDBRANCH  16  19
ENDBRANCH  13  15
BRANCH  13  29
ATOM     29  C8  non d ame     -32.405  19.312  27.137  0.00  0.00    -0.049 C 
ATOM     30  H7  non d ame     -31.634  19.543  26.402  0.00  0.00     0.030 H 
ATOM     31  H8  non d ame     -33.307  19.879  26.908  0.00  0.00     0.030 H 
ATOM     32  H9  non d ame     -32.050  19.580  28.133  0.00  0.00     0.030 H 
ENDBRANCH  13  29
ENDBRANCH  10  13
ENDBRANCH   7   9
BRANCH   7  33
ATOM     33  C11 non d ame     -37.356  17.760  25.315  0.00  0.00    -0.033 C 
ATOM     34  H12 non d ame     -38.380  17.895  25.664  0.00  0.00     0.042 H 
BRANCH  33  35
ATOM     35  C12 non d ame     -36.796  19.169  24.948  0.00  0.00    -0.071 C 
ATOM     36  H13 non d ame     -36.633  19.744  25.860  0.00  0.00     0.028 H 
ATOM     37  H14 non d ame     -35.852  19.057  24.416  0.00  0.00     0.028 H 
ATOM     38  H15 non d ame     -37.512  19.691  24.313  0.00  0.00     0.028 H 
ENDBRANCH  33  35
BRANCH  33  39
ATOM     39  C13 non d ame     -37.392  16.822  24.066  0.00  0.00    -0.071 C 
ATOM     40  H16 non d ame     -37.598  17.413  23.173  0.00  0.00     0.028 H 
ATOM     41  H17 non d ame     -36.428  16.324  23.957  0.00  0.00     0.028 H 
ATOM     42  H18 non d ame     -38.174  16.073  24.196  0.00  0.00     0.028 H 
ENDBRANCH  33  39
ENDBRANCH   7  33
ENDBRANCH   4   7
ENDBRANCH   1   3
BRANCH   1  43
ATOM     43  C15 non d ame     -34.750  12.485  26.397  0.00  0.00     0.240 C 
ATOM     44  O5  non d ame     -33.708  13.006  26.158  0.00  0.00    -0.271 OA
ATOM     45  N6  non d ame     -34.775  11.131  27.021  0.00  0.00    -0.355 N 
ATOM     46  H46 non d ame     -35.654  10.681  27.233  0.00  0.00     0.162 HD
BRANCH  45  47
ATOM     47  C20 non d ame     -33.504  10.443  27.332  0.00  0.00     0.013 C 
ATOM     48  H30 non d ame     -32.687  11.066  26.966  0.00  0.00     0.072 H 
BRANCH  47  49
ATOM     49  C21 non d ame     -33.480   9.100  26.637  0.00  0.00    -0.038 C 
ATOM     50  H31 non d ame     -34.489   8.700  26.735  0.00  0.00     0.036 H 
ATOM     51  H32 non d ame     -33.061   9.288  25.648  0.00  0.00     0.036 H 
BRANCH  49  52
ATOM     52  C22 non d ame     -32.539   8.087  27.324  0.00  0.00     0.018 C 
ATOM     53  H33 non d ame     -31.527   8.436  27.117  0.00  0.00     0.048 H 
ATOM     54  H34 non d ame     -32.889   8.010  28.354  0.00  0.00     0.048 H 
BRANCH  52  55
ATOM     55  C23 non d ame     -32.625   6.652  26.734  0.00  0.00     0.259 C 
ATOM     56  O7  non d ame     -31.822   6.275  25.944  0.00  0.00    -0.265 OA
BRANCH  55  57
ATOM     57  O8  non d ame     -33.686   5.795  27.140  0.00  0.00    -0.317 OA
BRANCH  57  58
ATOM     58  C29 non d ame     -33.252   4.523  27.628  0.00  0.00     0.052 C 
ATOM     59  H47 non d ame     -33.926   3.791  27.184  0.00  0.00     0.082 H 
ATOM     60  H48 non d ame     -32.183   4.476  27.420  0.00  0.00     0.082 H 
BRANCH  58  61
ATOM     61  C35 non d ame     -33.453   4.506  29.167  0.00  0.00    -0.034 A 
ATOM     62  C30 non d ame     -34.499   5.222  29.740  0.00  0.00    -0.075 A 
ATOM     63  C31 non d ame     -34.680   5.208  31.123  0.00  0.00    -0.082 A 
ATOM     64  H49 non d ame     -35.177   5.795  29.107  0.00  0.00     0.084 H 
ATOM     65  C32 non d ame     -33.809   4.475  31.933  0.00  0.00    -0.083 A 
ATOM     66  H50 non d ame     -35.502   5.768  31.569  0.00  0.00     0.083 H 
ATOM     67  C33 non d ame     -32.764   3.765  31.357  0.00  0.00    -0.082 A 
ATOM     68  H51 non d ame     -33.943   4.458  33.014  0.00  0.00     0.083 H 
ATOM     69  C34 non d ame     -32.581   3.775  29.976  0.00  0.00    -0.075 A 
ATOM     70  H52 non d ame     -32.084   3.197  31.992  0.00  0.00     0.083 H 
ATOM     71  H53 non d ame     -31.759   3.214  29.530  0.00  0.00     0.084 H 
ENDBRANCH  58  61
ENDBRANCH  57  58
ENDBRANCH  55  57
ENDBRANCH  52  55
ENDBRANCH  49  52
ENDBRANCH  47  49
BRANCH  47  72
ATOM     72  C24 non d ame     -33.382  10.239  28.840  0.00  0.00    -0.039 C 
ATOM     73  H35 non d ame     -34.391  10.013  29.185  0.00  0.00     0.036 H 
ATOM     74  H36 non d ame     -32.585   9.507  28.971  0.00  0.00     0.036 H 
BRANCH  72  75
ATOM     75  C25 non d ame     -32.919  11.580  29.584  0.00  0.00    -0.001 C 
ATOM     76  C26 non d ame     -31.497  12.110  28.950  0.00  0.00    -0.035 C 
ATOM     77  C27 non d ame     -30.621  12.324  29.961  0.00  0.00     0.085 C 
ATOM     78  H38 non d ame     -31.027  11.315  28.370  0.00  0.00     0.036 H 
ATOM     79  H39 non d ame     -31.628  13.100  28.512  0.00  0.00     0.036 H 
ATOM     80  N5  non d ame     -31.205  11.680  31.195  0.00  0.00    -0.049 N 
ATOM     81  H40 non d ame     -29.713  11.792  29.677  0.00  0.00     0.075 H 
ATOM     82  H41 non d ame     -30.598  13.405  30.101  0.00  0.00     0.075 H 
ATOM     83  C28 non d ame     -32.753  11.380  30.849  0.00  0.00     0.193 C 
ATOM     84  H42 non d ame     -30.725  10.799  31.312  0.00  0.00     0.280 HD
ATOM     85  H43 non d ame     -31.168  12.377  31.925  0.00  0.00     0.280 HD
ATOM     86  H44 non d ame     -33.544  12.012  31.255  0.00  0.00     0.129 H 
ATOM     87  H37 non d ame     -33.727  12.308  29.665  0.00  0.00     0.046 H 
BRANCH  83  88
ATOM     88  O6  non d ame     -33.094  10.047  31.233  0.00  0.00    -0.369 OA
ATOM     89  H45 non d ame     -34.049   9.970  31.307  0.00  0.00     0.212 HD
ENDBRANCH  83  88
ENDBRANCH  72  75
ENDBRANCH  47  72
ENDBRANCH  45  47
ENDBRANCH   1  43
BRANCH   1  90
ATOM     90  C16 non d ame     -36.591  12.767  24.709  0.00  0.00    -0.035 C 
ATOM     91  H21 non d ame     -36.354  13.579  24.022  0.00  0.00     0.037 H 
ATOM     92  H22 non d ame     -36.158  11.779  24.554  0.00  0.00     0.037 H 
BRANCH  90  93
ATOM     93  C17 non d ame     -38.141  12.583  24.655  0.00  0.00    -0.059 C 
ATOM     94  H23 non d ame     -38.591  13.575  24.614  0.00  0.00     0.038 H 
BRANCH  93  95
ATOM     95  C18 non d ame     -38.598  11.801  23.382  0.00  0.00    -0.073 C 
ATOM     96  H24 non d ame     -39.341  11.054  23.661  0.00  0.00     0.028 H 
ATOM     97  H25 non d ame     -39.035  12.496  22.665  0.00  0.00     0.028 H 
ATOM     98  H26 non d ame     -37.738  11.307  22.931  0.00  0.00     0.028 H 
ENDBRANCH  93  95
BRANCH  93  99
ATOM     99  C19 non d ame     -38.656  11.903  25.926  0.00  0.00    -0.073 C 
ATOM    100  H27 non d ame     -37.887  11.235  26.318  0.00  0.00     0.028 H 
ATOM    101  H28 non d ame     -38.894  12.660  26.673  0.00  0.00     0.028 H 
ATOM    102  H29 non d ame     -39.552  11.328  25.693  0.00  0.00     0.028 H 
ENDBRANCH  93  99
ENDBRANCH  90  93
ENDBRANCH   1  90
TORSDOF 26
ENDMDL
MODEL 14
REMARK VINA RESULT:      -6.4      1.769      5.219
REMARK  26 active torsions:
REMARK  status: ('A' for Active; 'I' for Inactive)
REMARK    1  A    between atoms: C2_2  and  C3_3 
REMARK    2  A    between atoms: C4_6  and  C5_7 
REMARK       I    between atoms: C5_7  and  N2_9 
REMARK    3  A    between atoms: N2_9  and  C6_10 
REMARK    4  A    between atoms: C6_10  and  C7_11 
REMARK    5  A    between atoms: C6_10  and  C8_13 
REMARK       I    between atoms: C7_11  and  N3_14 
REMARK    6  A    between atoms: N3_14  and  C9_15 
REMARK    7  A    between atoms: C9_15  and  C10_16 
REMARK    8  A    between atoms: C9_15  and  C11_18 
REMARK       I    between atoms: C10_16  and  N4_21 
REMARK    9  A    between atoms: C11_18  and  C12_19 
REMARK   10  A    between atoms: C11_18  and  C13_20 
REMARK   11  A    between atoms: N4_21  and  C14_22 
REMARK   12  A    between atoms: C14_22  and  C15_23 
REMARK   13  A    between atoms: C14_22  and  C16_25 
REMARK       I    between atoms: C15_23  and  N6_40 
REMARK   14  A    between atoms: C16_25  and  C17_26 
REMARK   15  A    between atoms: C17_26  and  C18_27 
REMARK   16  A    between atoms: C17_26  and  C19_28 
REMARK   17  A    between atoms: C20_29  and  C21_30 
REMARK   18  A    between atoms: C20_29  and  C24_33 
REMARK   19  A    between atoms: C20_29  and  N6_40 
REMARK   20  A    between atoms: C21_30  and  C22_31 
REMARK   21  A    between atoms: C22_31  and  C23_32 
REMARK   22  A    between atoms: C23_32  and  O8_43 
REMARK   23  A    between atoms: C24_33  and  C25_34 
REMARK   24  A    between atoms: C28_38  and  O6_39 
REMARK   25  A    between atoms: C29_42  and  O8_43 
REMARK   26  A    between atoms: C29_42  and  C35_49 
ROOT
ATOM      1  C14 non d ame     -32.216   9.194  23.943  0.00  0.00     0.089 C 
ATOM      2  H20 non d ame     -31.749   8.326  24.410  0.00  0.00     0.087 H 
ENDROOT
BRANCH   1   3
ATOM      3  N4  non d ame     -33.518   9.380  24.567  0.00  0.00    -0.346 N 
ATOM      4  C10 non d ame     -33.742   8.967  26.000  0.00  0.00     0.241 C 
ATOM      5  O4  non d ame     -32.859   8.484  26.630  0.00  0.00    -0.271 OA
ATOM      6  H19 non d ame     -34.256   9.790  24.013  0.00  0.00     0.163 HD
BRANCH   4   7
ATOM      7  C9  non d ame     -35.094   9.171  26.631  0.00  0.00     0.092 C 
ATOM      8  H11 non d ame     -34.971   9.302  27.706  0.00  0.00     0.088 H 
BRANCH   7   9
ATOM      9  N3  non d ame     -35.695  10.403  26.111  0.00  0.00    -0.346 N 
ATOM     10  C7  non d ame     -35.692  11.601  26.913  0.00  0.00     0.240 C 
ATOM     11  O3  non d ame     -35.211  11.592  27.980  0.00  0.00    -0.271 OA
ATOM     12  H10 non d ame     -36.115  10.425  25.193  0.00  0.00     0.163 HD
BRANCH  10  13
ATOM     13  C6  non d ame     -36.336  12.908  26.355  0.00  0.00     0.086 C 
ATOM     14  H6  non d ame     -37.298  13.133  26.815  0.00  0.00     0.086 H 
BRANCH  13  15
ATOM     15  N2  non d ame     -35.461  14.029  26.652  0.00  0.00    -0.343 N 
ATOM     16  C5  non d ame     -36.044  15.331  26.985  0.00  0.00     0.273 C 
ATOM     17  O2  non d ame     -37.218  15.466  27.008  0.00  0.00    -0.266 OA
ATOM     18  H5  non d ame     -34.459  13.905  26.628  0.00  0.00     0.163 HD
BRANCH  16  19
ATOM     19  C4  non d ame     -35.130  16.525  27.303  0.00  0.00     0.154 A 
ATOM     20  C1  non d ame     -34.077  17.049  26.488  0.00  0.00    -0.017 A 
ATOM     21  C2  non d ame     -33.553  18.135  27.224  0.00  0.00     0.077 A 
ATOM     22  H1  non d ame     -33.744  16.696  25.511  0.00  0.00     0.091 H 
ATOM     23  O1  non d ame     -34.234  18.217  28.330  0.00  0.00    -0.218 OA
ATOM     24  N1  non d ame     -35.159  17.288  28.399  0.00  0.00    -0.123 NA
BRANCH  21  25
ATOM     25  C3  non d ame     -32.405  19.041  26.801  0.00  0.00    -0.029 C 
ATOM     26  H2  non d ame     -31.505  18.444  26.654  0.00  0.00     0.036 H 
ATOM     27  H3  non d ame     -32.664  19.543  25.869  0.00  0.00     0.036 H 
ATOM     28  H4  non d ame     -32.225  19.786  27.576  0.00  0.00     0.036 H 
ENDBRANCH  21  25
ENDBRANCH  16  19
ENDBRANCH  13  15
BRANCH  13  29
ATOM     29  C8  non d ame     -36.526  12.781  24.865  0.00  0.00    -0.049 C 
ATOM     30  H7  non d ame     -36.127  13.667  24.371  0.00  0.00     0.030 H 
ATOM     31  H8  non d ame     -36.000  11.897  24.506  0.00  0.00     0.030 H 
ATOM     32  H9  non d ame     -37.589  12.688  24.640  0.00  0.00     0.030 H 
ENDBRANCH  13  29
ENDBRANCH  10  13
ENDBRANCH   7   9
BRANCH   7  33
ATOM     33  C11 non d ame     -36.014   7.963  26.289  0.00  0.00    -0.033 C 
ATOM     34  H12 non d ame     -35.673   7.549  25.339  0.00  0.00     0.042 H 
BRANCH  33  35
ATOM     35  C12 non d ame     -35.894   6.836  27.361  0.00  0.00    -0.071 C 
ATOM     36  H13 non d ame     -36.666   6.086  27.188  0.00  0.00     0.028 H 
ATOM     37  H14 non d ame     -34.912   6.369  27.290  0.00  0.00     0.028 H 
ATOM     38  H15 non d ame     -36.022   7.265  28.355  0.00  0.00     0.028 H 
ENDBRANCH  33  35
BRANCH  33  39
ATOM     39  C13 non d ame     -37.497   8.422  26.112  0.00  0.00    -0.071 C 
ATOM     40  H16 non d ame     -37.531   9.505  25.997  0.00  0.00     0.028 H 
ATOM     41  H17 non d ame     -37.921   7.948  25.225  0.00  0.00     0.028 H 
ATOM     42  H18 non d ame     -38.074   8.130  26.989  0.00  0.00     0.028 H 
ENDBRANCH  33  39
ENDBRANCH   7  33
ENDBRANCH   4   7
ENDBRANCH   1   3
BRANCH   1  43
ATOM     43  C15 non d ame     -31.380  10.491  24.146  0.00  0.00     0.240 C 
ATOM     44  O5  non d ame     -30.223  10.497  23.874  0.00  0.00    -0.271 OA
ATOM     45  N6  non d ame     -32.024  11.727  24.673  0.00  0.00    -0.355 N 
ATOM     46  H46 non d ame     -33.007  11.736  24.904  0.00  0.00     0.162 HD
BRANCH  45  47
ATOM     47  C20 non d ame     -31.216  12.952  24.859  0.00  0.00     0.013 C 
ATOM     48  H30 non d ame     -30.247  12.789  24.389  0.00  0.00     0.072 H 
BRANCH  47  49
ATOM     49  C21 non d ame     -31.037  13.213  26.338  0.00  0.00    -0.038 C 
ATOM     50  H31 non d ame     -29.975  13.068  26.536  0.00  0.00     0.036 H 
ATOM     51  H32 non d ame     -31.499  14.182  26.524  0.00  0.00     0.036 H 
BRANCH  49  52
ATOM     52  C22 non d ame     -31.789  12.194  27.221  0.00  0.00     0.018 C 
ATOM     53  H33 non d ame     -32.846  12.439  27.121  0.00  0.00     0.048 H 
ATOM     54  H34 non d ame     -31.426  11.212  26.914  0.00  0.00     0.048 H 
BRANCH  52  55
ATOM     55  C23 non d ame     -31.462  12.317  28.735  0.00  0.00     0.259 C 
ATOM     56  O7  non d ame     -30.334  12.353  29.108  0.00  0.00    -0.265 OA
BRANCH  55  57
ATOM     57  O8  non d ame     -32.528  12.372  29.676  0.00  0.00    -0.317 OA
BRANCH  57  58
ATOM     58  C29 non d ame     -32.327  11.555  30.832  0.00  0.00     0.052 C 
ATOM     59  H47 non d ame     -31.484  10.907  30.593  0.00  0.00     0.082 H 
ATOM     60  H48 non d ame     -32.262  12.245  31.673  0.00  0.00     0.082 H 
BRANCH  58  61
ATOM     61  C35 non d ame     -33.589  10.671  31.020  0.00  0.00    -0.034 A 
ATOM     62  C30 non d ame     -33.775   9.545  30.224  0.00  0.00    -0.075 A 
ATOM     63  C31 non d ame     -34.909   8.752  30.392  0.00  0.00    -0.082 A 
ATOM     64  H49 non d ame     -33.034   9.285  29.469  0.00  0.00     0.084 H 
ATOM     65  C32 non d ame     -35.860   9.089  31.358  0.00  0.00    -0.083 A 
ATOM     66  H50 non d ame     -35.051   7.869  29.768  0.00  0.00     0.083 H 
ATOM     67  C33 non d ame     -35.672  10.215  32.148  0.00  0.00    -0.082 A 
ATOM     68  H51 non d ame     -36.749   8.473  31.496  0.00  0.00     0.083 H 
ATOM     69  C34 non d ame     -34.539  11.010  31.985  0.00  0.00    -0.075 A 
ATOM     70  H52 non d ame     -36.417  10.477  32.899  0.00  0.00     0.083 H 
ATOM     71  H53 non d ame     -34.398  11.893  32.609  0.00  0.00     0.084 H 
ENDBRANCH  58  61
ENDBRANCH  57  58
ENDBRANCH  55  57
ENDBRANCH  52  55
ENDBRANCH  49  52
ENDBRANCH  47  49
BRANCH  47  72
ATOM     72  C24 non d ame     -31.925  14.141  24.214  0.00  0.00    -0.039 C 
ATOM     73  H35 non d ame     -32.853  13.740  23.806  0.00  0.00     0.036 H 
ATOM     74  H36 non d ame     -31.957  14.912  24.984  0.00  0.00     0.036 H 
BRANCH  72  75
ATOM     75  C25 non d ame     -31.087  14.735  22.985  0.00  0.00    -0.001 C 
ATOM     76  C26 non d ame     -30.040  13.600  22.420  0.00  0.00    -0.035 C 
ATOM     77  C27 non d ame     -28.801  14.144  22.352  0.00  0.00     0.085 C 
ATOM     78  H38 non d ame     -29.927  12.800  23.151  0.00  0.00     0.036 H 
ATOM     79  H39 non d ame     -30.271  13.361  21.382  0.00  0.00     0.036 H 
ATOM     80  N5  non d ame     -28.845  15.440  23.124  0.00  0.00    -0.049 N 
ATOM     81  H40 non d ame     -28.147  13.443  22.870  0.00  0.00     0.075 H 
ATOM     82  H41 non d ame     -28.638  14.364  21.298  0.00  0.00     0.075 H 
ATOM     83  C28 non d ame     -30.410  15.776  23.340  0.00  0.00     0.193 C 
ATOM     84  H42 non d ame     -28.430  15.251  24.025  0.00  0.00     0.280 HD
ATOM     85  H43 non d ame     -28.445  16.145  22.522  0.00  0.00     0.280 HD
ATOM     86  H44 non d ame     -30.899  16.544  22.741  0.00  0.00     0.129 H 
ATOM     87  H37 non d ame     -31.724  15.231  22.252  0.00  0.00     0.046 H 
BRANCH  83  88
ATOM     88  O6  non d ame     -30.653  16.139  24.700  0.00  0.00    -0.369 OA
ATOM     89  H45 non d ame     -30.488  15.382  25.268  0.00  0.00     0.212 HD
ENDBRANCH  83  88
ENDBRANCH  72  75
ENDBRANCH  47  72
ENDBRANCH  45  47
ENDBRANCH   1  43
BRANCH   1  90
ATOM     90  C16 non d ame     -32.410   8.939  22.457  0.00  0.00    -0.035 C 
ATOM     91  H21 non d ame     -33.466   8.700  22.341  0.00  0.00     0.037 H 
ATOM     92  H22 non d ame     -31.989   9.811  21.957  0.00  0.00     0.037 H 
BRANCH  90  93
ATOM     93  C17 non d ame     -31.618   7.701  21.926  0.00  0.00    -0.059 C 
ATOM     94  H23 non d ame     -30.713   8.070  21.442  0.00  0.00     0.038 H 
BRANCH  93  95
ATOM     95  C18 non d ame     -31.184   6.740  23.079  0.00  0.00    -0.073 C 
ATOM     96  H24 non d ame     -31.674   5.776  22.951  0.00  0.00     0.028 H 
ATOM     97  H25 non d ame     -30.103   6.604  23.051  0.00  0.00     0.028 H 
ATOM     98  H26 non d ame     -31.471   7.170  24.038  0.00  0.00     0.028 H 
ENDBRANCH  93  95
BRANCH  93  99
ATOM     99  C19 non d ame     -32.426   6.950  20.865  0.00  0.00    -0.073 C 
ATOM    100  H27 non d ame     -33.379   7.455  20.708  0.00  0.00     0.028 H 
ATOM    101  H28 non d ame     -31.868   6.929  19.929  0.00  0.00     0.028 H 
ATOM    102  H29 non d ame     -32.607   5.929  21.201  0.00  0.00     0.028 H 
ENDBRANCH  93  99
ENDBRANCH  90  93
ENDBRANCH   1  90
TORSDOF 26
ENDMDL
MODEL 15
REMARK VINA RESULT:      -6.4      2.580      8.292
REMARK  26 active torsions:
REMARK  status: ('A' for Active; 'I' for Inactive)
REMARK    1  A    between atoms: C2_2  and  C3_3 
REMARK    2  A    between atoms: C4_6  and  C5_7 
REMARK       I    between atoms: C5_7  and  N2_9 
REMARK    3  A    between atoms: N2_9  and  C6_10 
REMARK    4  A    between atoms: C6_10  and  C7_11 
REMARK    5  A    between atoms: C6_10  and  C8_13 
REMARK       I    between atoms: C7_11  and  N3_14 
REMARK    6  A    between atoms: N3_14  and  C9_15 
REMARK    7  A    between atoms: C9_15  and  C10_16 
REMARK    8  A    between atoms: C9_15  and  C11_18 
REMARK       I    between atoms: C10_16  and  N4_21 
REMARK    9  A    between atoms: C11_18  and  C12_19 
REMARK   10  A    between atoms: C11_18  and  C13_20 
REMARK   11  A    between atoms: N4_21  and  C14_22 
REMARK   12  A    between atoms: C14_22  and  C15_23 
REMARK   13  A    between atoms: C14_22  and  C16_25 
REMARK       I    between atoms: C15_23  and  N6_40 
REMARK   14  A    between atoms: C16_25  and  C17_26 
REMARK   15  A    between atoms: C17_26  and  C18_27 
REMARK   16  A    between atoms: C17_26  and  C19_28 
REMARK   17  A    between atoms: C20_29  and  C21_30 
REMARK   18  A    between atoms: C20_29  and  C24_33 
REMARK   19  A    between atoms: C20_29  and  N6_40 
REMARK   20  A    between atoms: C21_30  and  C22_31 
REMARK   21  A    between atoms: C22_31  and  C23_32 
REMARK   22  A    between atoms: C23_32  and  O8_43 
REMARK   23  A    between atoms: C24_33  and  C25_34 
REMARK   24  A    between atoms: C28_38  and  O6_39 
REMARK   25  A    between atoms: C29_42  and  O8_43 
REMARK   26  A    between atoms: C29_42  and  C35_49 
ROOT
ATOM      1  C14 non d ame     -36.183  10.329  31.295  0.00  0.00     0.089 C 
ATOM      2  H20 non d ame     -36.794  11.083  31.793  0.00  0.00     0.087 H 
ENDROOT
BRANCH   1   3
ATOM      3  N4  non d ame     -36.625  10.251  29.911  0.00  0.00    -0.346 N 
ATOM      4  C10 non d ame     -37.971  10.801  29.509  0.00  0.00     0.241 C 
ATOM      5  O4  non d ame     -38.682  11.299  30.318  0.00  0.00    -0.271 OA
ATOM      6  H19 non d ame     -36.007   9.821  29.238  0.00  0.00     0.163 HD
BRANCH   4   7
ATOM      7  C9  non d ame     -38.410  10.717  28.071  0.00  0.00     0.092 C 
ATOM      8  H11 non d ame     -39.319  11.304  27.938  0.00  0.00     0.088 H 
BRANCH   7   9
ATOM      9  N3  non d ame     -37.382  11.310  27.210  0.00  0.00    -0.346 N 
ATOM     10  C7  non d ame     -37.480  12.696  26.821  0.00  0.00     0.240 C 
ATOM     11  O3  non d ame     -38.380  13.347  27.190  0.00  0.00    -0.271 OA
ATOM     12  H10 non d ame     -36.601  10.761  26.882  0.00  0.00     0.163 HD
BRANCH  10  13
ATOM     13  C6  non d ame     -36.384  13.321  25.902  0.00  0.00     0.086 C 
ATOM     14  H6  non d ame     -36.799  13.788  25.010  0.00  0.00     0.086 H 
BRANCH  13  15
ATOM     15  N2  non d ame     -35.694  14.368  26.637  0.00  0.00    -0.343 N 
ATOM     16  C5  non d ame     -35.621  15.717  26.073  0.00  0.00     0.273 C 
ATOM     17  O2  non d ame     -36.118  15.950  25.027  0.00  0.00    -0.266 OA
ATOM     18  H5  non d ame     -35.269  14.159  27.530  0.00  0.00     0.163 HD
BRANCH  16  19
ATOM     19  C4  non d ame     -34.896  16.834  26.840  0.00  0.00     0.154 A 
ATOM     20  C1  non d ame     -33.876  17.705  26.340  0.00  0.00    -0.017 A 
ATOM     21  C2  non d ame     -33.546  18.541  27.430  0.00  0.00     0.077 A 
ATOM     22  H1  non d ame     -33.441  17.726  25.341  0.00  0.00     0.091 H 
ATOM     23  O1  non d ame     -34.295  18.186  28.432  0.00  0.00    -0.218 OA
ATOM     24  N1  non d ame     -35.091  17.191  28.112  0.00  0.00    -0.123 NA
BRANCH  21  25
ATOM     25  C3  non d ame     -32.507  19.654  27.430  0.00  0.00    -0.029 C 
ATOM     26  H2  non d ame     -32.790  20.416  26.704  0.00  0.00     0.036 H 
ATOM     27  H3  non d ame     -32.453  20.101  28.422  0.00  0.00     0.036 H 
ATOM     28  H4  non d ame     -31.533  19.243  27.163  0.00  0.00     0.036 H 
ENDBRANCH  21  25
ENDBRANCH  16  19
ENDBRANCH  13  15
BRANCH  13  29
ATOM     29  C8  non d ame     -35.406  12.253  25.484  0.00  0.00    -0.049 C 
ATOM     30  H7  non d ame     -35.936  11.467  24.945  0.00  0.00     0.030 H 
ATOM     31  H8  non d ame     -34.647  12.689  24.835  0.00  0.00     0.030 H 
ATOM     32  H9  non d ame     -34.929  11.830  26.368  0.00  0.00     0.030 H 
ENDBRANCH  13  29
ENDBRANCH  10  13
ENDBRANCH   7   9
BRANCH   7  33
ATOM     33  C11 non d ame     -38.614   9.225  27.677  0.00  0.00    -0.033 C 
ATOM     34  H12 non d ame     -37.744   8.670  28.028  0.00  0.00     0.042 H 
BRANCH  33  35
ATOM     35  C12 non d ame     -39.870   8.619  28.377  0.00  0.00    -0.071 C 
ATOM     36  H13 non d ame     -39.651   7.601  28.700  0.00  0.00     0.028 H 
ATOM     37  H14 non d ame     -40.132   9.227  29.242  0.00  0.00     0.028 H 
ATOM     38  H15 non d ame     -40.705   8.605  27.676  0.00  0.00     0.028 H 
ENDBRANCH  33  35
BRANCH  33  39
ATOM     39  C13 non d ame     -38.696   9.062  26.125  0.00  0.00    -0.071 C 
ATOM     40  H16 non d ame     -39.353   8.227  25.882  0.00  0.00     0.028 H 
ATOM     41  H17 non d ame     -39.092   9.977  25.684  0.00  0.00     0.028 H 
ATOM     42  H18 non d ame     -37.700   8.869  25.727  0.00  0.00     0.028 H 
ENDBRANCH  33  39
ENDBRANCH   7  33
ENDBRANCH   4   7
ENDBRANCH   1   3
BRANCH   1  43
ATOM     43  C15 non d ame     -34.671  10.692  31.313  0.00  0.00     0.240 C 
ATOM     44  O5  non d ame     -34.060  10.630  32.330  0.00  0.00    -0.271 OA
ATOM     45  N6  non d ame     -33.982  11.110  30.058  0.00  0.00    -0.355 N 
ATOM     46  H46 non d ame     -34.490  11.161  29.187  0.00  0.00     0.162 HD
BRANCH  45  47
ATOM     47  C20 non d ame     -32.543  11.451  30.091  0.00  0.00     0.013 C 
ATOM     48  H30 non d ame     -32.095  10.933  30.939  0.00  0.00     0.072 H 
BRANCH  47  49
ATOM     49  C21 non d ame     -32.388  12.945  30.258  0.00  0.00    -0.038 C 
ATOM     50  H31 non d ame     -32.926  13.197  31.172  0.00  0.00     0.036 H 
ATOM     51  H32 non d ame     -31.318  13.140  30.185  0.00  0.00     0.036 H 
BRANCH  49  52
ATOM     52  C22 non d ame     -33.057  13.748  29.122  0.00  0.00     0.018 C 
ATOM     53  H33 non d ame     -33.037  13.097  28.249  0.00  0.00     0.048 H 
ATOM     54  H34 non d ame     -34.011  14.091  29.524  0.00  0.00     0.048 H 
BRANCH  52  55
ATOM     55  C23 non d ame     -32.277  15.030  28.718  0.00  0.00     0.259 C 
ATOM     56  O7  non d ame     -32.149  15.926  29.488  0.00  0.00    -0.265 OA
BRANCH  55  57
ATOM     57  O8  non d ame     -31.728  15.128  27.409  0.00  0.00    -0.317 OA
BRANCH  57  58
ATOM     58  C29 non d ame     -32.119  14.068  26.533  0.00  0.00     0.052 C 
ATOM     59  H47 non d ame     -31.699  13.159  26.964  0.00  0.00     0.082 H 
ATOM     60  H48 non d ame     -33.197  14.166  26.413  0.00  0.00     0.082 H 
BRANCH  58  61
ATOM     61  C35 non d ame     -31.447  14.313  25.155  0.00  0.00    -0.034 A 
ATOM     62  C30 non d ame     -31.081  13.234  24.357  0.00  0.00    -0.075 A 
ATOM     63  C31 non d ame     -30.478  13.454  23.120  0.00  0.00    -0.082 A 
ATOM     64  H49 non d ame     -31.267  12.216  24.701  0.00  0.00     0.084 H 
ATOM     65  C32 non d ame     -30.238  14.759  22.682  0.00  0.00    -0.083 A 
ATOM     66  H50 non d ame     -30.193  12.606  22.496  0.00  0.00     0.083 H 
ATOM     67  C33 non d ame     -30.602  15.833  23.484  0.00  0.00    -0.082 A 
ATOM     68  H51 non d ame     -29.767  14.940  21.716  0.00  0.00     0.083 H 
ATOM     69  C34 non d ame     -31.207  15.617  24.720  0.00  0.00    -0.075 A 
ATOM     70  H52 non d ame     -30.411  16.850  23.141  0.00  0.00     0.083 H 
ATOM     71  H53 non d ame     -31.491  16.466  25.344  0.00  0.00     0.084 H 
ENDBRANCH  58  61
ENDBRANCH  57  58
ENDBRANCH  55  57
ENDBRANCH  52  55
ENDBRANCH  49  52
ENDBRANCH  47  49
BRANCH  47  72
ATOM     72  C24 non d ame     -31.878  11.011  28.788  0.00  0.00    -0.039 C 
ATOM     73  H35 non d ame     -31.599  11.934  28.280  0.00  0.00     0.036 H 
ATOM     74  H36 non d ame     -31.110  10.297  29.082  0.00  0.00     0.036 H 
BRANCH  72  75
ATOM     75  C25 non d ame     -32.904  10.237  27.832  0.00  0.00    -0.001 C 
ATOM     76  C26 non d ame     -33.249   8.757  28.462  0.00  0.00    -0.035 C 
ATOM     77  C27 non d ame     -33.056   7.819  27.504  0.00  0.00     0.085 C 
ATOM     78  H38 non d ame     -32.516   8.496  29.225  0.00  0.00     0.036 H 
ATOM     79  H39 non d ame     -34.314   8.683  28.680  0.00  0.00     0.036 H 
ATOM     80  N5  non d ame     -32.299   8.485  26.380  0.00  0.00    -0.049 N 
ATOM     81  H40 non d ame     -32.419   7.062  27.962  0.00  0.00     0.075 H 
ATOM     82  H41 non d ame     -34.052   7.553  27.152  0.00  0.00     0.075 H 
ATOM     83  C28 non d ame     -32.408  10.073  26.650  0.00  0.00     0.193 C 
ATOM     84  H42 non d ame     -31.333   8.207  26.481  0.00  0.00     0.280 HD
ATOM     85  H43 non d ame     -32.800   8.268  25.530  0.00  0.00     0.280 HD
ATOM     86  H44 non d ame     -33.089  10.689  26.063  0.00  0.00     0.129 H 
ATOM     87  H37 non d ame     -33.749  10.861  27.540  0.00  0.00     0.046 H 
BRANCH  83  88
ATOM     88  O6  non d ame     -31.125  10.686  26.515  0.00  0.00    -0.369 OA
ATOM     89  H45 non d ame     -30.951  10.863  25.587  0.00  0.00     0.212 HD
ENDBRANCH  83  88
ENDBRANCH  72  75
ENDBRANCH  47  72
ENDBRANCH  45  47
ENDBRANCH   1  43
BRANCH   1  90
ATOM     90  C16 non d ame     -36.392   8.977  31.959  0.00  0.00    -0.035 C 
ATOM     91  H21 non d ame     -35.512   8.823  32.583  0.00  0.00     0.037 H 
ATOM     92  H22 non d ame     -37.381   9.029  32.416  0.00  0.00     0.037 H 
BRANCH  90  93
ATOM     93  C17 non d ame     -36.433   7.784  30.952  0.00  0.00    -0.059 C 
ATOM     94  H23 non d ame     -36.395   8.200  29.946  0.00  0.00     0.038 H 
BRANCH  93  95
ATOM     95  C18 non d ame     -35.209   6.828  31.120  0.00  0.00    -0.073 C 
ATOM     96  H24 non d ame     -34.292   7.416  31.159  0.00  0.00     0.028 H 
ATOM     97  H25 non d ame     -35.315   6.261  32.045  0.00  0.00     0.028 H 
ATOM     98  H26 non d ame     -35.165   6.142  30.275  0.00  0.00     0.028 H 
ENDBRANCH  93  95
BRANCH  93  99
ATOM     99  C19 non d ame     -37.749   7.010  31.075  0.00  0.00    -0.073 C 
ATOM    100  H27 non d ame     -38.431   7.555  31.729  0.00  0.00     0.028 H 
ATOM    101  H28 non d ame     -38.200   6.902  30.089  0.00  0.00     0.028 H 
ATOM    102  H29 non d ame     -37.552   6.024  31.494  0.00  0.00     0.028 H 
ENDBRANCH  93  99
ENDBRANCH  90  93
ENDBRANCH   1  90
TORSDOF 26
ENDMDL
MODEL 16
REMARK VINA RESULT:      -6.3      3.546      9.332
REMARK  26 active torsions:
REMARK  status: ('A' for Active; 'I' for Inactive)
REMARK    1  A    between atoms: C2_2  and  C3_3 
REMARK    2  A    between atoms: C4_6  and  C5_7 
REMARK       I    between atoms: C5_7  and  N2_9 
REMARK    3  A    between atoms: N2_9  and  C6_10 
REMARK    4  A    between atoms: C6_10  and  C7_11 
REMARK    5  A    between atoms: C6_10  and  C8_13 
REMARK       I    between atoms: C7_11  and  N3_14 
REMARK    6  A    between atoms: N3_14  and  C9_15 
REMARK    7  A    between atoms: C9_15  and  C10_16 
REMARK    8  A    between atoms: C9_15  and  C11_18 
REMARK       I    between atoms: C10_16  and  N4_21 
REMARK    9  A    between atoms: C11_18  and  C12_19 
REMARK   10  A    between atoms: C11_18  and  C13_20 
REMARK   11  A    between atoms: N4_21  and  C14_22 
REMARK   12  A    between atoms: C14_22  and  C15_23 
REMARK   13  A    between atoms: C14_22  and  C16_25 
REMARK       I    between atoms: C15_23  and  N6_40 
REMARK   14  A    between atoms: C16_25  and  C17_26 
REMARK   15  A    between atoms: C17_26  and  C18_27 
REMARK   16  A    between atoms: C17_26  and  C19_28 
REMARK   17  A    between atoms: C20_29  and  C21_30 
REMARK   18  A    between atoms: C20_29  and  C24_33 
REMARK   19  A    between atoms: C20_29  and  N6_40 
REMARK   20  A    between atoms: C21_30  and  C22_31 
REMARK   21  A    between atoms: C22_31  and  C23_32 
REMARK   22  A    between atoms: C23_32  and  O8_43 
REMARK   23  A    between atoms: C24_33  and  C25_34 
REMARK   24  A    between atoms: C28_38  and  O6_39 
REMARK   25  A    between atoms: C29_42  and  O8_43 
REMARK   26  A    between atoms: C29_42  and  C35_49 
ROOT
ATOM      1  C14 non d ame     -33.919   5.722  26.830  0.00  0.00     0.089 C 
ATOM      2  H20 non d ame     -33.371   5.150  27.579  0.00  0.00     0.087 H 
ENDROOT
BRANCH   1   3
ATOM      3  N4  non d ame     -35.195   6.104  27.416  0.00  0.00    -0.346 N 
ATOM      4  C10 non d ame     -35.411   5.998  28.905  0.00  0.00     0.241 C 
ATOM      5  O4  non d ame     -34.544   5.600  29.610  0.00  0.00    -0.271 OA
ATOM      6  H19 non d ame     -35.921   6.437  26.798  0.00  0.00     0.163 HD
BRANCH   4   7
ATOM      7  C9  non d ame     -36.737   6.402  29.495  0.00  0.00     0.092 C 
ATOM      8  H11 non d ame     -36.817   6.000  30.505  0.00  0.00     0.088 H 
BRANCH   7   9
ATOM      9  N3  non d ame     -36.798   7.863  29.605  0.00  0.00    -0.346 N 
ATOM     10  C7  non d ame     -36.341   8.515  30.807  0.00  0.00     0.240 C 
ATOM     11  O3  non d ame     -35.922   7.879  31.697  0.00  0.00    -0.271 OA
ATOM     12  H10 non d ame     -37.158   8.424  28.846  0.00  0.00     0.163 HD
BRANCH  10  13
ATOM     13  C6  non d ame     -36.411  10.070  30.919  0.00  0.00     0.086 C 
ATOM     14  H6  non d ame     -36.503  10.414  31.949  0.00  0.00     0.086 H 
BRANCH  13  15
ATOM     15  N2  non d ame     -35.178  10.636  30.399  0.00  0.00    -0.343 N 
ATOM     16  C5  non d ame     -34.121  11.041  31.330  0.00  0.00     0.273 C 
ATOM     17  O2  non d ame     -34.275  10.910  32.494  0.00  0.00    -0.266 OA
ATOM     18  H5  non d ame     -35.056  10.747  29.403  0.00  0.00     0.163 HD
BRANCH  16  19
ATOM     19  C4  non d ame     -32.812  11.640  30.794  0.00  0.00     0.154 A 
ATOM     20  C1  non d ame     -32.670  12.724  29.871  0.00  0.00    -0.017 A 
ATOM     21  C2  non d ame     -31.276  12.883  29.707  0.00  0.00     0.077 A 
ATOM     22  H1  non d ame     -33.459  13.307  29.393  0.00  0.00     0.091 H 
ATOM     23  O1  non d ame     -30.694  11.991  30.454  0.00  0.00    -0.218 OA
ATOM     24  N1  non d ame     -31.569  11.253  31.098  0.00  0.00    -0.123 NA
BRANCH  21  25
ATOM     25  C3  non d ame     -30.584  13.910  28.821  0.00  0.00    -0.029 C 
ATOM     26  H2  non d ame     -30.141  13.409  27.961  0.00  0.00     0.036 H 
ATOM     27  H3  non d ame     -31.313  14.644  28.478  0.00  0.00     0.036 H 
ATOM     28  H4  non d ame     -29.803  14.414  29.391  0.00  0.00     0.036 H 
ENDBRANCH  21  25
ENDBRANCH  16  19
ENDBRANCH  13  15
BRANCH  13  29
ATOM     29  C8  non d ame     -37.588  10.580  30.128  0.00  0.00    -0.049 C 
ATOM     30  H7  non d ame     -37.798   9.896  29.306  0.00  0.00     0.030 H 
ATOM     31  H8  non d ame     -38.461  10.647  30.776  0.00  0.00     0.030 H 
ATOM     32  H9  non d ame     -37.356  11.568  29.728  0.00  0.00     0.030 H 
ENDBRANCH  13  29
ENDBRANCH  10  13
ENDBRANCH   7   9
BRANCH   7  33
ATOM     33  C11 non d ame     -37.888   5.905  28.573  0.00  0.00    -0.033 C 
ATOM     34  H12 non d ame     -37.450   5.649  27.608  0.00  0.00     0.042 H 
BRANCH  33  35
ATOM     35  C12 non d ame     -38.556   4.615  29.142  0.00  0.00    -0.071 C 
ATOM     36  H13 non d ame     -39.502   4.875  29.618  0.00  0.00     0.028 H 
ATOM     37  H14 non d ame     -38.739   3.912  28.330  0.00  0.00     0.028 H 
ATOM     38  H15 non d ame     -37.894   4.158  29.877  0.00  0.00     0.028 H 
ENDBRANCH  33  35
BRANCH  33  39
ATOM     39  C13 non d ame     -38.944   7.034  28.339  0.00  0.00    -0.071 C 
ATOM     40  H16 non d ame     -38.717   7.556  27.410  0.00  0.00     0.028 H 
ATOM     41  H17 non d ame     -39.939   6.592  28.275  0.00  0.00     0.028 H 
ATOM     42  H18 non d ame     -38.913   7.738  29.170  0.00  0.00     0.028 H 
ENDBRANCH  33  39
ENDBRANCH   7  33
ENDBRANCH   4   7
ENDBRANCH   1   3
BRANCH   1  43
ATOM     43  C15 non d ame     -33.162   7.014  26.407  0.00  0.00     0.240 C 
ATOM     44  O5  non d ame     -32.277   7.428  27.084  0.00  0.00    -0.271 OA
ATOM     45  N6  non d ame     -33.534   7.729  25.154  0.00  0.00    -0.355 N 
ATOM     46  H46 non d ame     -34.280   7.384  24.568  0.00  0.00     0.162 HD
BRANCH  45  47
ATOM     47  C20 non d ame     -32.804   8.955  24.765  0.00  0.00     0.013 C 
ATOM     48  H30 non d ame     -31.949   9.062  25.433  0.00  0.00     0.072 H 
BRANCH  47  49
ATOM     49  C21 non d ame     -33.721  10.149  24.905  0.00  0.00    -0.038 C 
ATOM     50  H31 non d ame     -33.576  10.740  24.001  0.00  0.00     0.036 H 
ATOM     51  H32 non d ame     -34.704   9.738  25.137  0.00  0.00     0.036 H 
BRANCH  49  52
ATOM     52  C22 non d ame     -33.339  11.063  26.090  0.00  0.00     0.018 C 
ATOM     53  H33 non d ame     -34.160  11.771  26.194  0.00  0.00     0.048 H 
ATOM     54  H34 non d ame     -33.090  10.392  26.912  0.00  0.00     0.048 H 
BRANCH  52  55
ATOM     55  C23 non d ame     -32.066  11.918  25.835  0.00  0.00     0.259 C 
ATOM     56  O7  non d ame     -31.005  11.551  26.225  0.00  0.00    -0.265 OA
BRANCH  55  57
ATOM     57  O8  non d ame     -32.185  13.154  25.141  0.00  0.00    -0.317 OA
BRANCH  57  58
ATOM     58  C29 non d ame     -30.986  13.934  25.133  0.00  0.00     0.052 C 
ATOM     59  H47 non d ame     -31.191  14.795  25.770  0.00  0.00     0.082 H 
ATOM     60  H48 non d ame     -30.183  13.245  25.392  0.00  0.00     0.082 H 
BRANCH  58  61
ATOM     61  C35 non d ame     -30.753  14.439  23.684  0.00  0.00    -0.034 A 
ATOM     62  C30 non d ame     -31.345  15.623  23.255  0.00  0.00    -0.075 A 
ATOM     63  C31 non d ame     -31.135  16.076  21.954  0.00  0.00    -0.082 A 
ATOM     64  H49 non d ame     -31.973  16.195  23.938  0.00  0.00     0.084 H 
ATOM     65  C32 non d ame     -30.332  15.339  21.079  0.00  0.00    -0.083 A 
ATOM     66  H50 non d ame     -31.600  17.005  21.621  0.00  0.00     0.083 H 
ATOM     67  C33 non d ame     -29.746  14.157  21.511  0.00  0.00    -0.082 A 
ATOM     68  H51 non d ame     -30.163  15.687  20.060  0.00  0.00     0.083 H 
ATOM     69  C34 non d ame     -29.951  13.701  22.811  0.00  0.00    -0.075 A 
ATOM     70  H52 non d ame     -29.122  13.583  20.825  0.00  0.00     0.083 H 
ATOM     71  H53 non d ame     -29.487  12.773  23.143  0.00  0.00     0.084 H 
ENDBRANCH  58  61
ENDBRANCH  57  58
ENDBRANCH  55  57
ENDBRANCH  52  55
ENDBRANCH  49  52
ENDBRANCH  47  49
BRANCH  47  72
ATOM     72  C24 non d ame     -32.335   8.840  23.316  0.00  0.00    -0.039 C 
ATOM     73  H35 non d ame     -32.816   7.942  22.926  0.00  0.00     0.036 H 
ATOM     74  H36 non d ame     -32.545   9.809  22.865  0.00  0.00     0.036 H 
BRANCH  72  75
ATOM     75  C25 non d ame     -30.753   8.607  23.222  0.00  0.00    -0.001 C 
ATOM     76  C26 non d ame     -29.972  10.054  23.233  0.00  0.00    -0.035 C 
ATOM     77  C27 non d ame     -29.115  10.096  22.185  0.00  0.00     0.085 C 
ATOM     78  H38 non d ame     -30.675  10.859  23.019  0.00  0.00     0.036 H 
ATOM     79  H39 non d ame     -29.316  10.119  24.101  0.00  0.00     0.036 H 
ATOM     80  N5  non d ame     -29.475   8.947  21.275  0.00  0.00    -0.049 N 
ATOM     81  H40 non d ame     -29.326  11.035  21.673  0.00  0.00     0.075 H 
ATOM     82  H41 non d ame     -28.128   9.917  22.609  0.00  0.00     0.075 H 
ATOM     83  C28 non d ame     -30.436   7.979  22.139  0.00  0.00     0.193 C 
ATOM     84  H42 non d ame     -30.013   9.340  20.516  0.00  0.00     0.280 HD
ATOM     85  H43 non d ame     -28.614   8.455  21.081  0.00  0.00     0.280 HD
ATOM     86  H44 non d ame     -30.054   7.047  22.555  0.00  0.00     0.129 H 
ATOM     87  H37 non d ame     -30.404   7.850  23.925  0.00  0.00     0.046 H 
BRANCH  83  88
ATOM     88  O6  non d ame     -31.585   7.614  21.372  0.00  0.00    -0.369 OA
ATOM     89  H45 non d ame     -31.316   7.396  20.477  0.00  0.00     0.212 HD
ENDBRANCH  83  88
ENDBRANCH  72  75
ENDBRANCH  47  72
ENDBRANCH  45  47
ENDBRANCH   1  43
BRANCH   1  90
ATOM     90  C16 non d ame     -34.174   4.856  25.607  0.00  0.00    -0.035 C 
ATOM     91  H21 non d ame     -35.102   5.230  25.177  0.00  0.00     0.037 H 
ATOM     92  H22 non d ame     -33.251   4.895  25.028  0.00  0.00     0.037 H 
BRANCH  90  93
ATOM     93  C17 non d ame     -34.420   3.351  25.945  0.00  0.00    -0.059 C 
ATOM     94  H23 non d ame     -35.486   3.224  26.133  0.00  0.00     0.038 H 
BRANCH  93  95
ATOM     95  C18 non d ame     -34.029   2.409  24.761  0.00  0.00    -0.073 C 
ATOM     96  H24 non d ame     -34.772   2.494  23.969  0.00  0.00     0.028 H 
ATOM     97  H25 non d ame     -33.052   2.698  24.374  0.00  0.00     0.028 H 
ATOM     98  H26 non d ame     -33.990   1.379  25.114  0.00  0.00     0.028 H 
ENDBRANCH  93  95
BRANCH  93  99
ATOM     99  C19 non d ame     -33.682   2.951  27.225  0.00  0.00    -0.073 C 
ATOM    100  H27 non d ame     -34.078   2.003  27.592  0.00  0.00     0.028 H 
ATOM    101  H28 non d ame     -32.618   2.842  27.013  0.00  0.00     0.028 H 
ATOM    102  H29 non d ame     -33.823   3.721  27.982  0.00  0.00     0.028 H 
ENDBRANCH  93  99
ENDBRANCH  90  93
ENDBRANCH   1  90
TORSDOF 26
ENDMDL
MODEL 17
REMARK VINA RESULT:      -6.3      3.693      8.544
REMARK  26 active torsions:
REMARK  status: ('A' for Active; 'I' for Inactive)
REMARK    1  A    between atoms: C2_2  and  C3_3 
REMARK    2  A    between atoms: C4_6  and  C5_7 
REMARK       I    between atoms: C5_7  and  N2_9 
REMARK    3  A    between atoms: N2_9  and  C6_10 
REMARK    4  A    between atoms: C6_10  and  C7_11 
REMARK    5  A    between atoms: C6_10  and  C8_13 
REMARK       I    between atoms: C7_11  and  N3_14 
REMARK    6  A    between atoms: N3_14  and  C9_15 
REMARK    7  A    between atoms: C9_15  and  C10_16 
REMARK    8  A    between atoms: C9_15  and  C11_18 
REMARK       I    between atoms: C10_16  and  N4_21 
REMARK    9  A    between atoms: C11_18  and  C12_19 
REMARK   10  A    between atoms: C11_18  and  C13_20 
REMARK   11  A    between atoms: N4_21  and  C14_22 
REMARK   12  A    between atoms: C14_22  and  C15_23 
REMARK   13  A    between atoms: C14_22  and  C16_25 
REMARK       I    between atoms: C15_23  and  N6_40 
REMARK   14  A    between atoms: C16_25  and  C17_26 
REMARK   15  A    between atoms: C17_26  and  C18_27 
REMARK   16  A    between atoms: C17_26  and  C19_28 
REMARK   17  A    between atoms: C20_29  and  C21_30 
REMARK   18  A    between atoms: C20_29  and  C24_33 
REMARK   19  A    between atoms: C20_29  and  N6_40 
REMARK   20  A    between atoms: C21_30  and  C22_31 
REMARK   21  A    between atoms: C22_31  and  C23_32 
REMARK   22  A    between atoms: C23_32  and  O8_43 
REMARK   23  A    between atoms: C24_33  and  C25_34 
REMARK   24  A    between atoms: C28_38  and  O6_39 
REMARK   25  A    between atoms: C29_42  and  O8_43 
REMARK   26  A    between atoms: C29_42  and  C35_49 
ROOT
ATOM      1  C14 non d ame     -35.592   8.783  25.962  0.00  0.00     0.089 C 
ATOM      2  H20 non d ame     -36.601   9.159  25.798  0.00  0.00     0.087 H 
ENDROOT
BRANCH   1   3
ATOM      3  N4  non d ame     -35.505   8.354  27.350  0.00  0.00    -0.346 N 
ATOM      4  C10 non d ame     -36.674   8.549  28.282  0.00  0.00     0.241 C 
ATOM      5  O4  non d ame     -37.674   9.055  27.893  0.00  0.00    -0.271 OA
ATOM      6  H19 non d ame     -34.644   7.927  27.663  0.00  0.00     0.163 HD
BRANCH   4   7
ATOM      7  C9  non d ame     -36.568   8.094  29.714  0.00  0.00     0.092 C 
ATOM      8  H11 non d ame     -35.833   7.292  29.783  0.00  0.00     0.088 H 
BRANCH   7   9
ATOM      9  N3  non d ame     -36.082   9.200  30.544  0.00  0.00    -0.346 N 
ATOM     10  C7  non d ame     -34.665   9.445  30.660  0.00  0.00     0.240 C 
ATOM     11  O3  non d ame     -33.903   8.761  30.094  0.00  0.00    -0.271 OA
ATOM     12  H10 non d ame     -36.728   9.798  31.040  0.00  0.00     0.163 HD
BRANCH  10  13
ATOM     13  C6  non d ame     -34.154  10.622  31.547  0.00  0.00     0.086 C 
ATOM     14  H6  non d ame     -33.242  10.375  32.091  0.00  0.00     0.086 H 
BRANCH  13  15
ATOM     15  N2  non d ame     -33.833  11.753  30.692  0.00  0.00    -0.343 N 
ATOM     16  C5  non d ame     -32.431  12.075  30.417  0.00  0.00     0.273 C 
ATOM     17  O2  non d ame     -31.569  11.421  30.891  0.00  0.00    -0.266 OA
ATOM     18  H5  non d ame     -34.577  12.308  30.293  0.00  0.00     0.163 HD
BRANCH  16  19
ATOM     19  C4  non d ame     -32.078  13.267  29.513  0.00  0.00     0.154 A 
ATOM     20  C1  non d ame     -32.910  14.387  29.196  0.00  0.00    -0.017 A 
ATOM     21  C2  non d ame     -32.126  15.190  28.337  0.00  0.00     0.077 A 
ATOM     22  H1  non d ame     -33.926  14.588  29.536  0.00  0.00     0.091 H 
ATOM     23  O1  non d ame     -30.980  14.592  28.187  0.00  0.00    -0.218 OA
ATOM     24  N1  non d ame     -30.929  13.467  28.863  0.00  0.00    -0.123 NA
BRANCH  21  25
ATOM     25  C3  non d ame     -32.544  16.511  27.706  0.00  0.00    -0.029 C 
ATOM     26  H2  non d ame     -31.694  16.951  27.186  0.00  0.00     0.036 H 
ATOM     27  H3  non d ame     -33.352  16.334  26.996  0.00  0.00     0.036 H 
ATOM     28  H4  non d ame     -32.888  17.193  28.484  0.00  0.00     0.036 H 
ENDBRANCH  21  25
ENDBRANCH  16  19
ENDBRANCH  13  15
BRANCH  13  29
ATOM     29  C8  non d ame     -35.222  11.010  32.537  0.00  0.00    -0.049 C 
ATOM     30  H7  non d ame     -36.160  10.524  32.269  0.00  0.00     0.030 H 
ATOM     31  H8  non d ame     -34.923  10.695  33.537  0.00  0.00     0.030 H 
ATOM     32  H9  non d ame     -35.357  12.092  32.522  0.00  0.00     0.030 H 
ENDBRANCH  13  29
ENDBRANCH  10  13
ENDBRANCH   7   9
BRANCH   7  33
ATOM     33  C11 non d ame     -37.971   7.647  30.221  0.00  0.00    -0.033 C 
ATOM     34  H12 non d ame     -38.677   7.791  29.404  0.00  0.00     0.042 H 
BRANCH  33  35
ATOM     35  C12 non d ame     -37.985   6.131  30.591  0.00  0.00    -0.071 C 
ATOM     36  H13 non d ame     -38.749   5.620  30.005  0.00  0.00     0.028 H 
ATOM     37  H14 non d ame     -37.010   5.695  30.375  0.00  0.00     0.028 H 
ATOM     38  H15 non d ame     -38.207   6.018  31.652  0.00  0.00     0.028 H 
ENDBRANCH  33  35
BRANCH  33  39
ATOM     39  C13 non d ame     -38.438   8.528  31.424  0.00  0.00    -0.071 C 
ATOM     40  H16 non d ame     -38.255   7.994  32.357  0.00  0.00     0.028 H 
ATOM     41  H17 non d ame     -37.881   9.465  31.426  0.00  0.00     0.028 H 
ATOM     42  H18 non d ame     -39.503   8.739  31.328  0.00  0.00     0.028 H 
ENDBRANCH  33  39
ENDBRANCH   7  33
ENDBRANCH   4   7
ENDBRANCH   1   3
BRANCH   1  43
ATOM     43  C15 non d ame     -35.261   7.569  25.048  0.00  0.00     0.240 C 
ATOM     44  O5  non d ame     -36.141   6.886  24.631  0.00  0.00    -0.271 OA
ATOM     45  N6  non d ame     -33.849   7.262  24.683  0.00  0.00    -0.355 N 
ATOM     46  H46 non d ame     -33.094   7.837  25.027  0.00  0.00     0.162 HD
BRANCH  45  47
ATOM     47  C20 non d ame     -33.552   6.105  23.811  0.00  0.00     0.013 C 
ATOM     48  H30 non d ame     -34.494   5.744  23.401  0.00  0.00     0.072 H 
BRANCH  47  49
ATOM     49  C21 non d ame     -32.894   5.017  24.631  0.00  0.00    -0.038 C 
ATOM     50  H31 non d ame     -32.164   4.551  23.970  0.00  0.00     0.036 H 
ATOM     51  H32 non d ame     -32.567   5.500  25.552  0.00  0.00     0.036 H 
BRANCH  49  52
ATOM     52  C22 non d ame     -33.879   3.904  25.048  0.00  0.00     0.018 C 
ATOM     53  H33 non d ame     -34.875   4.326  24.918  0.00  0.00     0.048 H 
ATOM     54  H34 non d ame     -33.583   3.020  24.481  0.00  0.00     0.048 H 
BRANCH  52  55
ATOM     55  C23 non d ame     -33.776   3.505  26.546  0.00  0.00     0.259 C 
ATOM     56  O7  non d ame     -33.725   2.361  26.864  0.00  0.00    -0.265 OA
BRANCH  55  57
ATOM     57  O8  non d ame     -33.755   4.524  27.538  0.00  0.00    -0.317 OA
BRANCH  57  58
ATOM     58  C29 non d ame     -32.624   4.463  28.412  0.00  0.00     0.052 C 
ATOM     59  H47 non d ame     -32.134   3.514  28.195  0.00  0.00     0.082 H 
ATOM     60  H48 non d ame     -32.086   5.400  28.265  0.00  0.00     0.082 H 
BRANCH  58  61
ATOM     61  C35 non d ame     -33.148   4.423  29.872  0.00  0.00    -0.034 A 
ATOM     62  C30 non d ame     -34.252   5.187  30.238  0.00  0.00    -0.075 A 
ATOM     63  C31 non d ame     -34.722   5.151  31.549  0.00  0.00    -0.082 A 
ATOM     64  H49 non d ame     -34.747   5.814  29.497  0.00  0.00     0.084 H 
ATOM     65  C32 non d ame     -34.083   4.348  32.498  0.00  0.00    -0.083 A 
ATOM     66  H50 non d ame     -35.589   5.750  31.832  0.00  0.00     0.083 H 
ATOM     67  C33 non d ame     -32.980   3.590  32.130  0.00  0.00    -0.082 A 
ATOM     68  H51 non d ame     -34.445   4.314  33.526  0.00  0.00     0.083 H 
ATOM     69  C34 non d ame     -32.508   3.622  30.819  0.00  0.00    -0.075 A 
ATOM     70  H52 non d ame     -32.482   2.967  32.873  0.00  0.00     0.083 H 
ATOM     71  H53 non d ame     -31.641   3.023  30.537  0.00  0.00     0.084 H 
ENDBRANCH  58  61
ENDBRANCH  57  58
ENDBRANCH  55  57
ENDBRANCH  52  55
ENDBRANCH  49  52
ENDBRANCH  47  49
BRANCH  47  72
ATOM     72  C24 non d ame     -32.612   6.534  22.686  0.00  0.00    -0.039 C 
ATOM     73  H35 non d ame     -32.241   5.607  22.249  0.00  0.00     0.036 H 
ATOM     74  H36 non d ame     -33.188   7.231  22.077  0.00  0.00     0.036 H 
BRANCH  72  75
ATOM     75  C25 non d ame     -31.342   7.333  23.247  0.00  0.00    -0.001 C 
ATOM     76  C26 non d ame     -31.544   8.947  23.004  0.00  0.00    -0.035 C 
ATOM     77  C27 non d ame     -30.442   9.436  22.387  0.00  0.00     0.085 C 
ATOM     78  H38 non d ame     -32.339   9.119  22.279  0.00  0.00     0.036 H 
ATOM     79  H39 non d ame     -31.555   9.471  23.959  0.00  0.00     0.036 H 
ATOM     80  N5  non d ame     -29.648   8.251  21.894  0.00  0.00    -0.049 N 
ATOM     81  H40 non d ame     -30.813   9.997  21.529  0.00  0.00     0.075 H 
ATOM     82  H41 non d ame     -29.874   9.945  23.166  0.00  0.00     0.075 H 
ATOM     83  C28 non d ame     -30.257   6.962  22.654  0.00  0.00     0.193 C 
ATOM     84  H42 non d ame     -29.845   8.165  20.907  0.00  0.00     0.280 HD
ATOM     85  H43 non d ame     -28.699   8.391  22.210  0.00  0.00     0.280 HD
ATOM     86  H44 non d ame     -29.721   6.506  23.486  0.00  0.00     0.129 H 
ATOM     87  H37 non d ame     -31.064   7.014  24.252  0.00  0.00     0.046 H 
BRANCH  83  88
ATOM     88  O6  non d ame     -30.487   5.904  21.722  0.00  0.00    -0.369 OA
ATOM     89  H45 non d ame     -29.724   5.813  21.146  0.00  0.00     0.212 HD
ENDBRANCH  83  88
ENDBRANCH  72  75
ENDBRANCH  47  72
ENDBRANCH  45  47
ENDBRANCH   1  43
BRANCH   1  90
ATOM     90  C16 non d ame     -34.582   9.893  25.722  0.00  0.00    -0.035 C 
ATOM     91  H21 non d ame     -33.725   9.409  25.255  0.00  0.00     0.037 H 
ATOM     92  H22 non d ame     -35.129  10.669  25.185  0.00  0.00     0.037 H 
BRANCH  90  93
ATOM     93  C17 non d ame     -34.053  10.554  27.034  0.00  0.00    -0.059 C 
ATOM     94  H23 non d ame     -34.348   9.917  27.868  0.00  0.00     0.038 H 
BRANCH  93  95
ATOM     95  C18 non d ame     -32.494  10.667  27.050  0.00  0.00    -0.073 C 
ATOM     96  H24 non d ame     -32.104  10.455  26.055  0.00  0.00     0.028 H 
ATOM     97  H25 non d ame     -32.206  11.676  27.345  0.00  0.00     0.028 H 
ATOM     98  H26 non d ame     -32.085   9.950  27.762  0.00  0.00     0.028 H 
ENDBRANCH  93  95
BRANCH  93  99
ATOM     99  C19 non d ame     -34.701  11.923  27.257  0.00  0.00    -0.073 C 
ATOM    100  H27 non d ame     -33.930  12.694  27.260  0.00  0.00     0.028 H 
ATOM    101  H28 non d ame     -35.412  12.124  26.455  0.00  0.00     0.028 H 
ATOM    102  H29 non d ame     -35.222  11.927  28.214  0.00  0.00     0.028 H 
ENDBRANCH  93  99
ENDBRANCH  90  93
ENDBRANCH   1  90
TORSDOF 26
ENDMDL
MODEL 18
REMARK VINA RESULT:      -6.3      2.304      7.054
REMARK  26 active torsions:
REMARK  status: ('A' for Active; 'I' for Inactive)
REMARK    1  A    between atoms: C2_2  and  C3_3 
REMARK    2  A    between atoms: C4_6  and  C5_7 
REMARK       I    between atoms: C5_7  and  N2_9 
REMARK    3  A    between atoms: N2_9  and  C6_10 
REMARK    4  A    between atoms: C6_10  and  C7_11 
REMARK    5  A    between atoms: C6_10  and  C8_13 
REMARK       I    between atoms: C7_11  and  N3_14 
REMARK    6  A    between atoms: N3_14  and  C9_15 
REMARK    7  A    between atoms: C9_15  and  C10_16 
REMARK    8  A    between atoms: C9_15  and  C11_18 
REMARK       I    between atoms: C10_16  and  N4_21 
REMARK    9  A    between atoms: C11_18  and  C12_19 
REMARK   10  A    between atoms: C11_18  and  C13_20 
REMARK   11  A    between atoms: N4_21  and  C14_22 
REMARK   12  A    between atoms: C14_22  and  C15_23 
REMARK   13  A    between atoms: C14_22  and  C16_25 
REMARK       I    between atoms: C15_23  and  N6_40 
REMARK   14  A    between atoms: C16_25  and  C17_26 
REMARK   15  A    between atoms: C17_26  and  C18_27 
REMARK   16  A    between atoms: C17_26  and  C19_28 
REMARK   17  A    between atoms: C20_29  and  C21_30 
REMARK   18  A    between atoms: C20_29  and  C24_33 
REMARK   19  A    between atoms: C20_29  and  N6_40 
REMARK   20  A    between atoms: C21_30  and  C22_31 
REMARK   21  A    between atoms: C22_31  and  C23_32 
REMARK   22  A    between atoms: C23_32  and  O8_43 
REMARK   23  A    between atoms: C24_33  and  C25_34 
REMARK   24  A    between atoms: C28_38  and  O6_39 
REMARK   25  A    between atoms: C29_42  and  O8_43 
REMARK   26  A    between atoms: C29_42  and  C35_49 
ROOT
ATOM      1  C14 non d ame     -35.904  13.123  25.996  0.00  0.00     0.089 C 
ATOM      2  H20 non d ame     -36.631  12.936  26.787  0.00  0.00     0.087 H 
ENDROOT
BRANCH   1   3
ATOM      3  N4  non d ame     -35.750  14.565  25.874  0.00  0.00    -0.346 N 
ATOM      4  C10 non d ame     -36.788  15.493  26.453  0.00  0.00     0.241 C 
ATOM      5  O4  non d ame     -37.741  15.056  27.010  0.00  0.00    -0.271 OA
ATOM      6  H19 non d ame     -34.934  14.917  25.394  0.00  0.00     0.163 HD
BRANCH   4   7
ATOM      7  C9  non d ame     -36.610  16.983  26.322  0.00  0.00     0.092 C 
ATOM      8  H11 non d ame     -36.863  17.459  27.269  0.00  0.00     0.088 H 
BRANCH   7   9
ATOM      9  N3  non d ame     -35.202  17.285  26.049  0.00  0.00    -0.346 N 
ATOM     10  C7  non d ame     -34.308  17.601  27.136  0.00  0.00     0.240 C 
ATOM     11  O3  non d ame     -34.706  17.618  28.237  0.00  0.00    -0.271 OA
ATOM     12  H10 non d ame     -34.844  17.276  25.104  0.00  0.00     0.163 HD
BRANCH  10  13
ATOM     13  C6  non d ame     -32.811  17.925  26.838  0.00  0.00     0.086 C 
ATOM     14  H6  non d ame     -32.132  17.494  27.574  0.00  0.00     0.086 H 
BRANCH  13  15
ATOM     15  N2  non d ame     -32.451  17.349  25.553  0.00  0.00    -0.343 N 
ATOM     16  C5  non d ame     -31.718  16.082  25.511  0.00  0.00     0.273 C 
ATOM     17  O2  non d ame     -31.421  15.535  26.516  0.00  0.00    -0.266 OA
ATOM     18  H5  non d ame     -32.707  17.824  24.700  0.00  0.00     0.163 HD
BRANCH  16  19
ATOM     19  C4  non d ame     -31.332  15.461  24.159  0.00  0.00     0.154 A 
ATOM     20  C1  non d ame     -31.306  16.111  22.885  0.00  0.00    -0.017 A 
ATOM     21  C2  non d ame     -30.887  15.113  21.976  0.00  0.00     0.077 A 
ATOM     22  H1  non d ame     -31.554  17.147  22.654  0.00  0.00     0.091 H 
ATOM     23  O1  non d ame     -30.696  14.023  22.659  0.00  0.00    -0.218 OA
ATOM     24  N1  non d ame     -30.950  14.200  23.936  0.00  0.00    -0.123 NA
BRANCH  21  25
ATOM     25  C3  non d ame     -30.695  15.284  20.475  0.00  0.00    -0.029 C 
ATOM     26  H2  non d ame     -30.078  14.471  20.093  0.00  0.00     0.036 H 
ATOM     27  H3  non d ame     -31.665  15.267  19.980  0.00  0.00     0.036 H 
ATOM     28  H4  non d ame     -30.203  16.237  20.278  0.00  0.00     0.036 H 
ENDBRANCH  21  25
ENDBRANCH  16  19
ENDBRANCH  13  15
BRANCH  13  29
ATOM     29  C8  non d ame     -32.613  19.419  26.809  0.00  0.00    -0.049 C 
ATOM     30  H7  non d ame     -33.015  19.857  27.723  0.00  0.00     0.030 H 
ATOM     31  H8  non d ame     -31.550  19.643  26.735  0.00  0.00     0.030 H 
ATOM     32  H9  non d ame     -33.134  19.837  25.947  0.00  0.00     0.030 H 
ENDBRANCH  13  29
ENDBRANCH  10  13
ENDBRANCH   7   9
BRANCH   7  33
ATOM     33  C11 non d ame     -37.488  17.510  25.149  0.00  0.00    -0.033 C 
ATOM     34  H12 non d ame     -38.510  17.599  25.517  0.00  0.00     0.042 H 
BRANCH  33  35
ATOM     35  C12 non d ame     -37.030  18.929  24.689  0.00  0.00    -0.071 C 
ATOM     36  H13 non d ame     -37.688  19.682  25.124  0.00  0.00     0.028 H 
ATOM     37  H14 non d ame     -36.007  19.106  25.020  0.00  0.00     0.028 H 
ATOM     38  H15 non d ame     -37.077  18.991  23.602  0.00  0.00     0.028 H 
ENDBRANCH  33  35
BRANCH  33  39
ATOM     39  C13 non d ame     -37.490  16.501  23.956  0.00  0.00    -0.071 C 
ATOM     40  H16 non d ame     -38.265  16.783  23.243  0.00  0.00     0.028 H 
ATOM     41  H17 non d ame     -36.518  16.520  23.462  0.00  0.00     0.028 H 
ATOM     42  H18 non d ame     -37.687  15.496  24.330  0.00  0.00     0.028 H 
ENDBRANCH  33  39
ENDBRANCH   7  33
ENDBRANCH   4   7
ENDBRANCH   1   3
BRANCH   1  43
ATOM     43  C15 non d ame     -34.514  12.502  26.315  0.00  0.00     0.240 C 
ATOM     44  O5  non d ame     -33.529  12.997  25.872  0.00  0.00    -0.271 OA
ATOM     45  N6  non d ame     -34.411  11.293  27.182  0.00  0.00    -0.355 N 
ATOM     46  H46 non d ame     -35.240  10.867  27.569  0.00  0.00     0.162 HD
BRANCH  45  47
ATOM     47  C20 non d ame     -33.082  10.716  27.478  0.00  0.00     0.013 C 
ATOM     48  H30 non d ame     -32.327  11.377  27.053  0.00  0.00     0.072 H 
BRANCH  47  49
ATOM     49  C21 non d ame     -32.982   9.345  26.848  0.00  0.00    -0.038 C 
ATOM     50  H31 non d ame     -33.696   9.346  26.024  0.00  0.00     0.036 H 
ATOM     51  H32 non d ame     -31.921   9.189  26.650  0.00  0.00     0.036 H 
BRANCH  49  52
ATOM     52  C22 non d ame     -33.419   8.213  27.803  0.00  0.00     0.018 C 
ATOM     53  H33 non d ame     -32.745   7.381  27.602  0.00  0.00     0.048 H 
ATOM     54  H34 non d ame     -33.451   8.661  28.797  0.00  0.00     0.048 H 
BRANCH  52  55
ATOM     55  C23 non d ame     -34.852   7.679  27.527  0.00  0.00     0.259 C 
ATOM     56  O7  non d ame     -35.020   6.556  27.178  0.00  0.00    -0.265 OA
BRANCH  55  57
ATOM     57  O8  non d ame     -35.963   8.553  27.685  0.00  0.00    -0.317 OA
BRANCH  57  58
ATOM     58  C29 non d ame     -36.885   8.145  28.700  0.00  0.00     0.052 C 
ATOM     59  H47 non d ame     -37.821   8.654  28.470  0.00  0.00     0.082 H 
ATOM     60  H48 non d ame     -36.846   7.056  28.713  0.00  0.00     0.082 H 
BRANCH  58  61
ATOM     61  C35 non d ame     -36.362   8.672  30.063  0.00  0.00    -0.034 A 
ATOM     62  C30 non d ame     -35.676   7.819  30.922  0.00  0.00    -0.075 A 
ATOM     63  C31 non d ame     -35.206   8.292  32.146  0.00  0.00    -0.082 A 
ATOM     64  H49 non d ame     -35.507   6.780  30.636  0.00  0.00     0.084 H 
ATOM     65  C32 non d ame     -35.426   9.622  32.512  0.00  0.00    -0.083 A 
ATOM     66  H50 non d ame     -34.667   7.621  32.817  0.00  0.00     0.083 H 
ATOM     67  C33 non d ame     -36.114  10.469  31.652  0.00  0.00    -0.082 A 
ATOM     68  H51 non d ame     -35.061  10.000  33.467  0.00  0.00     0.083 H 
ATOM     69  C34 non d ame     -36.583  10.001  30.427  0.00  0.00    -0.075 A 
ATOM     70  H52 non d ame     -36.286  11.506  31.941  0.00  0.00     0.083 H 
ATOM     71  H53 non d ame     -37.122  10.672  29.757  0.00  0.00     0.084 H 
ENDBRANCH  58  61
ENDBRANCH  57  58
ENDBRANCH  55  57
ENDBRANCH  52  55
ENDBRANCH  49  52
ENDBRANCH  47  49
BRANCH  47  72
ATOM     72  C24 non d ame     -32.895  10.597  28.989  0.00  0.00    -0.039 C 
ATOM     73  H35 non d ame     -33.768  10.052  29.348  0.00  0.00     0.036 H 
ATOM     74  H36 non d ame     -31.898  10.179  29.126  0.00  0.00     0.036 H 
BRANCH  72  75
ATOM     75  C25 non d ame     -32.908  12.032  29.702  0.00  0.00    -0.001 C 
ATOM     76  C26 non d ame     -31.847  13.040  28.951  0.00  0.00    -0.035 C 
ATOM     77  C27 non d ame     -31.034  13.591  29.883  0.00  0.00     0.085 C 
ATOM     78  H38 non d ame     -31.165  12.466  28.325  0.00  0.00     0.036 H 
ATOM     79  H39 non d ame     -32.377  13.898  28.535  0.00  0.00     0.036 H 
ATOM     80  N5  non d ame     -31.227  12.805  31.158  0.00  0.00    -0.049 N 
ATOM     81  H40 non d ame     -30.020  13.431  29.516  0.00  0.00     0.075 H 
ATOM     82  H41 non d ame     -31.406  14.605  30.031  0.00  0.00     0.075 H 
ATOM     83  C28 non d ame     -32.573  11.939  30.946  0.00  0.00     0.193 C 
ATOM     84  H42 non d ame     -30.444  12.172  31.224  0.00  0.00     0.280 HD
ATOM     85  H43 non d ame     -31.392  13.483  31.889  0.00  0.00     0.280 HD
ATOM     86  H44 non d ame     -33.505  12.238  31.425  0.00  0.00     0.129 H 
ATOM     87  H37 non d ame     -33.919  12.405  29.861  0.00  0.00     0.046 H 
BRANCH  83  88
ATOM     88  O6  non d ame     -32.355  10.585  31.345  0.00  0.00    -0.369 OA
ATOM     89  H45 non d ame     -31.655  10.553  32.002  0.00  0.00     0.212 HD
ENDBRANCH  83  88
ENDBRANCH  72  75
ENDBRANCH  47  72
ENDBRANCH  45  47
ENDBRANCH   1  43
BRANCH   1  90
ATOM     90  C16 non d ame     -36.423  12.566  24.679  0.00  0.00    -0.035 C 
ATOM     91  H21 non d ame     -36.075  13.261  23.915  0.00  0.00     0.037 H 
ATOM     92  H22 non d ame     -36.098  11.526  24.658  0.00  0.00     0.037 H 
BRANCH  90  93
ATOM     93  C17 non d ame     -37.981  12.544  24.579  0.00  0.00    -0.059 C 
ATOM     94  H23 non d ame     -38.328  13.577  24.585  0.00  0.00     0.038 H 
BRANCH  93  95
ATOM     95  C18 non d ame     -38.477  11.884  23.252  0.00  0.00    -0.073 C 
ATOM     96  H24 non d ame     -38.430  10.800  23.346  0.00  0.00     0.028 H 
ATOM     97  H25 non d ame     -39.505  12.187  23.057  0.00  0.00     0.028 H 
ATOM     98  H26 non d ame     -37.841  12.205  22.427  0.00  0.00     0.028 H 
ENDBRANCH  93  95
BRANCH  93  99
ATOM     99  C19 non d ame     -38.598  11.850  25.796  0.00  0.00    -0.073 C 
ATOM    100  H27 non d ame     -37.912  11.087  26.166  0.00  0.00     0.028 H 
ATOM    101  H28 non d ame     -38.781  12.585  26.580  0.00  0.00     0.028 H 
ATOM    102  H29 non d ame     -39.540  11.383  25.509  0.00  0.00     0.028 H 
ENDBRANCH  93  99
ENDBRANCH  90  93
ENDBRANCH   1  90
TORSDOF 26
ENDMDL
MODEL 19
REMARK VINA RESULT:      -6.2      2.382      5.288
REMARK  26 active torsions:
REMARK  status: ('A' for Active; 'I' for Inactive)
REMARK    1  A    between atoms: C2_2  and  C3_3 
REMARK    2  A    between atoms: C4_6  and  C5_7 
REMARK       I    between atoms: C5_7  and  N2_9 
REMARK    3  A    between atoms: N2_9  and  C6_10 
REMARK    4  A    between atoms: C6_10  and  C7_11 
REMARK    5  A    between atoms: C6_10  and  C8_13 
REMARK       I    between atoms: C7_11  and  N3_14 
REMARK    6  A    between atoms: N3_14  and  C9_15 
REMARK    7  A    between atoms: C9_15  and  C10_16 
REMARK    8  A    between atoms: C9_15  and  C11_18 
REMARK       I    between atoms: C10_16  and  N4_21 
REMARK    9  A    between atoms: C11_18  and  C12_19 
REMARK   10  A    between atoms: C11_18  and  C13_20 
REMARK   11  A    between atoms: N4_21  and  C14_22 
REMARK   12  A    between atoms: C14_22  and  C15_23 
REMARK   13  A    between atoms: C14_22  and  C16_25 
REMARK       I    between atoms: C15_23  and  N6_40 
REMARK   14  A    between atoms: C16_25  and  C17_26 
REMARK   15  A    between atoms: C17_26  and  C18_27 
REMARK   16  A    between atoms: C17_26  and  C19_28 
REMARK   17  A    between atoms: C20_29  and  C21_30 
REMARK   18  A    between atoms: C20_29  and  C24_33 
REMARK   19  A    between atoms: C20_29  and  N6_40 
REMARK   20  A    between atoms: C21_30  and  C22_31 
REMARK   21  A    between atoms: C22_31  and  C23_32 
REMARK   22  A    between atoms: C23_32  and  O8_43 
REMARK   23  A    between atoms: C24_33  and  C25_34 
REMARK   24  A    between atoms: C28_38  and  O6_39 
REMARK   25  A    between atoms: C29_42  and  O8_43 
REMARK   26  A    between atoms: C29_42  and  C35_49 
ROOT
ATOM      1  C14 non d ame     -32.355   9.430  25.468  0.00  0.00     0.089 C 
ATOM      2  H20 non d ame     -31.482   8.780  25.528  0.00  0.00     0.087 H 
ENDROOT
BRANCH   1   3
ATOM      3  N4  non d ame     -33.385   8.862  26.325  0.00  0.00    -0.346 N 
ATOM      4  C10 non d ame     -33.055   7.731  27.266  0.00  0.00     0.241 C 
ATOM      5  O4  non d ame     -31.952   7.294  27.314  0.00  0.00    -0.271 OA
ATOM      6  H19 non d ame     -34.318   9.247  26.267  0.00  0.00     0.163 HD
BRANCH   4   7
ATOM      7  C9  non d ame     -34.132   7.159  28.150  0.00  0.00     0.092 C 
ATOM      8  H11 non d ame     -33.863   7.322  29.194  0.00  0.00     0.088 H 
BRANCH   7   9
ATOM      9  N3  non d ame     -35.391   7.870  27.909  0.00  0.00    -0.346 N 
ATOM     10  C7  non d ame     -36.011   8.617  28.976  0.00  0.00     0.240 C 
ATOM     11  O3  non d ame     -35.512   8.655  30.034  0.00  0.00    -0.271 OA
ATOM     12  H10 non d ame     -35.834   7.845  27.002  0.00  0.00     0.163 HD
BRANCH  10  13
ATOM     13  C6  non d ame     -37.353   9.369  28.715  0.00  0.00     0.086 C 
ATOM     14  H6  non d ame     -37.708   9.914  29.590  0.00  0.00     0.086 H 
BRANCH  13  15
ATOM     15  N2  non d ame     -37.144  10.356  27.668  0.00  0.00    -0.343 N 
ATOM     16  C5  non d ame     -37.930  11.592  27.675  0.00  0.00     0.273 C 
ATOM     17  O2  non d ame     -38.729  11.782  28.525  0.00  0.00    -0.266 OA
ATOM     18  H5  non d ame     -36.461  10.184  26.944  0.00  0.00     0.163 HD
BRANCH  16  19
ATOM     19  C4  non d ame     -37.718  12.644  26.575  0.00  0.00     0.154 A 
ATOM     20  C1  non d ame     -37.526  12.407  25.177  0.00  0.00    -0.017 A 
ATOM     21  C2  non d ame     -37.381  13.691  24.607  0.00  0.00     0.077 A 
ATOM     22  H1  non d ame     -37.496  11.450  24.656  0.00  0.00     0.091 H 
ATOM     23  O1  non d ame     -37.482  14.557  25.572  0.00  0.00    -0.218 OA
ATOM     24  N1  non d ame     -37.679  13.970  26.730  0.00  0.00    -0.123 NA
BRANCH  21  25
ATOM     25  C3  non d ame     -37.151  14.003  23.134  0.00  0.00    -0.029 C 
ATOM     26  H2  non d ame     -36.727  15.002  23.036  0.00  0.00     0.036 H 
ATOM     27  H3  non d ame     -36.461  13.273  22.712  0.00  0.00     0.036 H 
ATOM     28  H4  non d ame     -38.100  13.957  22.600  0.00  0.00     0.036 H 
ENDBRANCH  21  25
ENDBRANCH  16  19
ENDBRANCH  13  15
BRANCH  13  29
ATOM     29  C8  non d ame     -38.412   8.383  28.292  0.00  0.00    -0.049 C 
ATOM     30  H7  non d ame     -38.540   7.631  29.071  0.00  0.00     0.030 H 
ATOM     31  H8  non d ame     -39.354   8.907  28.134  0.00  0.00     0.030 H 
ATOM     32  H9  non d ame     -38.106   7.897  27.365  0.00  0.00     0.030 H 
ENDBRANCH  13  29
ENDBRANCH  10  13
ENDBRANCH   7   9
BRANCH   7  33
ATOM     33  C11 non d ame     -34.322   5.649  27.823  0.00  0.00    -0.033 C 
ATOM     34  H12 non d ame     -33.348   5.168  27.914  0.00  0.00     0.042 H 
BRANCH  33  35
ATOM     35  C12 non d ame     -35.280   4.963  28.846  0.00  0.00    -0.071 C 
ATOM     36  H13 non d ame     -35.428   3.920  28.563  0.00  0.00     0.028 H 
ATOM     37  H14 non d ame     -34.842   5.010  29.843  0.00  0.00     0.028 H 
ATOM     38  H15 non d ame     -36.241   5.478  28.846  0.00  0.00     0.028 H 
ENDBRANCH  33  35
BRANCH  33  39
ATOM     39  C13 non d ame     -34.824   5.452  26.357  0.00  0.00    -0.071 C 
ATOM     40  H16 non d ame     -35.596   4.683  26.337  0.00  0.00     0.028 H 
ATOM     41  H17 non d ame     -35.235   6.391  25.985  0.00  0.00     0.028 H 
ATOM     42  H18 non d ame     -33.990   5.147  25.725  0.00  0.00     0.028 H 
ENDBRANCH  33  39
ENDBRANCH   7  33
ENDBRANCH   4   7
ENDBRANCH   1   3
BRANCH   1  43
ATOM     43  C15 non d ame     -32.047  10.875  25.955  0.00  0.00     0.240 C 
ATOM     44  O5  non d ame     -31.267  11.048  26.835  0.00  0.00    -0.271 OA
ATOM     45  N6  non d ame     -32.719  12.044  25.320  0.00  0.00    -0.355 N 
ATOM     46  H46 non d ame     -33.380  11.910  24.568  0.00  0.00     0.162 HD
BRANCH  45  47
ATOM     47  C20 non d ame     -32.414  13.411  25.794  0.00  0.00     0.013 C 
ATOM     48  H30 non d ame     -32.420  13.398  26.883  0.00  0.00     0.072 H 
BRANCH  47  49
ATOM     49  C21 non d ame     -33.470  14.365  25.283  0.00  0.00    -0.038 C 
ATOM     50  H31 non d ame     -32.935  15.109  24.692  0.00  0.00     0.036 H 
ATOM     51  H32 non d ame     -34.229  13.738  24.813  0.00  0.00     0.036 H 
BRANCH  49  52
ATOM     52  C22 non d ame     -34.181  15.135  26.417  0.00  0.00     0.018 C 
ATOM     53  H33 non d ame     -34.804  15.880  25.923  0.00  0.00     0.048 H 
ATOM     54  H34 non d ame     -34.638  14.374  27.049  0.00  0.00     0.048 H 
BRANCH  52  55
ATOM     55  C23 non d ame     -33.212  15.930  27.336  0.00  0.00     0.259 C 
ATOM     56  O7  non d ame     -32.539  16.803  26.892  0.00  0.00    -0.265 OA
BRANCH  55  57
ATOM     57  O8  non d ame     -33.128  15.595  28.716  0.00  0.00    -0.317 OA
BRANCH  57  58
ATOM     58  C29 non d ame     -31.840  15.123  29.123  0.00  0.00     0.052 C 
ATOM     59  H47 non d ame     -31.225  15.133  28.223  0.00  0.00     0.082 H 
ATOM     60  H48 non d ame     -31.561  15.734  29.981  0.00  0.00     0.082 H 
BRANCH  58  61
ATOM     61  C35 non d ame     -31.996  13.653  29.596  0.00  0.00    -0.034 A 
ATOM     62  C30 non d ame     -31.027  13.078  30.412  0.00  0.00    -0.075 A 
ATOM     63  C31 non d ame     -31.166  11.757  30.836  0.00  0.00    -0.082 A 
ATOM     64  H49 non d ame     -30.158  13.661  30.718  0.00  0.00     0.084 H 
ATOM     65  C32 non d ame     -32.279  11.011  30.440  0.00  0.00    -0.083 A 
ATOM     66  H50 non d ame     -30.406  11.310  31.477  0.00  0.00     0.083 H 
ATOM     67  C33 non d ame     -33.242  11.588  29.624  0.00  0.00    -0.082 A 
ATOM     68  H51 non d ame     -32.396   9.978  30.768  0.00  0.00     0.083 H 
ATOM     69  C34 non d ame     -33.108  12.908  29.199  0.00  0.00    -0.075 A 
ATOM     70  H52 non d ame     -34.108  11.002  29.315  0.00  0.00     0.083 H 
ATOM     71  H53 non d ame     -33.868  13.355  28.558  0.00  0.00     0.084 H 
ENDBRANCH  58  61
ENDBRANCH  57  58
ENDBRANCH  55  57
ENDBRANCH  52  55
ENDBRANCH  49  52
ENDBRANCH  47  49
BRANCH  47  72
ATOM     72  C24 non d ame     -31.043  13.844  25.276  0.00  0.00    -0.039 C 
ATOM     73  H35 non d ame     -30.757  14.697  25.891  0.00  0.00     0.036 H 
ATOM     74  H36 non d ame     -30.434  12.940  25.279  0.00  0.00     0.036 H 
BRANCH  72  75
ATOM     75  C25 non d ame     -31.118  14.358  23.760  0.00  0.00    -0.001 C 
ATOM     76  C26 non d ame     -30.152  13.430  22.806  0.00  0.00    -0.035 C 
ATOM     77  C27 non d ame     -29.339  14.242  22.088  0.00  0.00     0.085 C 
ATOM     78  H38 non d ame     -29.460  12.856  23.421  0.00  0.00     0.036 H 
ATOM     79  H39 non d ame     -30.749  12.929  22.044  0.00  0.00     0.036 H 
ATOM     80  N5  non d ame     -29.434  15.618  22.702  0.00  0.00    -0.049 N 
ATOM     81  H40 non d ame     -28.332  13.853  22.239  0.00  0.00     0.075 H 
ATOM     82  H41 non d ame     -29.767  14.270  21.087  0.00  0.00     0.075 H 
ATOM     83  C28 non d ame     -30.730  15.586  23.664  0.00  0.00     0.193 C 
ATOM     84  H42 non d ame     -28.611  15.732  23.276  0.00  0.00     0.280 HD
ATOM     85  H43 non d ame     -29.613  16.258  21.942  0.00  0.00     0.280 HD
ATOM     86  H44 non d ame     -31.660  16.064  23.355  0.00  0.00     0.129 H 
ATOM     87  H37 non d ame     -32.144  14.512  23.426  0.00  0.00     0.046 H 
BRANCH  83  88
ATOM     88  O6  non d ame     -30.414  16.153  24.937  0.00  0.00    -0.369 OA
ATOM     89  H45 non d ame     -30.340  15.453  25.590  0.00  0.00     0.212 HD
ENDBRANCH  83  88
ENDBRANCH  72  75
ENDBRANCH  47  72
ENDBRANCH  45  47
ENDBRANCH   1  43
BRANCH   1  90
ATOM     90  C16 non d ame     -32.868   9.472  24.037  0.00  0.00    -0.035 C 
ATOM     91  H21 non d ame     -33.791   8.894  24.044  0.00  0.00     0.037 H 
ATOM     92  H22 non d ame     -32.888  10.529  23.768  0.00  0.00     0.037 H 
BRANCH  90  93
ATOM     93  C17 non d ame     -31.919   8.774  23.011  0.00  0.00    -0.059 C 
ATOM     94  H23 non d ame     -31.485   7.903  23.502  0.00  0.00     0.038 H 
BRANCH  93  95
ATOM     95  C18 non d ame     -32.686   8.274  21.745  0.00  0.00    -0.073 C 
ATOM     96  H24 non d ame     -33.305   9.081  21.353  0.00  0.00     0.028 H 
ATOM     97  H25 non d ame     -31.970   7.965  20.984  0.00  0.00     0.028 H 
ATOM     98  H26 non d ame     -33.318   7.428  22.014  0.00  0.00     0.028 H 
ENDBRANCH  93  95
BRANCH  93  99
ATOM     99  C19 non d ame     -30.764   9.698  22.619  0.00  0.00    -0.073 C 
ATOM    100  H27 non d ame     -29.832   9.312  23.034  0.00  0.00     0.028 H 
ATOM    101  H28 non d ame     -30.685   9.742  21.532  0.00  0.00     0.028 H 
ATOM    102  H29 non d ame     -30.949  10.698  23.009  0.00  0.00     0.028 H 
ENDBRANCH  93  99
ENDBRANCH  90  93
ENDBRANCH   1  90
TORSDOF 26
ENDMDL
