MODEL 1
REMARK VINA RESULT:      -7.2      0.000      0.000
REMARK  26 active torsions:
REMARK  status: ('A' for Active; 'I' for Inactive)
REMARK    1  A    between atoms: C2_2  and  C3_3 
REMARK    2  A    between atoms: C4_6  and  C5_7 
REMARK       I    between atoms: C5_7  and  N2_9 
REMARK    3  A    between atoms: N2_9  and  C6_10 
REMARK    4  A    between atoms: C6_10  and  C7_11 
REMARK    5  A    between atoms: C6_10  and  C8_13 
REMARK       I    between atoms: C7_11  and  N3_14 
REMARK    6  A    between atoms: N3_14  and  C9_15 
REMARK    7  A    between atoms: C9_15  and  C10_16 
REMARK    8  A    between atoms: C9_15  and  C11_18 
REMARK       I    between atoms: C10_16  and  N4_21 
REMARK    9  A    between atoms: C11_18  and  C12_19 
REMARK   10  A    between atoms: C11_18  and  C13_20 
REMARK   11  A    between atoms: N4_21  and  C14_22 
REMARK   12  A    between atoms: C14_22  and  C15_23 
REMARK   13  A    between atoms: C14_22  and  C16_25 
REMARK       I    between atoms: C15_23  and  N6_40 
REMARK   14  A    between atoms: C16_25  and  C17_26 
REMARK   15  A    between atoms: C17_26  and  C18_27 
REMARK   16  A    between atoms: C17_26  and  C19_28 
REMARK   17  A    between atoms: C20_29  and  C21_30 
REMARK   18  A    between atoms: C20_29  and  C24_33 
REMARK   19  A    between atoms: C20_29  and  N6_40 
REMARK   20  A    between atoms: C21_30  and  C22_31 
REMARK   21  A    between atoms: C22_31  and  C23_32 
REMARK   22  A    between atoms: C23_32  and  O8_43 
REMARK   23  A    between atoms: C24_33  and  C25_34 
REMARK   24  A    between atoms: C28_38  and  O6_39 
REMARK   25  A    between atoms: C29_42  and  O8_43 
REMARK   26  A    between atoms: C29_42  and  C35_49 
ROOT
ATOM      1  C14 non d ame     -30.784  14.272  23.670  0.00  0.00     0.089 C 
ATOM      2  H20 non d ame     -29.697  14.303  23.591  0.00  0.00     0.087 H 
ENDROOT
BRANCH   1   3
ATOM      3  N4  non d ame     -31.168  12.885  23.888  0.00  0.00    -0.346 N 
ATOM      4  C10 non d ame     -30.460  11.775  23.152  0.00  0.00     0.241 C 
ATOM      5  O4  non d ame     -29.587  12.023  22.387  0.00  0.00    -0.271 OA
ATOM      6  H19 non d ame     -31.915  12.695  24.541  0.00  0.00     0.163 HD
BRANCH   4   7
ATOM      7  C9  non d ame     -30.866  10.344  23.393  0.00  0.00     0.092 C 
ATOM      8  H11 non d ame     -30.466  10.015  24.352  0.00  0.00     0.088 H 
BRANCH   7   9
ATOM      9  N3  non d ame     -32.327  10.259  23.481  0.00  0.00    -0.346 N 
ATOM     10  C7  non d ame     -32.948   9.726  24.669  0.00  0.00     0.240 C 
ATOM     11  O3  non d ame     -32.287   9.360  25.563  0.00  0.00    -0.271 OA
ATOM     12  H10 non d ame     -32.911  10.569  22.717  0.00  0.00     0.163 HD
BRANCH  10  13
ATOM     13  C6  non d ame     -34.503   9.635  24.755  0.00  0.00     0.086 C 
ATOM     14  H6  non d ame     -34.846   9.115  25.650  0.00  0.00     0.086 H 
BRANCH  13  15
ATOM     15  N2  non d ame     -35.051  10.979  24.818  0.00  0.00    -0.343 N 
ATOM     16  C5  non d ame     -36.011  11.318  25.872  0.00  0.00     0.273 C 
ATOM     17  O2  non d ame     -36.337  10.501  26.662  0.00  0.00    -0.266 OA
ATOM     18  H5  non d ame     -34.769  11.670  24.138  0.00  0.00     0.163 HD
BRANCH  16  19
ATOM     19  C4  non d ame     -36.597  12.736  25.952  0.00  0.00     0.154 A 
ATOM     20  C1  non d ame     -36.626  13.720  24.913  0.00  0.00    -0.017 A 
ATOM     21  C2  non d ame     -37.267  14.839  25.490  0.00  0.00     0.077 A 
ATOM     22  H1  non d ame     -36.240  13.635  23.897  0.00  0.00     0.091 H 
ATOM     23  O1  non d ame     -37.569  14.524  26.715  0.00  0.00    -0.218 OA
ATOM     24  N1  non d ame     -37.188  13.302  27.008  0.00  0.00    -0.123 NA
BRANCH  21  25
ATOM     25  C3  non d ame     -37.553  16.168  24.803  0.00  0.00    -0.029 C 
ATOM     26  H2  non d ame     -36.836  16.321  23.996  0.00  0.00     0.036 H 
ATOM     27  H3  non d ame     -38.563  16.155  24.394  0.00  0.00     0.036 H 
ATOM     28  H4  non d ame     -37.464  16.978  25.526  0.00  0.00     0.036 H 
ENDBRANCH  21  25
ENDBRANCH  16  19
ENDBRANCH  13  15
BRANCH  13  29
ATOM     29  C8  non d ame     -35.035   8.917  23.541  0.00  0.00    -0.049 C 
ATOM     30  H7  non d ame     -35.428   7.944  23.837  0.00  0.00     0.030 H 
ATOM     31  H8  non d ame     -35.832   9.508  23.089  0.00  0.00     0.030 H 
ATOM     32  H9  non d ame     -34.230   8.779  22.818  0.00  0.00     0.030 H 
ENDBRANCH  13  29
ENDBRANCH  10  13
ENDBRANCH   7   9
BRANCH   7  33
ATOM     33  C11 non d ame     -30.367   9.458  22.215  0.00  0.00    -0.033 C 
ATOM     34  H12 non d ame     -30.192  10.113  21.362  0.00  0.00     0.042 H 
BRANCH  33  35
ATOM     35  C12 non d ame     -29.012   8.764  22.559  0.00  0.00    -0.071 C 
ATOM     36  H13 non d ame     -29.206   7.789  23.006  0.00  0.00     0.028 H 
ATOM     37  H14 non d ame     -28.428   8.637  21.649  0.00  0.00     0.028 H 
ATOM     38  H15 non d ame     -28.457   9.382  23.265  0.00  0.00     0.028 H 
ENDBRANCH  33  35
BRANCH  33  39
ATOM     39  C13 non d ame     -31.452   8.410  21.805  0.00  0.00    -0.071 C 
ATOM     40  H16 non d ame     -31.347   7.518  22.423  0.00  0.00     0.028 H 
ATOM     41  H17 non d ame     -32.444   8.839  21.950  0.00  0.00     0.028 H 
ATOM     42  H18 non d ame     -31.321   8.143  20.756  0.00  0.00     0.028 H 
ENDBRANCH  33  39
ENDBRANCH   7  33
ENDBRANCH   4   7
ENDBRANCH   1   3
BRANCH   1  43
ATOM     43  C15 non d ame     -31.311  15.124  24.860  0.00  0.00     0.240 C 
ATOM     44  O5  non d ame     -30.564  15.465  25.719  0.00  0.00    -0.271 OA
ATOM     45  N6  non d ame     -32.746  15.521  24.925  0.00  0.00    -0.355 N 
ATOM     46  H46 non d ame     -33.390  15.241  24.199  0.00  0.00     0.162 HD
BRANCH  45  47
ATOM     47  C20 non d ame     -33.232  16.332  26.062  0.00  0.00     0.013 C 
ATOM     48  H30 non d ame     -32.374  16.841  26.502  0.00  0.00     0.072 H 
BRANCH  47  49
ATOM     49  C21 non d ame     -33.874  15.424  27.086  0.00  0.00    -0.038 C 
ATOM     50  H31 non d ame     -34.938  15.419  26.849  0.00  0.00     0.036 H 
ATOM     51  H32 non d ame     -33.303  14.496  27.055  0.00  0.00     0.036 H 
BRANCH  49  52
ATOM     52  C22 non d ame     -33.751  15.964  28.528  0.00  0.00     0.018 C 
ATOM     53  H33 non d ame     -34.016  17.019  28.471  0.00  0.00     0.048 H 
ATOM     54  H34 non d ame     -34.338  15.286  29.148  0.00  0.00     0.048 H 
BRANCH  52  55
ATOM     55  C23 non d ame     -32.304  15.916  29.093  0.00  0.00     0.259 C 
ATOM     56  O7  non d ame     -31.911  16.772  29.817  0.00  0.00    -0.265 OA
BRANCH  55  57
ATOM     57  O8  non d ame     -31.447  14.842  28.724  0.00  0.00    -0.317 OA
BRANCH  57  58
ATOM     58  C29 non d ame     -31.097  13.978  29.809  0.00  0.00     0.052 C 
ATOM     59  H47 non d ame     -30.047  13.727  29.658  0.00  0.00     0.082 H 
ATOM     60  H48 non d ame     -31.408  14.499  30.713  0.00  0.00     0.082 H 
BRANCH  58  61
ATOM     61  C35 non d ame     -31.936  12.679  29.676  0.00  0.00    -0.034 A 
ATOM     62  C30 non d ame     -32.235  11.925  30.806  0.00  0.00    -0.075 A 
ATOM     63  C31 non d ame     -32.988  10.758  30.688  0.00  0.00    -0.082 A 
ATOM     64  H49 non d ame     -31.878  12.247  31.785  0.00  0.00     0.084 H 
ATOM     65  C32 non d ame     -33.443  10.345  29.432  0.00  0.00    -0.083 A 
ATOM     66  H50 non d ame     -33.222  10.170  31.576  0.00  0.00     0.083 H 
ATOM     67  C33 non d ame     -33.140  11.100  28.307  0.00  0.00    -0.082 A 
ATOM     68  H51 non d ame     -34.033   9.435  29.331  0.00  0.00     0.083 H 
ATOM     69  C34 non d ame     -32.388  12.267  28.421  0.00  0.00    -0.075 A 
ATOM     70  H52 non d ame     -33.493  10.773  27.329  0.00  0.00     0.083 H 
ATOM     71  H53 non d ame     -32.155  12.855  27.533  0.00  0.00     0.084 H 
ENDBRANCH  58  61
ENDBRANCH  57  58
ENDBRANCH  55  57
ENDBRANCH  52  55
ENDBRANCH  49  52
ENDBRANCH  47  49
BRANCH  47  72
ATOM     72  C24 non d ame     -34.257  17.351  25.570  0.00  0.00    -0.039 C 
ATOM     73  H35 non d ame     -34.294  17.226  24.487  0.00  0.00     0.036 H 
ATOM     74  H36 non d ame     -35.151  17.177  26.169  0.00  0.00     0.036 H 
BRANCH  72  75
ATOM     75  C25 non d ame     -33.783  18.855  25.855  0.00  0.00    -0.001 C 
ATOM     76  C26 non d ame     -32.416  18.847  26.769  0.00  0.00    -0.035 C 
ATOM     77  C27 non d ame     -32.598  19.664  27.834  0.00  0.00     0.085 C 
ATOM     78  H38 non d ame     -32.274  17.866  27.221  0.00  0.00     0.036 H 
ATOM     79  H39 non d ame     -31.598  19.319  26.223  0.00  0.00     0.036 H 
ATOM     80  N5  non d ame     -34.074  19.971  27.907  0.00  0.00    -0.049 N 
ATOM     81  H40 non d ame     -32.314  19.073  28.705  0.00  0.00     0.075 H 
ATOM     82  H41 non d ame     -32.056  20.578  27.595  0.00  0.00     0.075 H 
ATOM     83  C28 non d ame     -34.693  19.520  26.485  0.00  0.00     0.193 C 
ATOM     84  H42 non d ame     -34.456  19.375  28.627  0.00  0.00     0.280 HD
ATOM     85  H43 non d ame     -34.153  20.975  27.988  0.00  0.00     0.280 HD
ATOM     86  H44 non d ame     -34.951  20.265  25.733  0.00  0.00     0.129 H 
ATOM     87  H37 non d ame     -33.771  19.463  24.950  0.00  0.00     0.046 H 
BRANCH  83  88
ATOM     88  O6  non d ame     -35.880  18.752  26.686  0.00  0.00    -0.369 OA
ATOM     89  H45 non d ame     -36.261  18.969  27.540  0.00  0.00     0.212 HD
ENDBRANCH  83  88
ENDBRANCH  72  75
ENDBRANCH  47  72
ENDBRANCH  45  47
ENDBRANCH   1  43
BRANCH   1  90
ATOM     90  C16 non d ame     -31.409  14.762  22.374  0.00  0.00    -0.035 C 
ATOM     91  H21 non d ame     -31.598  13.864  21.787  0.00  0.00     0.037 H 
ATOM     92  H22 non d ame     -32.240  15.399  22.678  0.00  0.00     0.037 H 
BRANCH  90  93
ATOM     93  C17 non d ame     -30.457  15.656  21.518  0.00  0.00    -0.059 C 
ATOM     94  H23 non d ame     -30.732  16.696  21.695  0.00  0.00     0.038 H 
BRANCH  93  95
ATOM     95  C18 non d ame     -28.959  15.482  21.927  0.00  0.00    -0.073 C 
ATOM     96  H24 non d ame     -28.548  14.602  21.435  0.00  0.00     0.028 H 
ATOM     97  H25 non d ame     -28.395  16.364  21.624  0.00  0.00     0.028 H 
ATOM     98  H26 non d ame     -28.890  15.361  23.008  0.00  0.00     0.028 H 
ENDBRANCH  93  95
BRANCH  93  99
ATOM     99  C19 non d ame     -30.648  15.384  20.024  0.00  0.00    -0.073 C 
ATOM    100  H27 non d ame     -30.081  16.114  19.446  0.00  0.00     0.028 H 
ATOM    101  H28 non d ame     -30.295  14.380  19.788  0.00  0.00     0.028 H 
ATOM    102  H29 non d ame     -31.706  15.464  19.772  0.00  0.00     0.028 H 
ENDBRANCH  93  99
ENDBRANCH  90  93
ENDBRANCH   1  90
TORSDOF 26
ENDMDL
MODEL 2
REMARK VINA RESULT:      -7.2      1.760      2.707
REMARK  26 active torsions:
REMARK  status: ('A' for Active; 'I' for Inactive)
REMARK    1  A    between atoms: C2_2  and  C3_3 
REMARK    2  A    between atoms: C4_6  and  C5_7 
REMARK       I    between atoms: C5_7  and  N2_9 
REMARK    3  A    between atoms: N2_9  and  C6_10 
REMARK    4  A    between atoms: C6_10  and  C7_11 
REMARK    5  A    between atoms: C6_10  and  C8_13 
REMARK       I    between atoms: C7_11  and  N3_14 
REMARK    6  A    between atoms: N3_14  and  C9_15 
REMARK    7  A    between atoms: C9_15  and  C10_16 
REMARK    8  A    between atoms: C9_15  and  C11_18 
REMARK       I    between atoms: C10_16  and  N4_21 
REMARK    9  A    between atoms: C11_18  and  C12_19 
REMARK   10  A    between atoms: C11_18  and  C13_20 
REMARK   11  A    between atoms: N4_21  and  C14_22 
REMARK   12  A    between atoms: C14_22  and  C15_23 
REMARK   13  A    between atoms: C14_22  and  C16_25 
REMARK       I    between atoms: C15_23  and  N6_40 
REMARK   14  A    between atoms: C16_25  and  C17_26 
REMARK   15  A    between atoms: C17_26  and  C18_27 
REMARK   16  A    between atoms: C17_26  and  C19_28 
REMARK   17  A    between atoms: C20_29  and  C21_30 
REMARK   18  A    between atoms: C20_29  and  C24_33 
REMARK   19  A    between atoms: C20_29  and  N6_40 
REMARK   20  A    between atoms: C21_30  and  C22_31 
REMARK   21  A    between atoms: C22_31  and  C23_32 
REMARK   22  A    between atoms: C23_32  and  O8_43 
REMARK   23  A    between atoms: C24_33  and  C25_34 
REMARK   24  A    between atoms: C28_38  and  O6_39 
REMARK   25  A    between atoms: C29_42  and  O8_43 
REMARK   26  A    between atoms: C29_42  and  C35_49 
ROOT
ATOM      1  C14 non d ame     -31.113  14.066  24.395  0.00  0.00     0.089 C 
ATOM      2  H20 non d ame     -30.131  13.637  24.596  0.00  0.00     0.087 H 
ENDROOT
BRANCH   1   3
ATOM      3  N4  non d ame     -32.101  13.019  24.612  0.00  0.00    -0.346 N 
ATOM      4  C10 non d ame     -31.855  11.941  25.638  0.00  0.00     0.241 C 
ATOM      5  O4  non d ame     -30.853  11.935  26.274  0.00  0.00    -0.271 OA
ATOM      6  H19 non d ame     -32.945  13.040  24.058  0.00  0.00     0.163 HD
BRANCH   4   7
ATOM      7  C9  non d ame     -32.890  10.868  25.853  0.00  0.00     0.092 C 
ATOM      8  H11 non d ame     -33.045  10.729  26.923  0.00  0.00     0.088 H 
BRANCH   7   9
ATOM      9  N3  non d ame     -34.170  11.301  25.283  0.00  0.00    -0.346 N 
ATOM     10  C7  non d ame     -35.197  11.837  26.142  0.00  0.00     0.240 C 
ATOM     11  O3  non d ame     -35.011  11.924  27.295  0.00  0.00    -0.271 OA
ATOM     12  H10 non d ame     -34.345  11.230  24.291  0.00  0.00     0.163 HD
BRANCH  10  13
ATOM     13  C6  non d ame     -36.557  12.293  25.530  0.00  0.00     0.086 C 
ATOM     14  H6  non d ame     -37.408  12.052  26.167  0.00  0.00     0.086 H 
BRANCH  13  15
ATOM     15  N2  non d ame     -36.546  13.739  25.382  0.00  0.00    -0.343 N 
ATOM     16  C5  non d ame     -37.511  14.549  26.130  0.00  0.00     0.273 C 
ATOM     17  O2  non d ame     -38.293  14.027  26.845  0.00  0.00    -0.266 OA
ATOM     18  H5  non d ame     -35.875  14.177  24.766  0.00  0.00     0.163 HD
BRANCH  16  19
ATOM     19  C4  non d ame     -37.509  16.078  25.984  0.00  0.00     0.154 A 
ATOM     20  C1  non d ame     -37.115  16.837  24.836  0.00  0.00    -0.017 A 
ATOM     21  C2  non d ame     -37.299  18.187  25.212  0.00  0.00     0.077 A 
ATOM     22  H1  non d ame     -36.753  16.466  23.878  0.00  0.00     0.091 H 
ATOM     23  O1  non d ame     -37.746  18.191  26.433  0.00  0.00    -0.218 OA
ATOM     24  N1  non d ame     -37.877  16.973  26.905  0.00  0.00    -0.123 NA
BRANCH  21  25
ATOM     25  C3  non d ame     -37.024  19.409  24.346  0.00  0.00    -0.029 C 
ATOM     26  H2  non d ame     -36.803  20.264  24.985  0.00  0.00     0.036 H 
ATOM     27  H3  non d ame     -36.170  19.210  23.699  0.00  0.00     0.036 H 
ATOM     28  H4  non d ame     -37.900  19.627  23.736  0.00  0.00     0.036 H 
ENDBRANCH  21  25
ENDBRANCH  16  19
ENDBRANCH  13  15
BRANCH  13  29
ATOM     29  C8  non d ame     -36.752  11.638  24.186  0.00  0.00    -0.049 C 
ATOM     30  H7  non d ame     -36.222  10.686  24.167  0.00  0.00     0.030 H 
ATOM     31  H8  non d ame     -37.815  11.466  24.017  0.00  0.00     0.030 H 
ATOM     32  H9  non d ame     -36.360  12.289  23.404  0.00  0.00     0.030 H 
ENDBRANCH  13  29
ENDBRANCH  10  13
ENDBRANCH   7   9
BRANCH   7  33
ATOM     33  C11 non d ame     -32.431   9.556  25.152  0.00  0.00    -0.033 C 
ATOM     34  H12 non d ame     -31.343   9.581  25.087  0.00  0.00     0.042 H 
BRANCH  33  35
ATOM     35  C12 non d ame     -32.822   8.298  25.988  0.00  0.00    -0.071 C 
ATOM     36  H13 non d ame     -33.444   7.638  25.383  0.00  0.00     0.028 H 
ATOM     37  H14 non d ame     -31.920   7.769  26.292  0.00  0.00     0.028 H 
ATOM     38  H15 non d ame     -33.378   8.608  26.873  0.00  0.00     0.028 H 
ENDBRANCH  33  35
BRANCH  33  39
ATOM     39  C13 non d ame     -33.000   9.470  23.699  0.00  0.00    -0.071 C 
ATOM     40  H16 non d ame     -34.028   9.832  23.689  0.00  0.00     0.028 H 
ATOM     41  H17 non d ame     -32.391  10.083  23.034  0.00  0.00     0.028 H 
ATOM     42  H18 non d ame     -32.975   8.434  23.360  0.00  0.00     0.028 H 
ENDBRANCH  33  39
ENDBRANCH   7  33
ENDBRANCH   4   7
ENDBRANCH   1   3
BRANCH   1  43
ATOM     43  C15 non d ame     -31.439  15.257  25.341  0.00  0.00     0.240 C 
ATOM     44  O5  non d ame     -31.015  16.340  25.094  0.00  0.00    -0.271 OA
ATOM     45  N6  non d ame     -32.287  15.050  26.549  0.00  0.00    -0.355 N 
ATOM     46  H46 non d ame     -32.656  14.136  26.766  0.00  0.00     0.162 HD
BRANCH  45  47
ATOM     47  C20 non d ame     -32.589  16.193  27.437  0.00  0.00     0.013 C 
ATOM     48  H30 non d ame     -31.858  16.976  27.236  0.00  0.00     0.072 H 
BRANCH  47  49
ATOM     49  C21 non d ame     -32.485  15.748  28.879  0.00  0.00    -0.038 C 
ATOM     50  H31 non d ame     -31.490  16.046  29.209  0.00  0.00     0.036 H 
ATOM     51  H32 non d ame     -33.368  16.150  29.375  0.00  0.00     0.036 H 
BRANCH  49  52
ATOM     52  C22 non d ame     -32.555  14.213  29.038  0.00  0.00     0.018 C 
ATOM     53  H33 non d ame     -33.060  14.038  29.987  0.00  0.00     0.048 H 
ATOM     54  H34 non d ame     -32.992  13.840  28.111  0.00  0.00     0.048 H 
BRANCH  52  55
ATOM     55  C23 non d ame     -31.164  13.532  29.161  0.00  0.00     0.259 C 
ATOM     56  O7  non d ame     -30.187  14.079  28.762  0.00  0.00    -0.265 OA
BRANCH  55  57
ATOM     57  O8  non d ame     -31.071  12.238  29.745  0.00  0.00    -0.317 OA
BRANCH  57  58
ATOM     58  C29 non d ame     -31.814  12.092  30.958  0.00  0.00     0.052 C 
ATOM     59  H47 non d ame     -31.122  11.651  31.676  0.00  0.00     0.082 H 
ATOM     60  H48 non d ame     -32.252  13.070  31.155  0.00  0.00     0.082 H 
BRANCH  58  61
ATOM     61  C35 non d ame     -32.963  11.082  30.698  0.00  0.00    -0.034 A 
ATOM     62  C30 non d ame     -34.040  11.012  31.576  0.00  0.00    -0.075 A 
ATOM     63  C31 non d ame     -35.073  10.104  31.342  0.00  0.00    -0.082 A 
ATOM     64  H49 non d ame     -34.075  11.667  32.447  0.00  0.00     0.084 H 
ATOM     65  C32 non d ame     -35.024   9.264  30.227  0.00  0.00    -0.083 A 
ATOM     66  H50 non d ame     -35.916  10.052  32.031  0.00  0.00     0.083 H 
ATOM     67  C33 non d ame     -33.945   9.336  29.356  0.00  0.00    -0.082 A 
ATOM     68  H51 non d ame     -35.827   8.552  30.037  0.00  0.00     0.083 H 
ATOM     69  C34 non d ame     -32.912  10.242  29.584  0.00  0.00    -0.075 A 
ATOM     70  H52 non d ame     -33.909   8.677  28.488  0.00  0.00     0.083 H 
ATOM     71  H53 non d ame     -32.069  10.294  28.895  0.00  0.00     0.084 H 
ENDBRANCH  58  61
ENDBRANCH  57  58
ENDBRANCH  55  57
ENDBRANCH  52  55
ENDBRANCH  49  52
ENDBRANCH  47  49
BRANCH  47  72
ATOM     72  C24 non d ame     -34.002  16.703  27.162  0.00  0.00    -0.039 C 
ATOM     73  H35 non d ame     -34.334  16.169  26.271  0.00  0.00     0.036 H 
ATOM     74  H36 non d ame     -34.542  16.583  28.101  0.00  0.00     0.036 H 
BRANCH  72  75
ATOM     75  C25 non d ame     -34.010  18.265  26.807  0.00  0.00    -0.001 C 
ATOM     76  C26 non d ame     -32.487  18.873  26.923  0.00  0.00    -0.035 C 
ATOM     77  C27 non d ame     -32.516  19.977  27.708  0.00  0.00     0.085 C 
ATOM     78  H38 non d ame     -31.850  18.184  27.476  0.00  0.00     0.036 H 
ATOM     79  H39 non d ame     -32.163  19.258  25.956  0.00  0.00     0.036 H 
ATOM     80  N5  non d ame     -33.857  19.989  28.402  0.00  0.00    -0.049 N 
ATOM     81  H40 non d ame     -31.732  19.827  28.450  0.00  0.00     0.075 H 
ATOM     82  H41 non d ame     -32.463  20.823  27.024  0.00  0.00     0.075 H 
ATOM     83  C28 non d ame     -34.776  18.923  27.612  0.00  0.00     0.193 C 
ATOM     84  H42 non d ame     -33.697  19.644  29.338  0.00  0.00     0.280 HD
ATOM     85  H43 non d ame     -34.242  20.912  28.263  0.00  0.00     0.280 HD
ATOM     86  H44 non d ame     -35.546  19.263  26.919  0.00  0.00     0.129 H 
ATOM     87  H37 non d ame     -34.560  18.477  25.890  0.00  0.00     0.046 H 
BRANCH  83  88
ATOM     88  O6  non d ame     -35.446  18.067  28.539  0.00  0.00    -0.369 OA
ATOM     89  H45 non d ame     -36.294  17.802  28.174  0.00  0.00     0.212 HD
ENDBRANCH  83  88
ENDBRANCH  72  75
ENDBRANCH  47  72
ENDBRANCH  45  47
ENDBRANCH   1  43
BRANCH   1  90
ATOM     90  C16 non d ame     -31.188  14.526  22.948  0.00  0.00    -0.035 C 
ATOM     91  H21 non d ame     -31.972  13.922  22.493  0.00  0.00     0.037 H 
ATOM     92  H22 non d ame     -31.294  15.610  22.995  0.00  0.00     0.037 H 
BRANCH  90  93
ATOM     93  C17 non d ame     -29.886  14.244  22.133  0.00  0.00    -0.059 C 
ATOM     94  H23 non d ame     -30.070  14.546  21.102  0.00  0.00     0.038 H 
BRANCH  93  95
ATOM     95  C18 non d ame     -28.670  15.070  22.662  0.00  0.00    -0.073 C 
ATOM     96  H24 non d ame     -27.955  15.222  21.854  0.00  0.00     0.028 H 
ATOM     97  H25 non d ame     -29.017  16.036  23.026  0.00  0.00     0.028 H 
ATOM     98  H26 non d ame     -28.188  14.527  23.475  0.00  0.00     0.028 H 
ENDBRANCH  93  95
BRANCH  93  99
ATOM     99  C19 non d ame     -29.564  12.748  22.118  0.00  0.00    -0.073 C 
ATOM    100  H27 non d ame     -29.131  12.479  21.154  0.00  0.00     0.028 H 
ATOM    101  H28 non d ame     -28.851  12.521  22.911  0.00  0.00     0.028 H 
ATOM    102  H29 non d ame     -30.478  12.177  22.278  0.00  0.00     0.028 H 
ENDBRANCH  93  99
ENDBRANCH  90  93
ENDBRANCH   1  90
TORSDOF 26
ENDMDL
MODEL 3
REMARK VINA RESULT:      -7.2      1.430      2.019
REMARK  26 active torsions:
REMARK  status: ('A' for Active; 'I' for Inactive)
REMARK    1  A    between atoms: C2_2  and  C3_3 
REMARK    2  A    between atoms: C4_6  and  C5_7 
REMARK       I    between atoms: C5_7  and  N2_9 
REMARK    3  A    between atoms: N2_9  and  C6_10 
REMARK    4  A    between atoms: C6_10  and  C7_11 
REMARK    5  A    between atoms: C6_10  and  C8_13 
REMARK       I    between atoms: C7_11  and  N3_14 
REMARK    6  A    between atoms: N3_14  and  C9_15 
REMARK    7  A    between atoms: C9_15  and  C10_16 
REMARK    8  A    between atoms: C9_15  and  C11_18 
REMARK       I    between atoms: C10_16  and  N4_21 
REMARK    9  A    between atoms: C11_18  and  C12_19 
REMARK   10  A    between atoms: C11_18  and  C13_20 
REMARK   11  A    between atoms: N4_21  and  C14_22 
REMARK   12  A    between atoms: C14_22  and  C15_23 
REMARK   13  A    between atoms: C14_22  and  C16_25 
REMARK       I    between atoms: C15_23  and  N6_40 
REMARK   14  A    between atoms: C16_25  and  C17_26 
REMARK   15  A    between atoms: C17_26  and  C18_27 
REMARK   16  A    between atoms: C17_26  and  C19_28 
REMARK   17  A    between atoms: C20_29  and  C21_30 
REMARK   18  A    between atoms: C20_29  and  C24_33 
REMARK   19  A    between atoms: C20_29  and  N6_40 
REMARK   20  A    between atoms: C21_30  and  C22_31 
REMARK   21  A    between atoms: C22_31  and  C23_32 
REMARK   22  A    between atoms: C23_32  and  O8_43 
REMARK   23  A    between atoms: C24_33  and  C25_34 
REMARK   24  A    between atoms: C28_38  and  O6_39 
REMARK   25  A    between atoms: C29_42  and  O8_43 
REMARK   26  A    between atoms: C29_42  and  C35_49 
ROOT
ATOM      1  C14 non d ame     -30.690  14.137  23.749  0.00  0.00     0.089 C 
ATOM      2  H20 non d ame     -29.605  14.029  23.709  0.00  0.00     0.087 H 
ENDROOT
BRANCH   1   3
ATOM      3  N4  non d ame     -31.249  12.827  24.050  0.00  0.00    -0.346 N 
ATOM      4  C10 non d ame     -30.699  11.593  23.381  0.00  0.00     0.241 C 
ATOM      5  O4  non d ame     -29.807  11.679  22.601  0.00  0.00    -0.271 OA
ATOM      6  H19 non d ame     -32.008  12.776  24.714  0.00  0.00     0.163 HD
BRANCH   4   7
ATOM      7  C9  non d ame     -31.285  10.244  23.708  0.00  0.00     0.092 C 
ATOM      8  H11 non d ame     -30.810   9.855  24.608  0.00  0.00     0.088 H 
BRANCH   7   9
ATOM      9  N3  non d ame     -32.714  10.391  24.001  0.00  0.00    -0.346 N 
ATOM     10  C7  non d ame     -33.203  10.159  25.338  0.00  0.00     0.240 C 
ATOM     11  O3  non d ame     -32.460   9.852  26.189  0.00  0.00    -0.271 OA
ATOM     12  H10 non d ame     -33.367  10.654  23.276  0.00  0.00     0.163 HD
BRANCH  10  13
ATOM     13  C6  non d ame     -34.725  10.314  25.643  0.00  0.00     0.086 C 
ATOM     14  H6  non d ame     -34.972  10.092  26.681  0.00  0.00     0.086 H 
BRANCH  13  15
ATOM     15  N2  non d ame     -35.115  11.694  25.409  0.00  0.00    -0.343 N 
ATOM     16  C5  non d ame     -36.156  12.301  26.242  0.00  0.00     0.273 C 
ATOM     17  O2  non d ame     -36.676  11.669  27.095  0.00  0.00    -0.266 OA
ATOM     18  H5  non d ame     -34.668  12.226  24.676  0.00  0.00     0.163 HD
BRANCH  16  19
ATOM     19  C4  non d ame     -36.577  13.760  26.006  0.00  0.00     0.154 A 
ATOM     20  C1  non d ame     -36.498  14.496  24.782  0.00  0.00    -0.017 A 
ATOM     21  C2  non d ame     -37.005  15.777  25.094  0.00  0.00     0.077 A 
ATOM     22  H1  non d ame     -36.129  14.153  23.815  0.00  0.00     0.091 H 
ATOM     23  O1  non d ame     -37.335  15.767  26.352  0.00  0.00    -0.218 OA
ATOM     24  N1  non d ame     -37.094  14.601  26.906  0.00  0.00    -0.123 NA
BRANCH  21  25
ATOM     25  C3  non d ame     -37.141  16.951  24.134  0.00  0.00    -0.029 C 
ATOM     26  H2  non d ame     -37.936  17.612  24.478  0.00  0.00     0.036 H 
ATOM     27  H3  non d ame     -36.201  17.502  24.099  0.00  0.00     0.036 H 
ATOM     28  H4  non d ame     -37.382  16.581  23.138  0.00  0.00     0.036 H 
ENDBRANCH  21  25
ENDBRANCH  16  19
ENDBRANCH  13  15
BRANCH  13  29
ATOM     29  C8  non d ame     -35.516   9.394  24.747  0.00  0.00    -0.049 C 
ATOM     30  H7  non d ame     -36.438   9.889  24.442  0.00  0.00     0.030 H 
ATOM     31  H8  non d ame     -34.925   9.151  23.865  0.00  0.00     0.030 H 
ATOM     32  H9  non d ame     -35.757   8.479  25.288  0.00  0.00     0.030 H 
ENDBRANCH  13  29
ENDBRANCH  10  13
ENDBRANCH   7   9
BRANCH   7  33
ATOM     33  C11 non d ame     -31.104   9.291  22.491  0.00  0.00    -0.033 C 
ATOM     34  H12 non d ame     -30.818   9.902  21.634  0.00  0.00     0.042 H 
BRANCH  33  35
ATOM     35  C12 non d ame     -29.955   8.265  22.739  0.00  0.00    -0.071 C 
ATOM     36  H13 non d ame     -28.992   8.758  22.608  0.00  0.00     0.028 H 
ATOM     37  H14 non d ame     -30.028   7.876  23.754  0.00  0.00     0.028 H 
ATOM     38  H15 non d ame     -30.041   7.443  22.028  0.00  0.00     0.028 H 
ENDBRANCH  33  35
BRANCH  33  39
ATOM     39  C13 non d ame     -32.444   8.567  22.142  0.00  0.00    -0.071 C 
ATOM     40  H16 non d ame     -32.251   7.508  21.970  0.00  0.00     0.028 H 
ATOM     41  H17 non d ame     -33.144   8.680  22.971  0.00  0.00     0.028 H 
ATOM     42  H18 non d ame     -32.873   9.010  21.243  0.00  0.00     0.028 H 
ENDBRANCH  33  39
ENDBRANCH   7  33
ENDBRANCH   4   7
ENDBRANCH   1   3
BRANCH   1  43
ATOM     43  C15 non d ame     -31.140  15.133  24.856  0.00  0.00     0.240 C 
ATOM     44  O5  non d ame     -30.948  16.298  24.716  0.00  0.00    -0.271 OA
ATOM     45  N6  non d ame     -31.819  14.636  26.086  0.00  0.00    -0.355 N 
ATOM     46  H46 non d ame     -31.993  13.649  26.214  0.00  0.00     0.162 HD
BRANCH  45  47
ATOM     47  C20 non d ame     -32.243  15.596  27.128  0.00  0.00     0.013 C 
ATOM     48  H30 non d ame     -31.621  16.486  27.037  0.00  0.00     0.072 H 
BRANCH  47  49
ATOM     49  C21 non d ame     -32.052  14.971  28.491  0.00  0.00    -0.038 C 
ATOM     50  H31 non d ame     -30.987  14.751  28.568  0.00  0.00     0.036 H 
ATOM     51  H32 non d ame     -32.521  15.656  29.198  0.00  0.00     0.036 H 
BRANCH  49  52
ATOM     52  C22 non d ame     -32.787  13.621  28.640  0.00  0.00     0.018 C 
ATOM     53  H33 non d ame     -33.314  13.675  29.592  0.00  0.00     0.048 H 
ATOM     54  H34 non d ame     -33.347  13.486  27.713  0.00  0.00     0.048 H 
BRANCH  52  55
ATOM     55  C23 non d ame     -31.835  12.397  28.746  0.00  0.00     0.259 C 
ATOM     56  O7  non d ame     -30.968  12.237  27.950  0.00  0.00    -0.265 OA
BRANCH  55  57
ATOM     57  O8  non d ame     -32.019  11.461  29.801  0.00  0.00    -0.317 OA
BRANCH  57  58
ATOM     58  C29 non d ame     -32.846  11.940  30.866  0.00  0.00     0.052 C 
ATOM     59  H47 non d ame     -32.173  12.116  31.706  0.00  0.00     0.082 H 
ATOM     60  H48 non d ame     -33.421  12.764  30.446  0.00  0.00     0.082 H 
BRANCH  58  61
ATOM     61  C35 non d ame     -33.830  10.804  31.256  0.00  0.00    -0.034 A 
ATOM     62  C30 non d ame     -34.682  10.964  32.344  0.00  0.00    -0.075 A 
ATOM     63  C31 non d ame     -35.565   9.944  32.694  0.00  0.00    -0.082 A 
ATOM     64  H49 non d ame     -34.657  11.887  32.923  0.00  0.00     0.084 H 
ATOM     65  C32 non d ame     -35.593   8.759  31.953  0.00  0.00    -0.083 A 
ATOM     66  H50 non d ame     -36.233  10.072  33.546  0.00  0.00     0.083 H 
ATOM     67  C33 non d ame     -34.739   8.604  30.870  0.00  0.00    -0.082 A 
ATOM     68  H51 non d ame     -36.281   7.957  32.219  0.00  0.00     0.083 H 
ATOM     69  C34 non d ame     -33.855   9.621  30.515  0.00  0.00    -0.075 A 
ATOM     70  H52 non d ame     -34.761   7.677  30.295  0.00  0.00     0.083 H 
ATOM     71  H53 non d ame     -33.188   9.492  29.663  0.00  0.00     0.084 H 
ENDBRANCH  58  61
ENDBRANCH  57  58
ENDBRANCH  55  57
ENDBRANCH  52  55
ENDBRANCH  49  52
ENDBRANCH  47  49
BRANCH  47  72
ATOM     72  C24 non d ame     -33.715  15.954  26.933  0.00  0.00    -0.039 C 
ATOM     73  H35 non d ame     -34.045  15.367  26.075  0.00  0.00     0.036 H 
ATOM     74  H36 non d ame     -34.181  15.806  27.907  0.00  0.00     0.036 H 
BRANCH  72  75
ATOM     75  C25 non d ame     -33.903  17.498  26.549  0.00  0.00    -0.001 C 
ATOM     76  C26 non d ame     -32.515  18.325  26.856  0.00  0.00    -0.035 C 
ATOM     77  C27 non d ame     -32.811  19.412  27.608  0.00  0.00     0.085 C 
ATOM     78  H38 non d ame     -31.865  17.737  27.503  0.00  0.00     0.036 H 
ATOM     79  H39 non d ame     -32.123  18.753  25.933  0.00  0.00     0.036 H 
ATOM     80  N5  non d ame     -34.220  19.226  28.116  0.00  0.00    -0.049 N 
ATOM     81  H40 non d ame     -32.121  19.379  28.451  0.00  0.00     0.075 H 
ATOM     82  H41 non d ame     -32.790  20.256  26.920  0.00  0.00     0.075 H 
ATOM     83  C28 non d ame     -34.858  18.036  27.231  0.00  0.00     0.193 C 
ATOM     84  H42 non d ame     -34.140  18.909  29.072  0.00  0.00     0.280 HD
ATOM     85  H43 non d ame     -34.714  20.082  27.908  0.00  0.00     0.280 HD
ATOM     86  H44 non d ame     -35.569  18.259  26.435  0.00  0.00     0.129 H 
ATOM     87  H37 non d ame     -34.349  17.627  25.563  0.00  0.00     0.046 H 
BRANCH  83  88
ATOM     88  O6  non d ame     -35.516  17.091  28.077  0.00  0.00    -0.369 OA
ATOM     89  H45 non d ame     -36.302  16.760  27.636  0.00  0.00     0.212 HD
ENDBRANCH  83  88
ENDBRANCH  72  75
ENDBRANCH  47  72
ENDBRANCH  45  47
ENDBRANCH   1  43
BRANCH   1  90
ATOM     90  C16 non d ame     -31.212  14.601  22.399  0.00  0.00    -0.035 C 
ATOM     91  H21 non d ame     -31.852  13.794  22.044  0.00  0.00     0.037 H 
ATOM     92  H22 non d ame     -31.632  15.591  22.578  0.00  0.00     0.037 H 
BRANCH  90  93
ATOM     93  C17 non d ame     -30.094  14.784  21.324  0.00  0.00    -0.059 C 
ATOM     94  H23 non d ame     -29.815  13.793  20.966  0.00  0.00     0.038 H 
BRANCH  93  95
ATOM     95  C18 non d ame     -30.589  15.612  20.095  0.00  0.00    -0.073 C 
ATOM     96  H24 non d ame     -29.799  16.289  19.771  0.00  0.00     0.028 H 
ATOM     97  H25 non d ame     -30.843  14.935  19.279  0.00  0.00     0.028 H 
ATOM     98  H26 non d ame     -31.469  16.189  20.376  0.00  0.00     0.028 H 
ENDBRANCH  93  95
BRANCH  93  99
ATOM     99  C19 non d ame     -28.842  15.415  21.938  0.00  0.00    -0.073 C 
ATOM    100  H27 non d ame     -28.930  16.502  21.906  0.00  0.00     0.028 H 
ATOM    101  H28 non d ame     -28.741  15.090  22.974  0.00  0.00     0.028 H 
ATOM    102  H29 non d ame     -27.964  15.104  21.373  0.00  0.00     0.028 H 
ENDBRANCH  93  99
ENDBRANCH  90  93
ENDBRANCH   1  90
TORSDOF 26
ENDMDL
MODEL 4
REMARK VINA RESULT:      -7.1      3.264      6.717
REMARK  26 active torsions:
REMARK  status: ('A' for Active; 'I' for Inactive)
REMARK    1  A    between atoms: C2_2  and  C3_3 
REMARK    2  A    between atoms: C4_6  and  C5_7 
REMARK       I    between atoms: C5_7  and  N2_9 
REMARK    3  A    between atoms: N2_9  and  C6_10 
REMARK    4  A    between atoms: C6_10  and  C7_11 
REMARK    5  A    between atoms: C6_10  and  C8_13 
REMARK       I    between atoms: C7_11  and  N3_14 
REMARK    6  A    between atoms: N3_14  and  C9_15 
REMARK    7  A    between atoms: C9_15  and  C10_16 
REMARK    8  A    between atoms: C9_15  and  C11_18 
REMARK       I    between atoms: C10_16  and  N4_21 
REMARK    9  A    between atoms: C11_18  and  C12_19 
REMARK   10  A    between atoms: C11_18  and  C13_20 
REMARK   11  A    between atoms: N4_21  and  C14_22 
REMARK   12  A    between atoms: C14_22  and  C15_23 
REMARK   13  A    between atoms: C14_22  and  C16_25 
REMARK       I    between atoms: C15_23  and  N6_40 
REMARK   14  A    between atoms: C16_25  and  C17_26 
REMARK   15  A    between atoms: C17_26  and  C18_27 
REMARK   16  A    between atoms: C17_26  and  C19_28 
REMARK   17  A    between atoms: C20_29  and  C21_30 
REMARK   18  A    between atoms: C20_29  and  C24_33 
REMARK   19  A    between atoms: C20_29  and  N6_40 
REMARK   20  A    between atoms: C21_30  and  C22_31 
REMARK   21  A    between atoms: C22_31  and  C23_32 
REMARK   22  A    between atoms: C23_32  and  O8_43 
REMARK   23  A    between atoms: C24_33  and  C25_34 
REMARK   24  A    between atoms: C28_38  and  O6_39 
REMARK   25  A    between atoms: C29_42  and  O8_43 
REMARK   26  A    between atoms: C29_42  and  C35_49 
ROOT
ATOM      1  C14 non d ame     -31.029  13.798  24.755  0.00  0.00     0.089 C 
ATOM      2  H20 non d ame     -30.030  13.745  25.191  0.00  0.00     0.087 H 
ENDROOT
BRANCH   1   3
ATOM      3  N4  non d ame     -31.375  12.464  24.290  0.00  0.00    -0.346 N 
ATOM      4  C10 non d ame     -31.256  11.279  25.215  0.00  0.00     0.241 C 
ATOM      5  O4  non d ame     -30.877  11.425  26.330  0.00  0.00    -0.271 OA
ATOM      6  H19 non d ame     -31.694  12.361  23.337  0.00  0.00     0.163 HD
BRANCH   4   7
ATOM      7  C9  non d ame     -31.625   9.906  24.718  0.00  0.00     0.092 C 
ATOM      8  H11 non d ame     -30.929   9.176  25.132  0.00  0.00     0.088 H 
BRANCH   7   9
ATOM      9  N3  non d ame     -32.962   9.553  25.203  0.00  0.00    -0.346 N 
ATOM     10  C7  non d ame     -33.108   8.694  26.352  0.00  0.00     0.240 C 
ATOM     11  O3  non d ame     -32.160   8.277  26.898  0.00  0.00    -0.271 OA
ATOM     12  H10 non d ame     -33.789   9.903  24.742  0.00  0.00     0.163 HD
BRANCH  10  13
ATOM     13  C6  non d ame     -34.535   8.319  26.862  0.00  0.00     0.086 C 
ATOM     14  H6  non d ame     -35.014   7.555  26.250  0.00  0.00     0.086 H 
BRANCH  13  15
ATOM     15  N2  non d ame     -34.427   7.769  28.203  0.00  0.00    -0.343 N 
ATOM     16  C5  non d ame     -34.747   6.359  28.432  0.00  0.00     0.273 C 
ATOM     17  O2  non d ame     -35.094   5.675  27.532  0.00  0.00    -0.266 OA
ATOM     18  H5  non d ame     -34.133   8.361  28.967  0.00  0.00     0.163 HD
BRANCH  16  19
ATOM     19  C4  non d ame     -34.636   5.764  29.845  0.00  0.00     0.154 A 
ATOM     20  C1  non d ame     -33.731   4.747  30.286  0.00  0.00    -0.017 A 
ATOM     21  C2  non d ame     -34.032   4.561  31.654  0.00  0.00     0.077 A 
ATOM     22  H1  non d ame     -32.973   4.224  29.703  0.00  0.00     0.091 H 
ATOM     23  O1  non d ame     -34.996   5.381  31.953  0.00  0.00    -0.218 OA
ATOM     24  N1  non d ame     -35.366   6.093  30.914  0.00  0.00    -0.123 NA
BRANCH  21  25
ATOM     25  C3  non d ame     -33.351   3.583  32.602  0.00  0.00    -0.029 C 
ATOM     26  H2  non d ame     -33.673   2.568  32.370  0.00  0.00     0.036 H 
ATOM     27  H3  non d ame     -32.270   3.657  32.485  0.00  0.00     0.036 H 
ATOM     28  H4  non d ame     -33.622   3.824  33.630  0.00  0.00     0.036 H 
ENDBRANCH  21  25
ENDBRANCH  16  19
ENDBRANCH  13  15
BRANCH  13  29
ATOM     29  C8  non d ame     -35.406   9.549  26.876  0.00  0.00    -0.049 C 
ATOM     30  H7  non d ame     -34.945  10.313  27.503  0.00  0.00     0.030 H 
ATOM     31  H8  non d ame     -35.514   9.929  25.861  0.00  0.00     0.030 H 
ATOM     32  H9  non d ame     -36.388   9.295  27.276  0.00  0.00     0.030 H 
ENDBRANCH  13  29
ENDBRANCH  10  13
ENDBRANCH   7   9
BRANCH   7  33
ATOM     33  C11 non d ame     -31.622   9.900  23.161  0.00  0.00    -0.033 C 
ATOM     34  H12 non d ame     -31.939  10.888  22.828  0.00  0.00     0.042 H 
BRANCH  33  35
ATOM     35  C12 non d ame     -30.188   9.653  22.596  0.00  0.00    -0.071 C 
ATOM     36  H13 non d ame     -29.767  10.596  22.250  0.00  0.00     0.028 H 
ATOM     37  H14 non d ame     -29.555   9.238  23.380  0.00  0.00     0.028 H 
ATOM     38  H15 non d ame     -30.242   8.952  21.763  0.00  0.00     0.028 H 
ENDBRANCH  33  35
BRANCH  33  39
ATOM     39  C13 non d ame     -32.639   8.853  22.604  0.00  0.00    -0.071 C 
ATOM     40  H16 non d ame     -32.494   7.900  23.114  0.00  0.00     0.028 H 
ATOM     41  H17 non d ame     -33.656   9.206  22.776  0.00  0.00     0.028 H 
ATOM     42  H18 non d ame     -32.476   8.722  21.535  0.00  0.00     0.028 H 
ENDBRANCH  33  39
ENDBRANCH   7  33
ENDBRANCH   4   7
ENDBRANCH   1   3
BRANCH   1  43
ATOM     43  C15 non d ame     -32.097  14.255  25.790  0.00  0.00     0.240 C 
ATOM     44  O5  non d ame     -33.229  14.387  25.452  0.00  0.00    -0.271 OA
ATOM     45  N6  non d ame     -31.710  14.519  27.205  0.00  0.00    -0.355 N 
ATOM     46  H46 non d ame     -30.753  14.406  27.505  0.00  0.00     0.162 HD
BRANCH  45  47
ATOM     47  C20 non d ame     -32.738  14.951  28.177  0.00  0.00     0.013 C 
ATOM     48  H30 non d ame     -33.716  14.720  27.756  0.00  0.00     0.072 H 
BRANCH  47  49
ATOM     49  C21 non d ame     -32.613  16.440  28.408  0.00  0.00    -0.038 C 
ATOM     50  H31 non d ame     -32.932  16.607  29.437  0.00  0.00     0.036 H 
ATOM     51  H32 non d ame     -31.600  16.701  28.101  0.00  0.00     0.036 H 
BRANCH  49  52
ATOM     52  C22 non d ame     -33.566  17.266  27.516  0.00  0.00     0.018 C 
ATOM     53  H33 non d ame     -34.231  16.544  27.046  0.00  0.00     0.048 H 
ATOM     54  H34 non d ame     -33.974  18.044  28.162  0.00  0.00     0.048 H 
BRANCH  52  55
ATOM     55  C23 non d ame     -32.850  18.008  26.354  0.00  0.00     0.259 C 
ATOM     56  O7  non d ame     -31.960  17.487  25.763  0.00  0.00    -0.265 OA
BRANCH  55  57
ATOM     57  O8  non d ame     -33.261  19.325  26.009  0.00  0.00    -0.317 OA
BRANCH  57  58
ATOM     58  C29 non d ame     -34.065  19.963  27.006  0.00  0.00     0.052 C 
ATOM     59  H47 non d ame     -34.171  19.236  27.810  0.00  0.00     0.082 H 
ATOM     60  H48 non d ame     -33.589  20.924  27.199  0.00  0.00     0.082 H 
BRANCH  58  61
ATOM     61  C35 non d ame     -35.467  20.226  26.394  0.00  0.00    -0.034 A 
ATOM     62  C30 non d ame     -36.393  21.003  27.082  0.00  0.00    -0.075 A 
ATOM     63  C31 non d ame     -37.653  21.238  26.533  0.00  0.00    -0.082 A 
ATOM     64  H49 non d ame     -36.133  21.427  28.052  0.00  0.00     0.084 H 
ATOM     65  C32 non d ame     -37.986  20.691  25.291  0.00  0.00    -0.083 A 
ATOM     66  H50 non d ame     -38.376  21.849  27.074  0.00  0.00     0.083 H 
ATOM     67  C33 non d ame     -37.060  19.913  24.609  0.00  0.00    -0.082 A 
ATOM     68  H51 non d ame     -38.968  20.871  24.854  0.00  0.00     0.083 H 
ATOM     69  C34 non d ame     -35.799  19.677  25.154  0.00  0.00    -0.075 A 
ATOM     70  H52 non d ame     -37.324  19.486  23.642  0.00  0.00     0.083 H 
ATOM     71  H53 non d ame     -35.077  19.066  24.612  0.00  0.00     0.084 H 
ENDBRANCH  58  61
ENDBRANCH  57  58
ENDBRANCH  55  57
ENDBRANCH  52  55
ENDBRANCH  49  52
ENDBRANCH  47  49
BRANCH  47  72
ATOM     72  C24 non d ame     -32.542  14.212  29.499  0.00  0.00    -0.039 C 
ATOM     73  H35 non d ame     -31.823  14.809  30.061  0.00  0.00     0.036 H 
ATOM     74  H36 non d ame     -33.545  14.053  29.894  0.00  0.00     0.036 H 
BRANCH  72  75
ATOM     75  C25 non d ame     -31.886  12.767  29.279  0.00  0.00    -0.001 C 
ATOM     76  C26 non d ame     -33.062  11.618  29.243  0.00  0.00    -0.035 C 
ATOM     77  C27 non d ame     -32.735  10.633  30.114  0.00  0.00     0.085 C 
ATOM     78  H38 non d ame     -33.989  12.020  29.649  0.00  0.00     0.036 H 
ATOM     79  H39 non d ame     -33.063  11.114  28.277  0.00  0.00     0.036 H 
ATOM     80  N5  non d ame     -31.615  11.160  30.977  0.00  0.00    -0.049 N 
ATOM     81  H40 non d ame     -33.621  10.486  30.732  0.00  0.00     0.075 H 
ATOM     82  H41 non d ame     -32.357   9.816  29.501  0.00  0.00     0.075 H 
ATOM     83  C28 non d ame     -31.060  12.479  30.229  0.00  0.00     0.193 C 
ATOM     84  H42 non d ame     -32.034  11.439  31.852  0.00  0.00     0.280 HD
ATOM     85  H43 non d ame     -30.891  10.456  30.966  0.00  0.00     0.280 HD
ATOM     86  H44 non d ame     -30.122  12.448  29.674  0.00  0.00     0.129 H 
ATOM     87  H37 non d ame     -31.163  12.762  28.463  0.00  0.00     0.046 H 
BRANCH  83  88
ATOM     88  O6  non d ame     -30.916  13.551  31.162  0.00  0.00    -0.369 OA
ATOM     89  H45 non d ame     -31.636  13.522  31.797  0.00  0.00     0.212 HD
ENDBRANCH  83  88
ENDBRANCH  72  75
ENDBRANCH  47  72
ENDBRANCH  45  47
ENDBRANCH   1  43
BRANCH   1  90
ATOM     90  C16 non d ame     -31.024  14.751  23.571  0.00  0.00    -0.035 C 
ATOM     91  H21 non d ame     -32.068  14.846  23.273  0.00  0.00     0.037 H 
ATOM     92  H22 non d ame     -30.472  15.629  23.909  0.00  0.00     0.037 H 
BRANCH  90  93
ATOM     93  C17 non d ame     -30.259  14.200  22.326  0.00  0.00    -0.059 C 
ATOM     94  H23 non d ame     -30.488  13.138  22.240  0.00  0.00     0.038 H 
BRANCH  93  95
ATOM     95  C18 non d ame     -30.711  14.894  21.001  0.00  0.00    -0.073 C 
ATOM     96  H24 non d ame     -30.150  15.818  20.865  0.00  0.00     0.028 H 
ATOM     97  H25 non d ame     -30.523  14.228  20.160  0.00  0.00     0.028 H 
ATOM     98  H26 non d ame     -31.776  15.120  21.055  0.00  0.00     0.028 H 
ENDBRANCH  93  95
BRANCH  93  99
ATOM     99  C19 non d ame     -28.745  14.324  22.516  0.00  0.00    -0.073 C 
ATOM    100  H27 non d ame     -28.274  13.360  22.324  0.00  0.00     0.028 H 
ATOM    101  H28 non d ame     -28.350  15.066  21.822  0.00  0.00     0.028 H 
ATOM    102  H29 non d ame     -28.531  14.636  23.539  0.00  0.00     0.028 H 
ENDBRANCH  93  99
ENDBRANCH  90  93
ENDBRANCH   1  90
TORSDOF 26
ENDMDL
MODEL 5
REMARK VINA RESULT:      -7.0      3.581      6.131
REMARK  26 active torsions:
REMARK  status: ('A' for Active; 'I' for Inactive)
REMARK    1  A    between atoms: C2_2  and  C3_3 
REMARK    2  A    between atoms: C4_6  and  C5_7 
REMARK       I    between atoms: C5_7  and  N2_9 
REMARK    3  A    between atoms: N2_9  and  C6_10 
REMARK    4  A    between atoms: C6_10  and  C7_11 
REMARK    5  A    between atoms: C6_10  and  C8_13 
REMARK       I    between atoms: C7_11  and  N3_14 
REMARK    6  A    between atoms: N3_14  and  C9_15 
REMARK    7  A    between atoms: C9_15  and  C10_16 
REMARK    8  A    between atoms: C9_15  and  C11_18 
REMARK       I    between atoms: C10_16  and  N4_21 
REMARK    9  A    between atoms: C11_18  and  C12_19 
REMARK   10  A    between atoms: C11_18  and  C13_20 
REMARK   11  A    between atoms: N4_21  and  C14_22 
REMARK   12  A    between atoms: C14_22  and  C15_23 
REMARK   13  A    between atoms: C14_22  and  C16_25 
REMARK       I    between atoms: C15_23  and  N6_40 
REMARK   14  A    between atoms: C16_25  and  C17_26 
REMARK   15  A    between atoms: C17_26  and  C18_27 
REMARK   16  A    between atoms: C17_26  and  C19_28 
REMARK   17  A    between atoms: C20_29  and  C21_30 
REMARK   18  A    between atoms: C20_29  and  C24_33 
REMARK   19  A    between atoms: C20_29  and  N6_40 
REMARK   20  A    between atoms: C21_30  and  C22_31 
REMARK   21  A    between atoms: C22_31  and  C23_32 
REMARK   22  A    between atoms: C23_32  and  O8_43 
REMARK   23  A    between atoms: C24_33  and  C25_34 
REMARK   24  A    between atoms: C28_38  and  O6_39 
REMARK   25  A    between atoms: C29_42  and  O8_43 
REMARK   26  A    between atoms: C29_42  and  C35_49 
ROOT
ATOM      1  C14 non d ame     -32.918  10.470  25.740  0.00  0.00     0.089 C 
ATOM      2  H20 non d ame     -33.657  10.553  24.942  0.00  0.00     0.087 H 
ENDROOT
BRANCH   1   3
ATOM      3  N4  non d ame     -32.339   9.137  25.662  0.00  0.00    -0.346 N 
ATOM      4  C10 non d ame     -33.047   8.041  24.907  0.00  0.00     0.241 C 
ATOM      5  O4  non d ame     -34.085   8.255  24.371  0.00  0.00    -0.271 OA
ATOM      6  H19 non d ame     -31.456   8.974  26.127  0.00  0.00     0.163 HD
BRANCH   4   7
ATOM      7  C9  non d ame     -32.431   6.669  24.833  0.00  0.00     0.092 C 
ATOM      8  H11 non d ame     -31.375   6.735  25.095  0.00  0.00     0.088 H 
BRANCH   7   9
ATOM      9  N3  non d ame     -33.068   5.792  25.819  0.00  0.00    -0.346 N 
ATOM     10  C7  non d ame     -32.681   5.867  27.207  0.00  0.00     0.240 C 
ATOM     11  O3  non d ame     -31.857   6.626  27.546  0.00  0.00    -0.271 OA
ATOM     12  H10 non d ame     -33.780   5.131  25.541  0.00  0.00     0.163 HD
BRANCH  10  13
ATOM     13  C6  non d ame     -33.361   4.929  28.252  0.00  0.00     0.086 C 
ATOM     14  H6  non d ame     -32.742   4.761  29.133  0.00  0.00     0.086 H 
BRANCH  13  15
ATOM     15  N2  non d ame     -34.588   5.553  28.718  0.00  0.00    -0.343 N 
ATOM     16  C5  non d ame     -34.913   5.527  30.145  0.00  0.00     0.273 C 
ATOM     17  O2  non d ame     -34.183   4.999  30.910  0.00  0.00    -0.266 OA
ATOM     18  H5  non d ame     -35.207   6.000  28.057  0.00  0.00     0.163 HD
BRANCH  16  19
ATOM     19  C4  non d ame     -36.206   6.185  30.652  0.00  0.00     0.154 A 
ATOM     20  C1  non d ame     -36.507   7.583  30.693  0.00  0.00    -0.017 A 
ATOM     21  C2  non d ame     -37.808   7.660  31.239  0.00  0.00     0.077 A 
ATOM     22  H1  non d ame     -35.878   8.415  30.375  0.00  0.00     0.091 H 
ATOM     23  O1  non d ame     -38.200   6.443  31.478  0.00  0.00    -0.218 OA
ATOM     24  N1  non d ame     -37.282   5.565  31.145  0.00  0.00    -0.123 NA
BRANCH  21  25
ATOM     25  C3  non d ame     -38.603   8.933  31.497  0.00  0.00    -0.029 C 
ATOM     26  H2  non d ame     -38.871   8.986  32.552  0.00  0.00     0.036 H 
ATOM     27  H3  non d ame     -37.998   9.799  31.231  0.00  0.00     0.036 H 
ATOM     28  H4  non d ame     -39.510   8.924  30.892  0.00  0.00     0.036 H 
ENDBRANCH  21  25
ENDBRANCH  16  19
ENDBRANCH  13  15
BRANCH  13  29
ATOM     29  C8  non d ame     -33.669   3.599  27.612  0.00  0.00    -0.049 C 
ATOM     30  H7  non d ame     -33.794   3.733  26.538  0.00  0.00     0.030 H 
ATOM     31  H8  non d ame     -32.848   2.908  27.799  0.00  0.00     0.030 H 
ATOM     32  H9  non d ame     -34.588   3.195  28.037  0.00  0.00     0.030 H 
ENDBRANCH  13  29
ENDBRANCH  10  13
ENDBRANCH   7   9
BRANCH   7  33
ATOM     33  C11 non d ame     -32.643   6.081  23.407  0.00  0.00    -0.033 C 
ATOM     34  H12 non d ame     -33.456   6.638  22.940  0.00  0.00     0.042 H 
BRANCH  33  35
ATOM     35  C12 non d ame     -31.374   6.271  22.519  0.00  0.00    -0.071 C 
ATOM     36  H13 non d ame     -31.672   6.367  21.475  0.00  0.00     0.028 H 
ATOM     37  H14 non d ame     -30.844   7.170  22.830  0.00  0.00     0.028 H 
ATOM     38  H15 non d ame     -30.720   5.406  22.631  0.00  0.00     0.028 H 
ENDBRANCH  33  35
BRANCH  33  39
ATOM     39  C13 non d ame     -33.066   4.578  23.478  0.00  0.00    -0.071 C 
ATOM     40  H16 non d ame     -32.297   3.963  23.010  0.00  0.00     0.028 H 
ATOM     41  H17 non d ame     -33.183   4.283  24.521  0.00  0.00     0.028 H 
ATOM     42  H18 non d ame     -34.012   4.442  22.954  0.00  0.00     0.028 H 
ENDBRANCH  33  39
ENDBRANCH   7  33
ENDBRANCH   4   7
ENDBRANCH   1   3
BRANCH   1  43
ATOM     43  C15 non d ame     -31.775  11.515  25.594  0.00  0.00     0.240 C 
ATOM     44  O5  non d ame     -30.718  11.309  26.095  0.00  0.00    -0.271 OA
ATOM     45  N6  non d ame     -31.997  12.771  24.822  0.00  0.00    -0.355 N 
ATOM     46  H46 non d ame     -32.890  12.956  24.388  0.00  0.00     0.162 HD
BRANCH  45  47
ATOM     47  C20 non d ame     -30.901  13.755  24.692  0.00  0.00     0.013 C 
ATOM     48  H30 non d ame     -30.083  13.432  25.336  0.00  0.00     0.072 H 
BRANCH  47  49
ATOM     49  C21 non d ame     -31.395  15.115  25.127  0.00  0.00    -0.038 C 
ATOM     50  H31 non d ame     -31.044  15.243  26.152  0.00  0.00     0.036 H 
ATOM     51  H32 non d ame     -31.073  15.808  24.350  0.00  0.00     0.036 H 
BRANCH  49  52
ATOM     52  C22 non d ame     -32.936  15.204  25.180  0.00  0.00     0.018 C 
ATOM     53  H33 non d ame     -33.242  15.605  24.214  0.00  0.00     0.048 H 
ATOM     54  H34 non d ame     -33.278  14.218  25.494  0.00  0.00     0.048 H 
BRANCH  52  55
ATOM     55  C23 non d ame     -33.470  16.202  26.246  0.00  0.00     0.259 C 
ATOM     56  O7  non d ame     -34.371  16.932  25.990  0.00  0.00    -0.265 OA
BRANCH  55  57
ATOM     57  O8  non d ame     -32.860  16.241  27.530  0.00  0.00    -0.317 OA
BRANCH  57  58
ATOM     58  C29 non d ame     -33.515  15.433  28.511  0.00  0.00     0.052 C 
ATOM     59  H47 non d ame     -33.679  16.085  29.369  0.00  0.00     0.082 H 
ATOM     60  H48 non d ame     -34.364  14.980  28.001  0.00  0.00     0.082 H 
BRANCH  58  61
ATOM     61  C35 non d ame     -32.537  14.304  28.933  0.00  0.00    -0.034 A 
ATOM     62  C30 non d ame     -32.983  13.259  29.736  0.00  0.00    -0.075 A 
ATOM     63  C31 non d ame     -32.104  12.246  30.115  0.00  0.00    -0.082 A 
ATOM     64  H49 non d ame     -34.020  13.235  30.069  0.00  0.00     0.084 H 
ATOM     65  C32 non d ame     -30.773  12.280  29.689  0.00  0.00    -0.083 A 
ATOM     66  H50 non d ame     -32.457  11.427  30.743  0.00  0.00     0.083 H 
ATOM     67  C33 non d ame     -30.332  13.327  28.890  0.00  0.00    -0.082 A 
ATOM     68  H51 non d ame     -30.080  11.491  29.980  0.00  0.00     0.083 H 
ATOM     69  C34 non d ame     -31.207  14.341  28.508  0.00  0.00    -0.075 A 
ATOM     70  H52 non d ame     -29.292  13.352  28.562  0.00  0.00     0.083 H 
ATOM     71  H53 non d ame     -30.853  15.159  27.879  0.00  0.00     0.084 H 
ENDBRANCH  58  61
ENDBRANCH  57  58
ENDBRANCH  55  57
ENDBRANCH  52  55
ENDBRANCH  49  52
ENDBRANCH  47  49
BRANCH  47  72
ATOM     72  C24 non d ame     -30.437  13.822  23.238  0.00  0.00    -0.039 C 
ATOM     73  H35 non d ame     -29.472  13.315  23.218  0.00  0.00     0.036 H 
ATOM     74  H36 non d ame     -31.269  13.433  22.650  0.00  0.00     0.036 H 
BRANCH  72  75
ATOM     75  C25 non d ame     -30.189  15.332  22.764  0.00  0.00    -0.001 C 
ATOM     76  C26 non d ame     -31.273  15.738  21.596  0.00  0.00    -0.035 C 
ATOM     77  C27 non d ame     -30.602  16.253  20.538  0.00  0.00     0.085 C 
ATOM     78  H38 non d ame     -31.739  14.840  21.191  0.00  0.00     0.036 H 
ATOM     79  H39 non d ame     -31.893  16.569  21.934  0.00  0.00     0.036 H 
ATOM     80  N5  non d ame     -29.141  15.934  20.744  0.00  0.00    -0.049 N 
ATOM     81  H40 non d ame     -30.967  15.706  19.669  0.00  0.00     0.075 H 
ATOM     82  H41 non d ame     -30.742  17.331  20.602  0.00  0.00     0.075 H 
ATOM     83  C28 non d ame     -28.998  15.483  22.288  0.00  0.00     0.193 C 
ATOM     84  H42 non d ame     -28.936  15.138  20.156  0.00  0.00     0.280 HD
ATOM     85  H43 non d ame     -28.639  16.800  20.614  0.00  0.00     0.280 HD
ATOM     86  H44 non d ame     -28.574  16.163  23.026  0.00  0.00     0.129 H 
ATOM     87  H37 non d ame     -30.087  16.017  23.606  0.00  0.00     0.046 H 
BRANCH  83  88
ATOM     88  O6  non d ame     -28.225  14.285  22.382  0.00  0.00    -0.369 OA
ATOM     89  H45 non d ame     -28.019  13.967  21.499  0.00  0.00     0.212 HD
ENDBRANCH  83  88
ENDBRANCH  72  75
ENDBRANCH  47  72
ENDBRANCH  45  47
ENDBRANCH   1  43
BRANCH   1  90
ATOM     90  C16 non d ame     -33.596  10.638  27.090  0.00  0.00    -0.035 C 
ATOM     91  H21 non d ame     -33.600   9.645  27.537  0.00  0.00     0.037 H 
ATOM     92  H22 non d ame     -33.065  11.455  27.580  0.00  0.00     0.037 H 
BRANCH  90  93
ATOM     93  C17 non d ame     -35.091  11.081  26.989  0.00  0.00    -0.059 C 
ATOM     94  H23 non d ame     -35.518  10.605  26.107  0.00  0.00     0.038 H 
BRANCH  93  95
ATOM     95  C18 non d ame     -35.925  10.626  28.228  0.00  0.00    -0.073 C 
ATOM     96  H24 non d ame     -36.701  11.362  28.435  0.00  0.00     0.028 H 
ATOM     97  H25 non d ame     -36.387   9.661  28.021  0.00  0.00     0.028 H 
ATOM     98  H26 non d ame     -35.270  10.535  29.094  0.00  0.00     0.028 H 
ENDBRANCH  93  95
BRANCH  93  99
ATOM     99  C19 non d ame     -35.199  12.595  26.786  0.00  0.00    -0.073 C 
ATOM    100  H27 non d ame     -35.358  12.809  25.729  0.00  0.00     0.028 H 
ATOM    101  H28 non d ame     -36.039  12.980  27.365  0.00  0.00     0.028 H 
ATOM    102  H29 non d ame     -34.279  13.073  27.120  0.00  0.00     0.028 H 
ENDBRANCH  93  99
ENDBRANCH  90  93
ENDBRANCH   1  90
TORSDOF 26
ENDMDL
MODEL 6
REMARK VINA RESULT:      -6.9      2.493      7.898
REMARK  26 active torsions:
REMARK  status: ('A' for Active; 'I' for Inactive)
REMARK    1  A    between atoms: C2_2  and  C3_3 
REMARK    2  A    between atoms: C4_6  and  C5_7 
REMARK       I    between atoms: C5_7  and  N2_9 
REMARK    3  A    between atoms: N2_9  and  C6_10 
REMARK    4  A    between atoms: C6_10  and  C7_11 
REMARK    5  A    between atoms: C6_10  and  C8_13 
REMARK       I    between atoms: C7_11  and  N3_14 
REMARK    6  A    between atoms: N3_14  and  C9_15 
REMARK    7  A    between atoms: C9_15  and  C10_16 
REMARK    8  A    between atoms: C9_15  and  C11_18 
REMARK       I    between atoms: C10_16  and  N4_21 
REMARK    9  A    between atoms: C11_18  and  C12_19 
REMARK   10  A    between atoms: C11_18  and  C13_20 
REMARK   11  A    between atoms: N4_21  and  C14_22 
REMARK   12  A    between atoms: C14_22  and  C15_23 
REMARK   13  A    between atoms: C14_22  and  C16_25 
REMARK       I    between atoms: C15_23  and  N6_40 
REMARK   14  A    between atoms: C16_25  and  C17_26 
REMARK   15  A    between atoms: C17_26  and  C18_27 
REMARK   16  A    between atoms: C17_26  and  C19_28 
REMARK   17  A    between atoms: C20_29  and  C21_30 
REMARK   18  A    between atoms: C20_29  and  C24_33 
REMARK   19  A    between atoms: C20_29  and  N6_40 
REMARK   20  A    between atoms: C21_30  and  C22_31 
REMARK   21  A    between atoms: C22_31  and  C23_32 
REMARK   22  A    between atoms: C23_32  and  O8_43 
REMARK   23  A    between atoms: C24_33  and  C25_34 
REMARK   24  A    between atoms: C28_38  and  O6_39 
REMARK   25  A    between atoms: C29_42  and  O8_43 
REMARK   26  A    between atoms: C29_42  and  C35_49 
ROOT
ATOM      1  C14 non d ame     -36.485  15.989  26.521  0.00  0.00     0.089 C 
ATOM      2  H20 non d ame     -37.083  16.547  27.242  0.00  0.00     0.087 H 
ENDROOT
BRANCH   1   3
ATOM      3  N4  non d ame     -35.086  16.169  26.879  0.00  0.00    -0.346 N 
ATOM      4  C10 non d ame     -34.686  17.217  27.886  0.00  0.00     0.241 C 
ATOM      5  O4  non d ame     -35.508  17.906  28.393  0.00  0.00    -0.271 OA
ATOM      6  H19 non d ame     -34.402  15.573  26.434  0.00  0.00     0.163 HD
BRANCH   4   7
ATOM      7  C9  non d ame     -33.234  17.385  28.249  0.00  0.00     0.092 C 
ATOM      8  H11 non d ame     -33.161  17.908  29.203  0.00  0.00     0.088 H 
BRANCH   7   9
ATOM      9  N3  non d ame     -32.619  16.067  28.430  0.00  0.00    -0.346 N 
ATOM     10  C7  non d ame     -31.720  15.837  29.534  0.00  0.00     0.240 C 
ATOM     11  O3  non d ame     -31.479  16.701  30.285  0.00  0.00    -0.271 OA
ATOM     12  H10 non d ame     -32.816  15.312  27.789  0.00  0.00     0.163 HD
BRANCH  10  13
ATOM     13  C6  non d ame     -31.066  14.432  29.719  0.00  0.00     0.086 C 
ATOM     14  H6  non d ame     -30.430  14.376  30.602  0.00  0.00     0.086 H 
BRANCH  13  15
ATOM     15  N2  non d ame     -32.116  13.443  29.899  0.00  0.00    -0.343 N 
ATOM     16  C5  non d ame     -31.819  12.197  30.609  0.00  0.00     0.273 C 
ATOM     17  O2  non d ame     -30.732  11.999  31.029  0.00  0.00    -0.266 OA
ATOM     18  H5  non d ame     -33.041  13.620  29.534  0.00  0.00     0.163 HD
BRANCH  16  19
ATOM     19  C4  non d ame     -32.920  11.144  30.808  0.00  0.00     0.154 A 
ATOM     20  C1  non d ame     -33.294  10.102  29.900  0.00  0.00    -0.017 A 
ATOM     21  C2  non d ame     -34.346   9.416  30.548  0.00  0.00     0.077 A 
ATOM     22  H1  non d ame     -32.868   9.879  28.922  0.00  0.00     0.091 H 
ATOM     23  O1  non d ame     -34.543  10.002  31.693  0.00  0.00    -0.218 OA
ATOM     24  N1  non d ame     -33.723  11.013  31.867  0.00  0.00    -0.123 NA
BRANCH  21  25
ATOM     25  C3  non d ame     -35.106   8.213  30.006  0.00  0.00    -0.029 C 
ATOM     26  H2  non d ame     -34.671   7.298  30.407  0.00  0.00     0.036 H 
ATOM     27  H3  non d ame     -36.152   8.280  30.305  0.00  0.00     0.036 H 
ATOM     28  H4  non d ame     -35.039   8.201  28.918  0.00  0.00     0.036 H 
ENDBRANCH  21  25
ENDBRANCH  16  19
ENDBRANCH  13  15
BRANCH  13  29
ATOM     29  C8  non d ame     -30.241  14.094  28.503  0.00  0.00    -0.049 C 
ATOM     30  H7  non d ame     -29.422  14.808  28.410  0.00  0.00     0.030 H 
ATOM     31  H8  non d ame     -29.835  13.088  28.607  0.00  0.00     0.030 H 
ATOM     32  H9  non d ame     -30.868  14.143  27.613  0.00  0.00     0.030 H 
ENDBRANCH  13  29
ENDBRANCH  10  13
ENDBRANCH   7   9
BRANCH   7  33
ATOM     33  C11 non d ame     -32.499  18.145  27.106  0.00  0.00    -0.033 C 
ATOM     34  H12 non d ame     -31.445  18.208  27.378  0.00  0.00     0.042 H 
BRANCH  33  35
ATOM     35  C12 non d ame     -32.589  17.368  25.756  0.00  0.00    -0.071 C 
ATOM     36  H13 non d ame     -32.189  16.362  25.888  0.00  0.00     0.028 H 
ATOM     37  H14 non d ame     -33.631  17.306  25.442  0.00  0.00     0.028 H 
ATOM     38  H15 non d ame     -32.010  17.892  24.996  0.00  0.00     0.028 H 
ENDBRANCH  33  35
BRANCH  33  39
ATOM     39  C13 non d ame     -33.047  19.601  26.960  0.00  0.00    -0.071 C 
ATOM     40  H16 non d ame     -32.288  20.310  27.291  0.00  0.00     0.028 H 
ATOM     41  H17 non d ame     -33.294  19.793  25.915  0.00  0.00     0.028 H 
ATOM     42  H18 non d ame     -33.943  19.715  27.570  0.00  0.00     0.028 H 
ENDBRANCH  33  39
ENDBRANCH   7  33
ENDBRANCH   4   7
ENDBRANCH   1   3
BRANCH   1  43
ATOM     43  C15 non d ame     -36.810  14.468  26.540  0.00  0.00     0.240 C 
ATOM     44  O5  non d ame     -37.882  14.097  26.896  0.00  0.00    -0.271 OA
ATOM     45  N6  non d ame     -35.787  13.473  26.106  0.00  0.00    -0.355 N 
ATOM     46  H46 non d ame     -34.875  13.777  25.797  0.00  0.00     0.162 HD
BRANCH  45  47
ATOM     47  C20 non d ame     -36.112  12.031  26.129  0.00  0.00     0.013 C 
ATOM     48  H30 non d ame     -37.024  11.901  26.712  0.00  0.00     0.072 H 
BRANCH  47  49
ATOM     49  C21 non d ame     -34.974  11.273  26.774  0.00  0.00    -0.038 C 
ATOM     50  H31 non d ame     -34.717  11.835  27.672  0.00  0.00     0.036 H 
ATOM     51  H32 non d ame     -35.318  10.241  26.857  0.00  0.00     0.036 H 
BRANCH  49  52
ATOM     52  C22 non d ame     -33.703  11.241  25.899  0.00  0.00     0.018 C 
ATOM     53  H33 non d ame     -33.221  10.288  26.113  0.00  0.00     0.048 H 
ATOM     54  H34 non d ame     -34.036  11.468  24.886  0.00  0.00     0.048 H 
BRANCH  52  55
ATOM     55  C23 non d ame     -32.664  12.337  26.264  0.00  0.00     0.259 C 
ATOM     56  O7  non d ame     -32.970  13.251  26.959  0.00  0.00    -0.265 OA
BRANCH  55  57
ATOM     57  O8  non d ame     -31.342  12.245  25.746  0.00  0.00    -0.317 OA
BRANCH  57  58
ATOM     58  C29 non d ame     -31.284  11.937  24.350  0.00  0.00     0.052 C 
ATOM     59  H47 non d ame     -30.615  11.080  24.265  0.00  0.00     0.082 H 
ATOM     60  H48 non d ame     -32.320  11.854  24.023  0.00  0.00     0.082 H 
BRANCH  58  61
ATOM     61  C35 non d ame     -30.633  13.142  23.621  0.00  0.00    -0.034 A 
ATOM     62  C30 non d ame     -29.867  12.934  22.478  0.00  0.00    -0.075 A 
ATOM     63  C31 non d ame     -29.283  14.016  21.823  0.00  0.00    -0.082 A 
ATOM     64  H49 non d ame     -29.724  11.923  22.097  0.00  0.00     0.084 H 
ATOM     65  C32 non d ame     -29.464  15.311  22.315  0.00  0.00    -0.083 A 
ATOM     66  H50 non d ame     -28.684  13.850  20.927  0.00  0.00     0.083 H 
ATOM     67  C33 non d ame     -30.227  15.514  23.457  0.00  0.00    -0.082 A 
ATOM     68  H51 non d ame     -29.011  16.163  21.808  0.00  0.00     0.083 H 
ATOM     69  C34 non d ame     -30.815  14.435  24.114  0.00  0.00    -0.075 A 
ATOM     70  H52 non d ame     -30.365  16.525  23.840  0.00  0.00     0.083 H 
ATOM     71  H53 non d ame     -31.413  14.603  25.010  0.00  0.00     0.084 H 
ENDBRANCH  58  61
ENDBRANCH  57  58
ENDBRANCH  55  57
ENDBRANCH  52  55
ENDBRANCH  49  52
ENDBRANCH  47  49
BRANCH  47  72
ATOM     72  C24 non d ame     -36.318  11.525  24.703  0.00  0.00    -0.039 C 
ATOM     73  H35 non d ame     -35.726  12.188  24.072  0.00  0.00     0.036 H 
ATOM     74  H36 non d ame     -36.092  10.459  24.737  0.00  0.00     0.036 H 
BRANCH  72  75
ATOM     75  C25 non d ame     -37.844  11.669  24.238  0.00  0.00    -0.001 C 
ATOM     76  C26 non d ame     -38.346  10.276  23.522  0.00  0.00    -0.035 C 
ATOM     77  C27 non d ame     -38.899  10.576  22.322  0.00  0.00     0.085 C 
ATOM     78  H38 non d ame     -37.486   9.661  23.259  0.00  0.00     0.036 H 
ATOM     79  H39 non d ame     -39.174   9.844  24.083  0.00  0.00     0.036 H 
ATOM     80  N5  non d ame     -38.526  12.006  22.010  0.00  0.00    -0.049 N 
ATOM     81  H40 non d ame     -38.412   9.917  21.604  0.00  0.00     0.075 H 
ATOM     82  H41 non d ame     -39.976  10.515  22.475  0.00  0.00     0.075 H 
ATOM     83  C28 non d ame     -37.986  12.637  23.394  0.00  0.00     0.193 C 
ATOM     84  H42 non d ame     -37.759  11.965  21.354  0.00  0.00     0.280 HD
ATOM     85  H43 non d ame     -39.384  12.475  21.755  0.00  0.00     0.280 HD
ATOM     86  H44 non d ame     -38.612  13.315  23.974  0.00  0.00     0.129 H 
ATOM     87  H37 non d ame     -38.479  12.079  25.024  0.00  0.00     0.046 H 
BRANCH  83  88
ATOM     88  O6  non d ame     -36.764  13.341  23.171  0.00  0.00    -0.369 OA
ATOM     89  H45 non d ame     -36.937  14.125  22.645  0.00  0.00     0.212 HD
ENDBRANCH  83  88
ENDBRANCH  72  75
ENDBRANCH  47  72
ENDBRANCH  45  47
ENDBRANCH   1  43
BRANCH   1  90
ATOM     90  C16 non d ame     -36.715  16.543  25.124  0.00  0.00    -0.035 C 
ATOM     91  H21 non d ame     -35.720  16.675  24.699  0.00  0.00     0.037 H 
ATOM     92  H22 non d ame     -37.421  15.858  24.654  0.00  0.00     0.037 H 
BRANCH  90  93
ATOM     93  C17 non d ame     -37.390  17.951  25.111  0.00  0.00    -0.059 C 
ATOM     94  H23 non d ame     -37.980  18.027  24.198  0.00  0.00     0.038 H 
BRANCH  93  95
ATOM     95  C18 non d ame     -38.358  18.151  26.321  0.00  0.00    -0.073 C 
ATOM     96  H24 non d ame     -39.098  18.911  26.073  0.00  0.00     0.028 H 
ATOM     97  H25 non d ame     -38.864  17.211  26.541  0.00  0.00     0.028 H 
ATOM     98  H26 non d ame     -37.788  18.470  27.194  0.00  0.00     0.028 H 
ENDBRANCH  93  95
BRANCH  93  99
ATOM     99  C19 non d ame     -36.338  19.062  25.067  0.00  0.00    -0.073 C 
ATOM    100  H27 non d ame     -35.490  18.735  24.465  0.00  0.00     0.028 H 
ATOM    101  H28 non d ame     -36.773  19.958  24.624  0.00  0.00     0.028 H 
ATOM    102  H29 non d ame     -36.001  19.284  26.079  0.00  0.00     0.028 H 
ENDBRANCH  93  99
ENDBRANCH  90  93
ENDBRANCH   1  90
TORSDOF 26
ENDMDL
MODEL 7
REMARK VINA RESULT:      -6.8      3.140      9.070
REMARK  26 active torsions:
REMARK  status: ('A' for Active; 'I' for Inactive)
REMARK    1  A    between atoms: C2_2  and  C3_3 
REMARK    2  A    between atoms: C4_6  and  C5_7 
REMARK       I    between atoms: C5_7  and  N2_9 
REMARK    3  A    between atoms: N2_9  and  C6_10 
REMARK    4  A    between atoms: C6_10  and  C7_11 
REMARK    5  A    between atoms: C6_10  and  C8_13 
REMARK       I    between atoms: C7_11  and  N3_14 
REMARK    6  A    between atoms: N3_14  and  C9_15 
REMARK    7  A    between atoms: C9_15  and  C10_16 
REMARK    8  A    between atoms: C9_15  and  C11_18 
REMARK       I    between atoms: C10_16  and  N4_21 
REMARK    9  A    between atoms: C11_18  and  C12_19 
REMARK   10  A    between atoms: C11_18  and  C13_20 
REMARK   11  A    between atoms: N4_21  and  C14_22 
REMARK   12  A    between atoms: C14_22  and  C15_23 
REMARK   13  A    between atoms: C14_22  and  C16_25 
REMARK       I    between atoms: C15_23  and  N6_40 
REMARK   14  A    between atoms: C16_25  and  C17_26 
REMARK   15  A    between atoms: C17_26  and  C18_27 
REMARK   16  A    between atoms: C17_26  and  C19_28 
REMARK   17  A    between atoms: C20_29  and  C21_30 
REMARK   18  A    between atoms: C20_29  and  C24_33 
REMARK   19  A    between atoms: C20_29  and  N6_40 
REMARK   20  A    between atoms: C21_30  and  C22_31 
REMARK   21  A    between atoms: C22_31  and  C23_32 
REMARK   22  A    between atoms: C23_32  and  O8_43 
REMARK   23  A    between atoms: C24_33  and  C25_34 
REMARK   24  A    between atoms: C28_38  and  O6_39 
REMARK   25  A    between atoms: C29_42  and  O8_43 
REMARK   26  A    between atoms: C29_42  and  C35_49 
ROOT
ATOM      1  C14 non d ame     -33.757   6.927  27.810  0.00  0.00     0.089 C 
ATOM      2  H20 non d ame     -33.244   6.487  28.666  0.00  0.00     0.087 H 
ENDROOT
BRANCH   1   3
ATOM      3  N4  non d ame     -34.259   8.229  28.222  0.00  0.00    -0.346 N 
ATOM      4  C10 non d ame     -34.818   8.426  29.608  0.00  0.00     0.241 C 
ATOM      5  O4  non d ame     -34.857   7.521  30.375  0.00  0.00    -0.271 OA
ATOM      6  H19 non d ame     -34.219   8.986  27.555  0.00  0.00     0.163 HD
BRANCH   4   7
ATOM      7  C9  non d ame     -35.328   9.783  30.020  0.00  0.00     0.092 C 
ATOM      8  H11 non d ame     -35.347   9.844  31.108  0.00  0.00     0.088 H 
BRANCH   7   9
ATOM      9  N3  non d ame     -34.405  10.817  29.544  0.00  0.00    -0.346 N 
ATOM     10  C7  non d ame     -33.254  11.175  30.336  0.00  0.00     0.240 C 
ATOM     11  O3  non d ame     -33.056  10.642  31.359  0.00  0.00    -0.271 OA
ATOM     12  H10 non d ame     -34.563  11.287  28.664  0.00  0.00     0.163 HD
BRANCH  10  13
ATOM     13  C6  non d ame     -32.276  12.279  29.825  0.00  0.00     0.086 C 
ATOM     14  H6  non d ame     -31.792  12.012  28.886  0.00  0.00     0.086 H 
BRANCH  13  15
ATOM     15  N2  non d ame     -33.030  13.496  29.574  0.00  0.00    -0.343 N 
ATOM     16  C5  non d ame     -32.434  14.558  28.759  0.00  0.00     0.273 C 
ATOM     17  O2  non d ame     -31.347  14.424  28.314  0.00  0.00    -0.266 OA
ATOM     18  H5  non d ame     -33.957  13.603  29.960  0.00  0.00     0.163 HD
BRANCH  16  19
ATOM     19  C4  non d ame     -33.220  15.849  28.484  0.00  0.00     0.154 A 
ATOM     20  C1  non d ame     -34.550  15.959  27.967  0.00  0.00    -0.017 A 
ATOM     21  C2  non d ame     -34.802  17.347  27.903  0.00  0.00     0.077 A 
ATOM     22  H1  non d ame     -35.228  15.154  27.683  0.00  0.00     0.091 H 
ATOM     23  O1  non d ame     -33.736  17.955  28.336  0.00  0.00    -0.218 OA
ATOM     24  N1  non d ame     -32.799  17.102  28.680  0.00  0.00    -0.123 NA
BRANCH  21  25
ATOM     25  C3  non d ame     -36.084  18.009  27.418  0.00  0.00    -0.029 C 
ATOM     26  H2  non d ame     -35.837  18.867  26.794  0.00  0.00     0.036 H 
ATOM     27  H3  non d ame     -36.665  17.293  26.837  0.00  0.00     0.036 H 
ATOM     28  H4  non d ame     -36.669  18.341  28.276  0.00  0.00     0.036 H 
ENDBRANCH  21  25
ENDBRANCH  16  19
ENDBRANCH  13  15
BRANCH  13  29
ATOM     29  C8  non d ame     -31.215  12.534  30.865  0.00  0.00    -0.049 C 
ATOM     30  H7  non d ame     -31.683  12.898  31.780  0.00  0.00     0.030 H 
ATOM     31  H8  non d ame     -30.681  11.607  31.074  0.00  0.00     0.030 H 
ATOM     32  H9  non d ame     -30.514  13.282  30.493  0.00  0.00     0.030 H 
ENDBRANCH  13  29
ENDBRANCH  10  13
ENDBRANCH   7   9
BRANCH   7  33
ATOM     33  C11 non d ame     -36.734  10.020  29.395  0.00  0.00    -0.033 C 
ATOM     34  H12 non d ame     -37.106   9.056  29.048  0.00  0.00     0.042 H 
BRANCH  33  35
ATOM     35  C12 non d ame     -37.744  10.557  30.456  0.00  0.00    -0.071 C 
ATOM     36  H13 non d ame     -37.328  11.442  30.939  0.00  0.00     0.028 H 
ATOM     37  H14 non d ame     -38.682  10.818  29.966  0.00  0.00     0.028 H 
ATOM     38  H15 non d ame     -37.927   9.787  31.206  0.00  0.00     0.028 H 
ENDBRANCH  33  35
BRANCH  33  39
ATOM     39  C13 non d ame     -36.645  10.976  28.163  0.00  0.00    -0.071 C 
ATOM     40  H16 non d ame     -35.734  11.570  28.229  0.00  0.00     0.028 H 
ATOM     41  H17 non d ame     -36.629  10.386  27.245  0.00  0.00     0.028 H 
ATOM     42  H18 non d ame     -37.511  11.637  28.152  0.00  0.00     0.028 H 
ENDBRANCH  33  39
ENDBRANCH   7  33
ENDBRANCH   4   7
ENDBRANCH   1   3
BRANCH   1  43
ATOM     43  C15 non d ame     -32.809   7.123  26.593  0.00  0.00     0.240 C 
ATOM     44  O5  non d ame     -31.816   6.475  26.506  0.00  0.00    -0.271 OA
ATOM     45  N6  non d ame     -33.142   8.114  25.531  0.00  0.00    -0.355 N 
ATOM     46  H46 non d ame     -33.985   8.667  25.591  0.00  0.00     0.162 HD
BRANCH  45  47
ATOM     47  C20 non d ame     -32.231   8.288  24.379  0.00  0.00     0.013 C 
ATOM     48  H30 non d ame     -31.217   8.078  24.719  0.00  0.00     0.072 H 
BRANCH  47  49
ATOM     49  C21 non d ame     -32.324   9.712  23.879  0.00  0.00    -0.038 C 
ATOM     50  H31 non d ame     -32.365   9.641  22.792  0.00  0.00     0.036 H 
ATOM     51  H32 non d ame     -33.151  10.163  24.428  0.00  0.00     0.036 H 
BRANCH  49  52
ATOM     52  C22 non d ame     -31.070  10.548  24.215  0.00  0.00     0.018 C 
ATOM     53  H33 non d ame     -30.353   9.847  24.640  0.00  0.00     0.048 H 
ATOM     54  H34 non d ame     -30.825  11.093  23.303  0.00  0.00     0.048 H 
BRANCH  52  55
ATOM     55  C23 non d ame     -31.311  11.628  25.306  0.00  0.00     0.259 C 
ATOM     56  O7  non d ame     -31.036  11.410  26.441  0.00  0.00    -0.265 OA
BRANCH  55  57
ATOM     57  O8  non d ame     -31.878  12.879  24.936  0.00  0.00    -0.317 OA
BRANCH  57  58
ATOM     58  C29 non d ame     -30.962  13.976  25.004  0.00  0.00     0.052 C 
ATOM     59  H47 non d ame     -31.477  14.755  25.566  0.00  0.00     0.082 H 
ATOM     60  H48 non d ame     -30.029  13.559  25.381  0.00  0.00     0.082 H 
BRANCH  58  61
ATOM     61  C35 non d ame     -30.722  14.489  23.559  0.00  0.00    -0.034 A 
ATOM     62  C30 non d ame     -31.306  15.679  23.136  0.00  0.00    -0.075 A 
ATOM     63  C31 non d ame     -31.090  16.140  21.838  0.00  0.00    -0.082 A 
ATOM     64  H49 non d ame     -31.933  16.250  23.821  0.00  0.00     0.084 H 
ATOM     65  C32 non d ame     -30.289  15.405  20.961  0.00  0.00    -0.083 A 
ATOM     66  H50 non d ame     -31.548  17.074  21.511  0.00  0.00     0.083 H 
ATOM     67  C33 non d ame     -29.711  14.217  21.386  0.00  0.00    -0.082 A 
ATOM     68  H51 non d ame     -30.114  15.759  19.945  0.00  0.00     0.083 H 
ATOM     69  C34 non d ame     -29.922  13.753  22.683  0.00  0.00    -0.075 A 
ATOM     70  H52 non d ame     -29.088  13.645  20.698  0.00  0.00     0.083 H 
ATOM     71  H53 non d ame     -29.463  12.820  23.010  0.00  0.00     0.084 H 
ENDBRANCH  58  61
ENDBRANCH  57  58
ENDBRANCH  55  57
ENDBRANCH  52  55
ENDBRANCH  49  52
ENDBRANCH  47  49
BRANCH  47  72
ATOM     72  C24 non d ame     -32.625   7.328  23.259  0.00  0.00    -0.039 C 
ATOM     73  H35 non d ame     -31.789   6.635  23.164  0.00  0.00     0.036 H 
ATOM     74  H36 non d ame     -33.613   6.955  23.530  0.00  0.00     0.036 H 
BRANCH  72  75
ATOM     75  C25 non d ame     -32.774   8.084  21.854  0.00  0.00    -0.001 C 
ATOM     76  C26 non d ame     -34.358   8.153  21.420  0.00  0.00    -0.035 C 
ATOM     77  C27 non d ame     -34.484   7.688  20.154  0.00  0.00     0.085 C 
ATOM     78  H38 non d ame     -34.938   7.444  22.011  0.00  0.00     0.036 H 
ATOM     79  H39 non d ame     -34.681   9.191  21.344  0.00  0.00     0.036 H 
ATOM     80  N5  non d ame     -33.185   7.005  19.803  0.00  0.00    -0.049 N 
ATOM     81  H40 non d ame     -35.278   6.942  20.196  0.00  0.00     0.075 H 
ATOM     82  H41 non d ame     -34.600   8.573  19.530  0.00  0.00     0.075 H 
ATOM     83  C28 non d ame     -32.120   7.474  20.923  0.00  0.00     0.193 C 
ATOM     84  H42 non d ame     -33.345   6.014  19.906  0.00  0.00     0.280 HD
ATOM     85  H43 non d ame     -32.898   7.380  18.910  0.00  0.00     0.280 HD
ATOM     86  H44 non d ame     -31.363   8.222  20.689  0.00  0.00     0.129 H 
ATOM     87  H37 non d ame     -32.211   9.018  21.827  0.00  0.00     0.046 H 
BRANCH  83  88
ATOM     88  O6  non d ame     -31.400   6.345  21.421  0.00  0.00    -0.369 OA
ATOM     89  H45 non d ame     -30.907   6.600  22.204  0.00  0.00     0.212 HD
ENDBRANCH  83  88
ENDBRANCH  72  75
ENDBRANCH  47  72
ENDBRANCH  45  47
ENDBRANCH   1  43
BRANCH   1  90
ATOM     90  C16 non d ame     -34.931   6.048  27.407  0.00  0.00    -0.035 C 
ATOM     91  H21 non d ame     -35.817   6.563  27.775  0.00  0.00     0.037 H 
ATOM     92  H22 non d ame     -34.806   5.873  26.339  0.00  0.00     0.037 H 
BRANCH  90  93
ATOM     93  C17 non d ame     -34.924   4.642  28.089  0.00  0.00    -0.059 C 
ATOM     94  H23 non d ame     -35.783   4.595  28.757  0.00  0.00     0.038 H 
BRANCH  93  95
ATOM     95  C18 non d ame     -35.063   3.483  27.050  0.00  0.00    -0.073 C 
ATOM     96  H24 non d ame     -34.187   3.469  26.402  0.00  0.00     0.028 H 
ATOM     97  H25 non d ame     -35.141   2.532  27.575  0.00  0.00     0.028 H 
ATOM     98  H26 non d ame     -35.958   3.641  26.448  0.00  0.00     0.028 H 
ENDBRANCH  93  95
BRANCH  93  99
ATOM     99  C19 non d ame     -33.670   4.457  28.947  0.00  0.00    -0.073 C 
ATOM    100  H27 non d ame     -32.784   4.669  28.347  0.00  0.00     0.028 H 
ATOM    101  H28 non d ame     -33.705   5.140  29.796  0.00  0.00     0.028 H 
ATOM    102  H29 non d ame     -33.626   3.430  29.309  0.00  0.00     0.028 H 
ENDBRANCH  93  99
ENDBRANCH  90  93
ENDBRANCH   1  90
TORSDOF 26
ENDMDL
MODEL 8
REMARK VINA RESULT:      -6.7      1.967      5.187
REMARK  26 active torsions:
REMARK  status: ('A' for Active; 'I' for Inactive)
REMARK    1  A    between atoms: C2_2  and  C3_3 
REMARK    2  A    between atoms: C4_6  and  C5_7 
REMARK       I    between atoms: C5_7  and  N2_9 
REMARK    3  A    between atoms: N2_9  and  C6_10 
REMARK    4  A    between atoms: C6_10  and  C7_11 
REMARK    5  A    between atoms: C6_10  and  C8_13 
REMARK       I    between atoms: C7_11  and  N3_14 
REMARK    6  A    between atoms: N3_14  and  C9_15 
REMARK    7  A    between atoms: C9_15  and  C10_16 
REMARK    8  A    between atoms: C9_15  and  C11_18 
REMARK       I    between atoms: C10_16  and  N4_21 
REMARK    9  A    between atoms: C11_18  and  C12_19 
REMARK   10  A    between atoms: C11_18  and  C13_20 
REMARK   11  A    between atoms: N4_21  and  C14_22 
REMARK   12  A    between atoms: C14_22  and  C15_23 
REMARK   13  A    between atoms: C14_22  and  C16_25 
REMARK       I    between atoms: C15_23  and  N6_40 
REMARK   14  A    between atoms: C16_25  and  C17_26 
REMARK   15  A    between atoms: C17_26  and  C18_27 
REMARK   16  A    between atoms: C17_26  and  C19_28 
REMARK   17  A    between atoms: C20_29  and  C21_30 
REMARK   18  A    between atoms: C20_29  and  C24_33 
REMARK   19  A    between atoms: C20_29  and  N6_40 
REMARK   20  A    between atoms: C21_30  and  C22_31 
REMARK   21  A    between atoms: C22_31  and  C23_32 
REMARK   22  A    between atoms: C23_32  and  O8_43 
REMARK   23  A    between atoms: C24_33  and  C25_34 
REMARK   24  A    between atoms: C28_38  and  O6_39 
REMARK   25  A    between atoms: C29_42  and  O8_43 
REMARK   26  A    between atoms: C29_42  and  C35_49 
ROOT
ATOM      1  C14 non d ame     -30.953  13.727  24.709  0.00  0.00     0.089 C 
ATOM      2  H20 non d ame     -30.009  13.482  25.196  0.00  0.00     0.087 H 
ENDROOT
BRANCH   1   3
ATOM      3  N4  non d ame     -31.454  12.510  24.089  0.00  0.00    -0.346 N 
ATOM      4  C10 non d ame     -31.316  11.183  24.793  0.00  0.00     0.241 C 
ATOM      5  O4  non d ame     -30.794  11.120  25.857  0.00  0.00    -0.271 OA
ATOM      6  H19 non d ame     -31.893  12.585  23.182  0.00  0.00     0.163 HD
BRANCH   4   7
ATOM      7  C9  non d ame     -31.846   9.935  24.138  0.00  0.00     0.092 C 
ATOM      8  H11 non d ame     -31.708   9.090  24.813  0.00  0.00     0.088 H 
BRANCH   7   9
ATOM      9  N3  non d ame     -33.287  10.076  23.910  0.00  0.00    -0.346 N 
ATOM     10  C7  non d ame     -34.222   9.656  24.926  0.00  0.00     0.240 C 
ATOM     11  O3  non d ame     -33.831   9.201  25.931  0.00  0.00    -0.271 OA
ATOM     12  H10 non d ame     -33.639  10.465  23.047  0.00  0.00     0.163 HD
BRANCH  10  13
ATOM     13  C6  non d ame     -35.755   9.806  24.676  0.00  0.00     0.086 C 
ATOM     14  H6  non d ame     -36.356   9.331  25.450  0.00  0.00     0.086 H 
BRANCH  13  15
ATOM     15  N2  non d ame     -36.098  11.218  24.689  0.00  0.00    -0.343 N 
ATOM     16  C5  non d ame     -36.435  11.866  25.959  0.00  0.00     0.273 C 
ATOM     17  O2  non d ame     -36.429  11.243  26.963  0.00  0.00    -0.266 OA
ATOM     18  H5  non d ame     -36.104  11.743  23.826  0.00  0.00     0.163 HD
BRANCH  16  19
ATOM     19  C4  non d ame     -36.799  13.359  25.988  0.00  0.00     0.154 A 
ATOM     20  C1  non d ame     -37.644  14.061  25.071  0.00  0.00    -0.017 A 
ATOM     21  C2  non d ame     -37.654  15.396  25.535  0.00  0.00     0.077 A 
ATOM     22  H1  non d ame     -38.170  13.663  24.203  0.00  0.00     0.091 H 
ATOM     23  O1  non d ame     -36.900  15.443  26.594  0.00  0.00    -0.218 OA
ATOM     24  N1  non d ame     -36.390  14.267  26.878  0.00  0.00    -0.123 NA
BRANCH  21  25
ATOM     25  C3  non d ame     -38.408  16.562  24.909  0.00  0.00    -0.029 C 
ATOM     26  H2  non d ame     -38.432  17.396  25.610  0.00  0.00     0.036 H 
ATOM     27  H3  non d ame     -37.904  16.871  23.994  0.00  0.00     0.036 H 
ATOM     28  H4  non d ame     -39.427  16.253  24.677  0.00  0.00     0.036 H 
ENDBRANCH  21  25
ENDBRANCH  16  19
ENDBRANCH  13  15
BRANCH  13  29
ATOM     29  C8  non d ame     -36.111   9.200  23.342  0.00  0.00    -0.049 C 
ATOM     30  H7  non d ame     -35.591   9.738  22.549  0.00  0.00     0.030 H 
ATOM     31  H8  non d ame     -35.811   8.153  23.327  0.00  0.00     0.030 H 
ATOM     32  H9  non d ame     -37.187   9.273  23.186  0.00  0.00     0.030 H 
ENDBRANCH  13  29
ENDBRANCH  10  13
ENDBRANCH   7   9
BRANCH   7  33
ATOM     33  C11 non d ame     -31.127   9.718  22.775  0.00  0.00    -0.033 C 
ATOM     34  H12 non d ame     -31.318  10.597  22.159  0.00  0.00     0.042 H 
BRANCH  33  35
ATOM     35  C12 non d ame     -29.581   9.603  22.959  0.00  0.00    -0.071 C 
ATOM     36  H13 non d ame     -29.115   9.391  21.997  0.00  0.00     0.028 H 
ATOM     37  H14 non d ame     -29.192  10.541  23.353  0.00  0.00     0.028 H 
ATOM     38  H15 non d ame     -29.358   8.795  23.656  0.00  0.00     0.028 H 
ENDBRANCH  33  35
BRANCH  33  39
ATOM     39  C13 non d ame     -31.703   8.471  22.030  0.00  0.00    -0.071 C 
ATOM     40  H16 non d ame     -32.230   8.796  21.133  0.00  0.00     0.028 H 
ATOM     41  H17 non d ame     -30.886   7.805  21.751  0.00  0.00     0.028 H 
ATOM     42  H18 non d ame     -32.393   7.942  22.687  0.00  0.00     0.028 H 
ENDBRANCH  33  39
ENDBRANCH   7  33
ENDBRANCH   4   7
ENDBRANCH   1   3
BRANCH   1  43
ATOM     43  C15 non d ame     -32.018  14.244  25.718  0.00  0.00     0.240 C 
ATOM     44  O5  non d ame     -33.144  14.388  25.367  0.00  0.00    -0.271 OA
ATOM     45  N6  non d ame     -31.635  14.551  27.126  0.00  0.00    -0.355 N 
ATOM     46  H46 non d ame     -30.683  14.428  27.437  0.00  0.00     0.162 HD
BRANCH  45  47
ATOM     47  C20 non d ame     -32.660  15.041  28.073  0.00  0.00     0.013 C 
ATOM     48  H30 non d ame     -33.640  14.828  27.647  0.00  0.00     0.072 H 
BRANCH  47  49
ATOM     49  C21 non d ame     -32.492  16.531  28.265  0.00  0.00    -0.038 C 
ATOM     50  H31 non d ame     -33.030  16.773  29.182  0.00  0.00     0.036 H 
ATOM     51  H32 non d ame     -31.420  16.718  28.196  0.00  0.00     0.036 H 
BRANCH  49  52
ATOM     52  C22 non d ame     -33.153  17.358  27.140  0.00  0.00     0.018 C 
ATOM     53  H33 non d ame     -32.677  17.032  26.216  0.00  0.00     0.048 H 
ATOM     54  H34 non d ame     -34.228  17.232  27.273  0.00  0.00     0.048 H 
BRANCH  52  55
ATOM     55  C23 non d ame     -32.885  18.885  27.245  0.00  0.00     0.259 C 
ATOM     56  O7  non d ame     -31.847  19.341  26.888  0.00  0.00    -0.265 OA
BRANCH  55  57
ATOM     57  O8  non d ame     -33.891  19.733  27.786  0.00  0.00    -0.317 OA
BRANCH  57  58
ATOM     58  C29 non d ame     -35.181  19.122  27.876  0.00  0.00     0.052 C 
ATOM     59  H47 non d ame     -35.021  18.064  27.670  0.00  0.00     0.082 H 
ATOM     60  H48 non d ame     -35.588  19.434  28.837  0.00  0.00     0.082 H 
BRANCH  58  61
ATOM     61  C35 non d ame     -36.071  19.713  26.751  0.00  0.00    -0.034 A 
ATOM     62  C30 non d ame     -37.060  20.642  27.060  0.00  0.00    -0.075 A 
ATOM     63  C31 non d ame     -37.860  21.173  26.049  0.00  0.00    -0.082 A 
ATOM     64  H49 non d ame     -37.209  20.953  28.094  0.00  0.00     0.084 H 
ATOM     65  C32 non d ame     -37.669  20.770  24.724  0.00  0.00    -0.083 A 
ATOM     66  H50 non d ame     -38.633  21.901  26.294  0.00  0.00     0.083 H 
ATOM     67  C33 non d ame     -36.683  19.841  24.421  0.00  0.00    -0.082 A 
ATOM     68  H51 non d ame     -38.290  21.181  23.928  0.00  0.00     0.083 H 
ATOM     69  C34 non d ame     -35.880  19.309  25.428  0.00  0.00    -0.075 A 
ATOM     70  H52 non d ame     -36.539  19.527  23.387  0.00  0.00     0.083 H 
ATOM     71  H53 non d ame     -35.107  18.581  25.182  0.00  0.00     0.084 H 
ENDBRANCH  58  61
ENDBRANCH  57  58
ENDBRANCH  55  57
ENDBRANCH  52  55
ENDBRANCH  49  52
ENDBRANCH  47  49
BRANCH  47  72
ATOM     72  C24 non d ame     -32.501  14.333  29.417  0.00  0.00    -0.039 C 
ATOM     73  H35 non d ame     -31.816  14.956  29.994  0.00  0.00     0.036 H 
ATOM     74  H36 non d ame     -33.515  14.161  29.777  0.00  0.00     0.036 H 
BRANCH  72  75
ATOM     75  C25 non d ame     -31.808  12.897  29.253  0.00  0.00    -0.001 C 
ATOM     76  C26 non d ame     -32.958  11.722  29.220  0.00  0.00    -0.035 C 
ATOM     77  C27 non d ame     -32.632  10.768  30.125  0.00  0.00     0.085 C 
ATOM     78  H38 non d ame     -33.904  12.114  29.592  0.00  0.00     0.036 H 
ATOM     79  H39 non d ame     -32.924  11.192  28.268  0.00  0.00     0.036 H 
ATOM     80  N5  non d ame     -31.545  11.343  31.001  0.00  0.00    -0.049 N 
ATOM     81  H40 non d ame     -33.530  10.618  30.725  0.00  0.00     0.075 H 
ATOM     82  H41 non d ame     -32.221   9.944  29.544  0.00  0.00     0.075 H 
ATOM     83  C28 non d ame     -31.001  12.653  30.230  0.00  0.00     0.193 C 
ATOM     84  H42 non d ame     -31.992  11.636  31.857  0.00  0.00     0.280 HD
ATOM     85  H43 non d ame     -30.806  10.655  31.027  0.00  0.00     0.280 HD
ATOM     86  H44 non d ame     -30.049  12.628  29.699  0.00  0.00     0.129 H 
ATOM     87  H37 non d ame     -31.065  12.886  28.455  0.00  0.00     0.046 H 
BRANCH  83  88
ATOM     88  O6  non d ame     -30.903  13.753  31.137  0.00  0.00    -0.369 OA
ATOM     89  H45 non d ame     -31.686  13.781  31.691  0.00  0.00     0.212 HD
ENDBRANCH  83  88
ENDBRANCH  72  75
ENDBRANCH  47  72
ENDBRANCH  45  47
ENDBRANCH   1  43
BRANCH   1  90
ATOM     90  C16 non d ame     -30.720  14.773  23.631  0.00  0.00    -0.035 C 
ATOM     91  H21 non d ame     -31.695  14.941  23.176  0.00  0.00     0.037 H 
ATOM     92  H22 non d ame     -30.203  15.593  24.131  0.00  0.00     0.037 H 
BRANCH  90  93
ATOM     93  C17 non d ame     -29.775  14.292  22.484  0.00  0.00    -0.059 C 
ATOM     94  H23 non d ame     -29.734  13.203  22.525  0.00  0.00     0.038 H 
BRANCH  93  95
ATOM     95  C18 non d ame     -30.309  14.696  21.072  0.00  0.00    -0.073 C 
ATOM     96  H24 non d ame     -31.387  14.539  21.033  0.00  0.00     0.028 H 
ATOM     97  H25 non d ame     -30.088  15.746  20.887  0.00  0.00     0.028 H 
ATOM     98  H26 non d ame     -29.825  14.083  20.312  0.00  0.00     0.028 H 
ENDBRANCH  93  95
BRANCH  93  99
ATOM     99  C19 non d ame     -28.350  14.809  22.696  0.00  0.00    -0.073 C 
ATOM    100  H27 non d ame     -28.084  15.485  21.882  0.00  0.00     0.028 H 
ATOM    101  H28 non d ame     -28.294  15.343  23.644  0.00  0.00     0.028 H 
ATOM    102  H29 non d ame     -27.657  13.968  22.712  0.00  0.00     0.028 H 
ENDBRANCH  93  99
ENDBRANCH  90  93
ENDBRANCH   1  90
TORSDOF 26
ENDMDL
MODEL 9
REMARK VINA RESULT:      -6.7      3.592      6.716
REMARK  26 active torsions:
REMARK  status: ('A' for Active; 'I' for Inactive)
REMARK    1  A    between atoms: C2_2  and  C3_3 
REMARK    2  A    between atoms: C4_6  and  C5_7 
REMARK       I    between atoms: C5_7  and  N2_9 
REMARK    3  A    between atoms: N2_9  and  C6_10 
REMARK    4  A    between atoms: C6_10  and  C7_11 
REMARK    5  A    between atoms: C6_10  and  C8_13 
REMARK       I    between atoms: C7_11  and  N3_14 
REMARK    6  A    between atoms: N3_14  and  C9_15 
REMARK    7  A    between atoms: C9_15  and  C10_16 
REMARK    8  A    between atoms: C9_15  and  C11_18 
REMARK       I    between atoms: C10_16  and  N4_21 
REMARK    9  A    between atoms: C11_18  and  C12_19 
REMARK   10  A    between atoms: C11_18  and  C13_20 
REMARK   11  A    between atoms: N4_21  and  C14_22 
REMARK   12  A    between atoms: C14_22  and  C15_23 
REMARK   13  A    between atoms: C14_22  and  C16_25 
REMARK       I    between atoms: C15_23  and  N6_40 
REMARK   14  A    between atoms: C16_25  and  C17_26 
REMARK   15  A    between atoms: C17_26  and  C18_27 
REMARK   16  A    between atoms: C17_26  and  C19_28 
REMARK   17  A    between atoms: C20_29  and  C21_30 
REMARK   18  A    between atoms: C20_29  and  C24_33 
REMARK   19  A    between atoms: C20_29  and  N6_40 
REMARK   20  A    between atoms: C21_30  and  C22_31 
REMARK   21  A    between atoms: C22_31  and  C23_32 
REMARK   22  A    between atoms: C23_32  and  O8_43 
REMARK   23  A    between atoms: C24_33  and  C25_34 
REMARK   24  A    between atoms: C28_38  and  O6_39 
REMARK   25  A    between atoms: C29_42  and  O8_43 
REMARK   26  A    between atoms: C29_42  and  C35_49 
ROOT
ATOM      1  C14 non d ame     -32.989  10.423  26.156  0.00  0.00     0.089 C 
ATOM      2  H20 non d ame     -33.772  10.513  25.403  0.00  0.00     0.087 H 
ENDROOT
BRANCH   1   3
ATOM      3  N4  non d ame     -32.408   9.094  26.029  0.00  0.00    -0.346 N 
ATOM      4  C10 non d ame     -32.974   8.108  25.039  0.00  0.00     0.241 C 
ATOM      5  O4  non d ame     -33.900   8.405  24.358  0.00  0.00    -0.271 OA
ATOM      6  H19 non d ame     -31.623   8.861  26.619  0.00  0.00     0.163 HD
BRANCH   4   7
ATOM      7  C9  non d ame     -32.357   6.739  24.916  0.00  0.00     0.092 C 
ATOM      8  H11 non d ame     -31.325   6.779  25.263  0.00  0.00     0.088 H 
BRANCH   7   9
ATOM      9  N3  non d ame     -33.072   5.801  25.787  0.00  0.00    -0.346 N 
ATOM     10  C7  non d ame     -32.755   5.740  27.193  0.00  0.00     0.240 C 
ATOM     11  O3  non d ame     -31.928   6.437  27.640  0.00  0.00    -0.271 OA
ATOM     12  H10 non d ame     -33.786   5.192  25.416  0.00  0.00     0.163 HD
BRANCH  10  13
ATOM     13  C6  non d ame     -33.517   4.737  28.115  0.00  0.00     0.086 C 
ATOM     14  H6  non d ame     -32.937   4.446  28.991  0.00  0.00     0.086 H 
BRANCH  13  15
ATOM     15  N2  non d ame     -34.726   5.375  28.608  0.00  0.00    -0.343 N 
ATOM     16  C5  non d ame     -34.963   5.452  30.052  0.00  0.00     0.273 C 
ATOM     17  O2  non d ame     -34.177   4.995  30.807  0.00  0.00    -0.266 OA
ATOM     18  H5  non d ame     -35.394   5.760  27.956  0.00  0.00     0.163 HD
BRANCH  16  19
ATOM     19  C4  non d ame     -36.236   6.125  30.588  0.00  0.00     0.154 A 
ATOM     20  C1  non d ame     -36.532   7.525  30.605  0.00  0.00    -0.017 A 
ATOM     21  C2  non d ame     -37.813   7.618  31.194  0.00  0.00     0.077 A 
ATOM     22  H1  non d ame     -35.913   8.347  30.245  0.00  0.00     0.091 H 
ATOM     23  O1  non d ame     -38.198   6.408  31.477  0.00  0.00    -0.218 OA
ATOM     24  N1  non d ame     -37.295   5.520  31.133  0.00  0.00    -0.123 NA
BRANCH  21  25
ATOM     25  C3  non d ame     -38.597   8.898  31.449  0.00  0.00    -0.029 C 
ATOM     26  H2  non d ame     -38.693   9.457  30.519  0.00  0.00     0.036 H 
ATOM     27  H3  non d ame     -39.588   8.648  31.826  0.00  0.00     0.036 H 
ATOM     28  H4  non d ame     -38.071   9.506  32.185  0.00  0.00     0.036 H 
ENDBRANCH  21  25
ENDBRANCH  16  19
ENDBRANCH  13  15
BRANCH  13  29
ATOM     29  C8  non d ame     -33.869   3.498  27.331  0.00  0.00    -0.049 C 
ATOM     30  H7  non d ame     -32.955   2.996  27.014  0.00  0.00     0.030 H 
ATOM     31  H8  non d ame     -34.454   2.826  27.958  0.00  0.00     0.030 H 
ATOM     32  H9  non d ame     -34.454   3.777  26.454  0.00  0.00     0.030 H 
ENDBRANCH  13  29
ENDBRANCH  10  13
ENDBRANCH   7   9
BRANCH   7  33
ATOM     33  C11 non d ame     -32.461   6.254  23.441  0.00  0.00    -0.033 C 
ATOM     34  H12 non d ame     -33.213   6.868  22.945  0.00  0.00     0.042 H 
BRANCH  33  35
ATOM     35  C12 non d ame     -31.113   6.457  22.680  0.00  0.00    -0.071 C 
ATOM     36  H13 non d ame     -31.197   7.317  22.015  0.00  0.00     0.028 H 
ATOM     37  H14 non d ame     -30.313   6.629  23.399  0.00  0.00     0.028 H 
ATOM     38  H15 non d ame     -30.890   5.566  22.093  0.00  0.00     0.028 H 
ENDBRANCH  33  35
BRANCH  33  39
ATOM     39  C13 non d ame     -32.932   4.766  23.373  0.00  0.00    -0.071 C 
ATOM     40  H16 non d ame     -32.484   4.205  24.194  0.00  0.00     0.028 H 
ATOM     41  H17 non d ame     -34.018   4.724  23.454  0.00  0.00     0.028 H 
ATOM     42  H18 non d ame     -32.622   4.330  22.423  0.00  0.00     0.028 H 
ENDBRANCH  33  39
ENDBRANCH   7  33
ENDBRANCH   4   7
ENDBRANCH   1   3
BRANCH   1  43
ATOM     43  C15 non d ame     -31.862  11.477  25.961  0.00  0.00     0.240 C 
ATOM     44  O5  non d ame     -30.877  11.419  26.624  0.00  0.00    -0.271 OA
ATOM     45  N6  non d ame     -32.006  12.554  24.940  0.00  0.00    -0.355 N 
ATOM     46  H46 non d ame     -32.836  12.610  24.368  0.00  0.00     0.162 HD
BRANCH  45  47
ATOM     47  C20 non d ame     -30.925  13.548  24.766  0.00  0.00     0.013 C 
ATOM     48  H30 non d ame     -30.052  13.192  25.312  0.00  0.00     0.072 H 
BRANCH  47  49
ATOM     49  C21 non d ame     -31.376  14.879  25.322  0.00  0.00    -0.038 C 
ATOM     50  H31 non d ame     -30.660  15.612  24.949  0.00  0.00     0.036 H 
ATOM     51  H32 non d ame     -32.431  14.965  25.061  0.00  0.00     0.036 H 
BRANCH  49  52
ATOM     52  C22 non d ame     -31.301  14.941  26.863  0.00  0.00     0.018 C 
ATOM     53  H33 non d ame     -30.612  14.151  27.157  0.00  0.00     0.048 H 
ATOM     54  H34 non d ame     -31.075  15.980  27.106  0.00  0.00     0.048 H 
BRANCH  52  55
ATOM     55  C23 non d ame     -32.648  14.620  27.569  0.00  0.00     0.259 C 
ATOM     56  O7  non d ame     -32.680  13.881  28.499  0.00  0.00    -0.265 OA
BRANCH  55  57
ATOM     57  O8  non d ame     -33.847  15.209  27.083  0.00  0.00    -0.317 OA
BRANCH  57  58
ATOM     58  C29 non d ame     -34.351  16.266  27.905  0.00  0.00     0.052 C 
ATOM     59  H47 non d ame     -35.435  16.241  27.786  0.00  0.00     0.082 H 
ATOM     60  H48 non d ame     -33.907  16.113  28.888  0.00  0.00     0.082 H 
BRANCH  58  61
ATOM     61  C35 non d ame     -33.826  17.610  27.333  0.00  0.00    -0.034 A 
ATOM     62  C30 non d ame     -34.258  18.053  26.087  0.00  0.00    -0.075 A 
ATOM     63  C31 non d ame     -33.786  19.260  25.574  0.00  0.00    -0.082 A 
ATOM     64  H49 non d ame     -34.966  17.456  25.513  0.00  0.00     0.084 H 
ATOM     65  C32 non d ame     -32.876  20.024  26.310  0.00  0.00    -0.083 A 
ATOM     66  H50 non d ame     -34.128  19.606  24.598  0.00  0.00     0.083 H 
ATOM     67  C33 non d ame     -32.445  19.575  27.551  0.00  0.00    -0.082 A 
ATOM     68  H51 non d ame     -32.502  20.969  25.916  0.00  0.00     0.083 H 
ATOM     69  C34 non d ame     -32.916  18.371  28.069  0.00  0.00    -0.075 A 
ATOM     70  H52 non d ame     -31.733  20.172  28.122  0.00  0.00     0.083 H 
ATOM     71  H53 non d ame     -32.573  18.026  29.045  0.00  0.00     0.084 H 
ENDBRANCH  58  61
ENDBRANCH  57  58
ENDBRANCH  55  57
ENDBRANCH  52  55
ENDBRANCH  49  52
ENDBRANCH  47  49
BRANCH  47  72
ATOM     72  C24 non d ame     -30.598  13.699  23.282  0.00  0.00    -0.039 C 
ATOM     73  H35 non d ame     -29.715  13.081  23.115  0.00  0.00     0.036 H 
ATOM     74  H36 non d ame     -31.526  13.477  22.756  0.00  0.00     0.036 H 
BRANCH  72  75
ATOM     75  C25 non d ame     -30.195  15.206  22.915  0.00  0.00    -0.001 C 
ATOM     76  C26 non d ame     -31.335  15.866  21.931  0.00  0.00    -0.035 C 
ATOM     77  C27 non d ame     -30.721  16.397  20.847  0.00  0.00     0.085 C 
ATOM     78  H38 non d ame     -31.964  15.083  21.509  0.00  0.00     0.036 H 
ATOM     79  H39 non d ame     -31.791  16.731  22.414  0.00  0.00     0.036 H 
ATOM     80  N5  non d ame     -29.305  15.874  20.840  0.00  0.00    -0.049 N 
ATOM     81  H40 non d ame     -31.253  15.995  19.985  0.00  0.00     0.075 H 
ATOM     82  H41 non d ame     -30.701  17.473  21.021  0.00  0.00     0.075 H 
ATOM     83  C28 non d ame     -29.056  15.251  22.308  0.00  0.00     0.193 C 
ATOM     84  H42 non d ame     -29.281  15.124  20.164  0.00  0.00     0.280 HD
ATOM     85  H43 non d ame     -28.704  16.677  20.725  0.00  0.00     0.280 HD
ATOM     86  H44 non d ame     -28.460  15.791  23.045  0.00  0.00     0.129 H 
ATOM     87  H37 non d ame     -29.905  15.782  23.794  0.00  0.00     0.046 H 
BRANCH  83  88
ATOM     88  O6  non d ame     -28.452  13.961  22.200  0.00  0.00    -0.369 OA
ATOM     89  H45 non d ame     -28.873  13.357  22.817  0.00  0.00     0.212 HD
ENDBRANCH  83  88
ENDBRANCH  72  75
ENDBRANCH  47  72
ENDBRANCH  45  47
ENDBRANCH   1  43
BRANCH   1  90
ATOM     90  C16 non d ame     -33.591  10.570  27.545  0.00  0.00    -0.035 C 
ATOM     91  H21 non d ame     -33.460   9.598  28.020  0.00  0.00     0.037 H 
ATOM     92  H22 non d ame     -33.119  11.454  27.972  0.00  0.00     0.037 H 
BRANCH  90  93
ATOM     93  C17 non d ame     -35.128  10.851  27.534  0.00  0.00    -0.059 C 
ATOM     94  H23 non d ame     -35.440  11.020  28.565  0.00  0.00     0.038 H 
BRANCH  93  95
ATOM     95  C18 non d ame     -35.487  12.131  26.713  0.00  0.00    -0.073 C 
ATOM     96  H24 non d ame     -35.848  11.840  25.727  0.00  0.00     0.028 H 
ATOM     97  H25 non d ame     -36.264  12.691  27.233  0.00  0.00     0.028 H 
ATOM     98  H26 non d ame     -34.600  12.754  26.605  0.00  0.00     0.028 H 
ENDBRANCH  93  95
BRANCH  93  99
ATOM     99  C19 non d ame     -35.903   9.637  27.017  0.00  0.00    -0.073 C 
ATOM    100  H27 non d ame     -35.241   8.771  26.984  0.00  0.00     0.028 H 
ATOM    101  H28 non d ame     -36.740   9.428  27.684  0.00  0.00     0.028 H 
ATOM    102  H29 non d ame     -36.280   9.845  26.016  0.00  0.00     0.028 H 
ENDBRANCH  93  99
ENDBRANCH  90  93
ENDBRANCH   1  90
TORSDOF 26
ENDMDL
MODEL 10
REMARK VINA RESULT:      -6.6      3.654      7.595
REMARK  26 active torsions:
REMARK  status: ('A' for Active; 'I' for Inactive)
REMARK    1  A    between atoms: C2_2  and  C3_3 
REMARK    2  A    between atoms: C4_6  and  C5_7 
REMARK       I    between atoms: C5_7  and  N2_9 
REMARK    3  A    between atoms: N2_9  and  C6_10 
REMARK    4  A    between atoms: C6_10  and  C7_11 
REMARK    5  A    between atoms: C6_10  and  C8_13 
REMARK       I    between atoms: C7_11  and  N3_14 
REMARK    6  A    between atoms: N3_14  and  C9_15 
REMARK    7  A    between atoms: C9_15  and  C10_16 
REMARK    8  A    between atoms: C9_15  and  C11_18 
REMARK       I    between atoms: C10_16  and  N4_21 
REMARK    9  A    between atoms: C11_18  and  C12_19 
REMARK   10  A    between atoms: C11_18  and  C13_20 
REMARK   11  A    between atoms: N4_21  and  C14_22 
REMARK   12  A    between atoms: C14_22  and  C15_23 
REMARK   13  A    between atoms: C14_22  and  C16_25 
REMARK       I    between atoms: C15_23  and  N6_40 
REMARK   14  A    between atoms: C16_25  and  C17_26 
REMARK   15  A    between atoms: C17_26  and  C18_27 
REMARK   16  A    between atoms: C17_26  and  C19_28 
REMARK   17  A    between atoms: C20_29  and  C21_30 
REMARK   18  A    between atoms: C20_29  and  C24_33 
REMARK   19  A    between atoms: C20_29  and  N6_40 
REMARK   20  A    between atoms: C21_30  and  C22_31 
REMARK   21  A    between atoms: C22_31  and  C23_32 
REMARK   22  A    between atoms: C23_32  and  O8_43 
REMARK   23  A    between atoms: C24_33  and  C25_34 
REMARK   24  A    between atoms: C28_38  and  O6_39 
REMARK   25  A    between atoms: C29_42  and  O8_43 
REMARK   26  A    between atoms: C29_42  and  C35_49 
ROOT
ATOM      1  C14 non d ame     -32.979  13.213  28.021  0.00  0.00     0.089 C 
ATOM      2  H20 non d ame     -34.057  13.307  27.886  0.00  0.00     0.087 H 
ENDROOT
BRANCH   1   3
ATOM      3  N4  non d ame     -32.588  11.901  27.527  0.00  0.00    -0.346 N 
ATOM      4  C10 non d ame     -33.155  11.374  26.234  0.00  0.00     0.241 C 
ATOM      5  O4  non d ame     -33.928  12.023  25.609  0.00  0.00    -0.271 OA
ATOM      6  H19 non d ame     -31.931  11.364  28.075  0.00  0.00     0.163 HD
BRANCH   4   7
ATOM      7  C9  non d ame     -32.735  10.016  25.735  0.00  0.00     0.092 C 
ATOM      8  H11 non d ame     -31.769   9.758  26.169  0.00  0.00     0.088 H 
BRANCH   7   9
ATOM      9  N3  non d ame     -33.698   9.009  26.189  0.00  0.00    -0.346 N 
ATOM     10  C7  non d ame     -33.646   8.523  27.546  0.00  0.00     0.240 C 
ATOM     11  O3  non d ame     -32.834   8.930  28.285  0.00  0.00    -0.271 OA
ATOM     12  H10 non d ame     -34.403   8.646  25.563  0.00  0.00     0.163 HD
BRANCH  10  13
ATOM     13  C6  non d ame     -34.671   7.448  28.023  0.00  0.00     0.086 C 
ATOM     14  H6  non d ame     -34.858   6.681  27.272  0.00  0.00     0.086 H 
BRANCH  13  15
ATOM     15  N2  non d ame     -34.132   6.766  29.188  0.00  0.00    -0.343 N 
ATOM     16  C5  non d ame     -34.288   5.315  29.312  0.00  0.00     0.273 C 
ATOM     17  O2  non d ame     -34.852   4.706  28.470  0.00  0.00    -0.266 OA
ATOM     18  H5  non d ame     -33.654   7.295  29.904  0.00  0.00     0.163 HD
BRANCH  16  19
ATOM     19  C4  non d ame     -33.722   4.581  30.537  0.00  0.00     0.154 A 
ATOM     20  C1  non d ame     -32.628   3.659  30.564  0.00  0.00    -0.017 A 
ATOM     21  C2  non d ame     -32.510   3.274  31.918  0.00  0.00     0.077 A 
ATOM     22  H1  non d ame     -32.014   3.321  29.728  0.00  0.00     0.091 H 
ATOM     23  O1  non d ame     -33.431   3.907  32.582  0.00  0.00    -0.218 OA
ATOM     24  N1  non d ame     -34.152   4.676  31.799  0.00  0.00    -0.123 NA
BRANCH  21  25
ATOM     25  C3  non d ame     -31.491   2.299  32.492  0.00  0.00    -0.029 C 
ATOM     26  H2  non d ame     -31.099   1.670  31.693  0.00  0.00     0.036 H 
ATOM     27  H3  non d ame     -30.674   2.855  32.950  0.00  0.00     0.036 H 
ATOM     28  H4  non d ame     -31.970   1.673  33.245  0.00  0.00     0.036 H 
ENDBRANCH  21  25
ENDBRANCH  16  19
ENDBRANCH  13  15
BRANCH  13  29
ATOM     29  C8  non d ame     -35.977   8.115  28.374  0.00  0.00    -0.049 C 
ATOM     30  H7  non d ame     -36.555   7.462  29.026  0.00  0.00     0.030 H 
ATOM     31  H8  non d ame     -35.777   9.056  28.886  0.00  0.00     0.030 H 
ATOM     32  H9  non d ame     -36.542   8.310  27.462  0.00  0.00     0.030 H 
ENDBRANCH  13  29
ENDBRANCH  10  13
ENDBRANCH   7   9
BRANCH   7  33
ATOM     33  C11 non d ame     -32.694  10.026  24.179  0.00  0.00    -0.033 C 
ATOM     34  H12 non d ame     -33.103  10.980  23.845  0.00  0.00     0.042 H 
BRANCH  33  35
ATOM     35  C12 non d ame     -31.230   9.932  23.648  0.00  0.00    -0.071 C 
ATOM     36  H13 non d ame     -30.534  10.099  24.470  0.00  0.00     0.028 H 
ATOM     37  H14 non d ame     -31.060   8.943  23.224  0.00  0.00     0.028 H 
ATOM     38  H15 non d ame     -31.072  10.689  22.880  0.00  0.00     0.028 H 
ENDBRANCH  33  35
BRANCH  33  39
ATOM     39  C13 non d ame     -33.585   8.885  23.589  0.00  0.00    -0.071 C 
ATOM     40  H16 non d ame     -34.558   8.894  24.079  0.00  0.00     0.028 H 
ATOM     41  H17 non d ame     -33.716   9.044  22.518  0.00  0.00     0.028 H 
ATOM     42  H18 non d ame     -33.101   7.923  23.756  0.00  0.00     0.028 H 
ENDBRANCH  33  39
ENDBRANCH   7  33
ENDBRANCH   4   7
ENDBRANCH   1   3
BRANCH   1  43
ATOM     43  C15 non d ame     -32.191  14.296  27.229  0.00  0.00     0.240 C 
ATOM     44  O5  non d ame     -31.032  14.455  27.438  0.00  0.00    -0.271 OA
ATOM     45  N6  non d ame     -32.881  15.128  26.202  0.00  0.00    -0.355 N 
ATOM     46  H46 non d ame     -33.864  14.999  26.012  0.00  0.00     0.162 HD
BRANCH  45  47
ATOM     47  C20 non d ame     -32.118  16.152  25.456  0.00  0.00     0.013 C 
ATOM     48  H30 non d ame     -31.135  16.241  25.919  0.00  0.00     0.072 H 
BRANCH  47  49
ATOM     49  C21 non d ame     -32.847  17.475  25.535  0.00  0.00    -0.038 C 
ATOM     50  H31 non d ame     -32.452  18.078  24.718  0.00  0.00     0.036 H 
ATOM     51  H32 non d ame     -33.908  17.224  25.565  0.00  0.00     0.036 H 
BRANCH  49  52
ATOM     52  C22 non d ame     -32.544  18.250  26.836  0.00  0.00     0.018 C 
ATOM     53  H33 non d ame     -32.770  17.561  27.649  0.00  0.00     0.048 H 
ATOM     54  H34 non d ame     -31.533  18.641  26.718  0.00  0.00     0.048 H 
BRANCH  52  55
ATOM     55  C23 non d ame     -33.459  19.486  27.056  0.00  0.00     0.259 C 
ATOM     56  O7  non d ame     -33.007  20.585  27.023  0.00  0.00    -0.265 OA
BRANCH  55  57
ATOM     57  O8  non d ame     -34.845  19.291  27.309  0.00  0.00    -0.317 OA
BRANCH  57  58
ATOM     58  C29 non d ame     -35.698  20.213  26.624  0.00  0.00     0.052 C 
ATOM     59  H47 non d ame     -36.434  20.536  27.360  0.00  0.00     0.082 H 
ATOM     60  H48 non d ame     -35.033  20.943  26.162  0.00  0.00     0.082 H 
BRANCH  58  61
ATOM     61  C35 non d ame     -36.434  19.439  25.499  0.00  0.00    -0.034 A 
ATOM     62  C30 non d ame     -36.544  18.054  25.564  0.00  0.00    -0.075 A 
ATOM     63  C31 non d ame     -37.206  17.358  24.553  0.00  0.00    -0.082 A 
ATOM     64  H49 non d ame     -36.112  17.513  26.406  0.00  0.00     0.084 H 
ATOM     65  C32 non d ame     -37.757  18.053  23.472  0.00  0.00    -0.083 A 
ATOM     66  H50 non d ame     -37.292  16.272  24.607  0.00  0.00     0.083 H 
ATOM     67  C33 non d ame     -37.641  19.435  23.411  0.00  0.00    -0.082 A 
ATOM     68  H51 non d ame     -38.276  17.517  22.678  0.00  0.00     0.083 H 
ATOM     69  C34 non d ame     -36.983  20.134  24.420  0.00  0.00    -0.075 A 
ATOM     70  H52 non d ame     -38.070  19.974  22.565  0.00  0.00     0.083 H 
ATOM     71  H53 non d ame     -36.898  21.220  24.365  0.00  0.00     0.084 H 
ENDBRANCH  58  61
ENDBRANCH  57  58
ENDBRANCH  55  57
ENDBRANCH  52  55
ENDBRANCH  49  52
ENDBRANCH  47  49
BRANCH  47  72
ATOM     72  C24 non d ame     -31.981  15.732  23.995  0.00  0.00    -0.039 C 
ATOM     73  H35 non d ame     -32.619  14.854  23.884  0.00  0.00     0.036 H 
ATOM     74  H36 non d ame     -32.186  16.631  23.414  0.00  0.00     0.036 H 
BRANCH  72  75
ATOM     75  C25 non d ame     -30.485  15.275  23.647  0.00  0.00    -0.001 C 
ATOM     76  C26 non d ame     -30.063  15.829  22.157  0.00  0.00    -0.035 C 
ATOM     77  C27 non d ame     -29.582  14.795  21.427  0.00  0.00     0.085 C 
ATOM     78  H38 non d ame     -30.952  16.138  21.607  0.00  0.00     0.036 H 
ATOM     79  H39 non d ame     -29.210  16.503  22.237  0.00  0.00     0.036 H 
ATOM     80  N5  non d ame     -29.941  13.528  22.166  0.00  0.00    -0.049 N 
ATOM     81  H40 non d ame     -30.129  14.824  20.485  0.00  0.00     0.075 H 
ATOM     82  H41 non d ame     -28.499  14.914  21.432  0.00  0.00     0.075 H 
ATOM     83  C28 non d ame     -30.376  13.989  23.651  0.00  0.00     0.193 C 
ATOM     84  H42 non d ame     -30.750  13.144  21.699  0.00  0.00     0.280 HD
ATOM     85  H43 non d ame     -29.091  12.986  22.233  0.00  0.00     0.280 HD
ATOM     86  H44 non d ame     -29.699  13.850  24.494  0.00  0.00     0.129 H 
ATOM     87  H37 non d ame     -29.792  15.474  24.465  0.00  0.00     0.046 H 
BRANCH  83  88
ATOM     88  O6  non d ame     -31.594  13.346  24.030  0.00  0.00    -0.369 OA
ATOM     89  H45 non d ame     -32.175  13.286  23.267  0.00  0.00     0.212 HD
ENDBRANCH  83  88
ENDBRANCH  72  75
ENDBRANCH  47  72
ENDBRANCH  45  47
ENDBRANCH   1  43
BRANCH   1  90
ATOM     90  C16 non d ame     -32.635  13.310  29.499  0.00  0.00    -0.035 C 
ATOM     91  H21 non d ame     -31.767  13.966  29.551  0.00  0.00     0.037 H 
ATOM     92  H22 non d ame     -33.563  13.594  29.994  0.00  0.00     0.037 H 
BRANCH  90  93
ATOM     93  C17 non d ame     -32.197  11.950  30.131  0.00  0.00    -0.059 C 
ATOM     94  H23 non d ame     -32.136  11.217  29.327  0.00  0.00     0.038 H 
BRANCH  93  95
ATOM     95  C18 non d ame     -30.789  12.039  30.802  0.00  0.00    -0.073 C 
ATOM     96  H24 non d ame     -30.364  11.039  30.890  0.00  0.00     0.028 H 
ATOM     97  H25 non d ame     -30.133  12.659  30.192  0.00  0.00     0.028 H 
ATOM     98  H26 non d ame     -30.887  12.480  31.794  0.00  0.00     0.028 H 
ENDBRANCH  93  95
BRANCH  93  99
ATOM     99  C19 non d ame     -33.245  11.447  31.127  0.00  0.00    -0.073 C 
ATOM    100  H27 non d ame     -33.685  12.296  31.650  0.00  0.00     0.028 H 
ATOM    101  H28 non d ame     -34.025  10.906  30.592  0.00  0.00     0.028 H 
ATOM    102  H29 non d ame     -32.771  10.782  31.848  0.00  0.00     0.028 H 
ENDBRANCH  93  99
ENDBRANCH  90  93
ENDBRANCH   1  90
TORSDOF 26
ENDMDL
MODEL 11
REMARK VINA RESULT:      -6.5      3.121      7.281
REMARK  26 active torsions:
REMARK  status: ('A' for Active; 'I' for Inactive)
REMARK    1  A    between atoms: C2_2  and  C3_3 
REMARK    2  A    between atoms: C4_6  and  C5_7 
REMARK       I    between atoms: C5_7  and  N2_9 
REMARK    3  A    between atoms: N2_9  and  C6_10 
REMARK    4  A    between atoms: C6_10  and  C7_11 
REMARK    5  A    between atoms: C6_10  and  C8_13 
REMARK       I    between atoms: C7_11  and  N3_14 
REMARK    6  A    between atoms: N3_14  and  C9_15 
REMARK    7  A    between atoms: C9_15  and  C10_16 
REMARK    8  A    between atoms: C9_15  and  C11_18 
REMARK       I    between atoms: C10_16  and  N4_21 
REMARK    9  A    between atoms: C11_18  and  C12_19 
REMARK   10  A    between atoms: C11_18  and  C13_20 
REMARK   11  A    between atoms: N4_21  and  C14_22 
REMARK   12  A    between atoms: C14_22  and  C15_23 
REMARK   13  A    between atoms: C14_22  and  C16_25 
REMARK       I    between atoms: C15_23  and  N6_40 
REMARK   14  A    between atoms: C16_25  and  C17_26 
REMARK   15  A    between atoms: C17_26  and  C18_27 
REMARK   16  A    between atoms: C17_26  and  C19_28 
REMARK   17  A    between atoms: C20_29  and  C21_30 
REMARK   18  A    between atoms: C20_29  and  C24_33 
REMARK   19  A    between atoms: C20_29  and  N6_40 
REMARK   20  A    between atoms: C21_30  and  C22_31 
REMARK   21  A    between atoms: C22_31  and  C23_32 
REMARK   22  A    between atoms: C23_32  and  O8_43 
REMARK   23  A    between atoms: C24_33  and  C25_34 
REMARK   24  A    between atoms: C28_38  and  O6_39 
REMARK   25  A    between atoms: C29_42  and  O8_43 
REMARK   26  A    between atoms: C29_42  and  C35_49 
ROOT
ATOM      1  C14 non d ame     -31.173  14.018  24.217  0.00  0.00     0.089 C 
ATOM      2  H20 non d ame     -30.169  13.949  24.635  0.00  0.00     0.087 H 
ENDROOT
BRANCH   1   3
ATOM      3  N4  non d ame     -31.729  12.673  24.191  0.00  0.00    -0.346 N 
ATOM      4  C10 non d ame     -31.572  11.761  25.381  0.00  0.00     0.241 C 
ATOM      5  O4  non d ame     -30.991  12.130  26.348  0.00  0.00    -0.271 OA
ATOM      6  H19 non d ame     -32.218  12.377  23.358  0.00  0.00     0.163 HD
BRANCH   4   7
ATOM      7  C9  non d ame     -32.159  10.374  25.339  0.00  0.00     0.092 C 
ATOM      8  H11 non d ame     -33.044  10.378  24.703  0.00  0.00     0.088 H 
BRANCH   7   9
ATOM      9  N3  non d ame     -31.194   9.453  24.731  0.00  0.00    -0.346 N 
ATOM     10  C7  non d ame     -31.255   9.175  23.317  0.00  0.00     0.240 C 
ATOM     11  O3  non d ame     -32.075   9.683  22.654  0.00  0.00    -0.271 OA
ATOM     12  H10 non d ame     -30.482   9.006  25.291  0.00  0.00     0.163 HD
BRANCH  10  13
ATOM     13  C6  non d ame     -30.227   8.191  22.677  0.00  0.00     0.086 C 
ATOM     14  H6  non d ame     -29.740   7.552  23.413  0.00  0.00     0.086 H 
BRANCH  13  15
ATOM     15  N2  non d ame     -30.927   7.310  21.758  0.00  0.00    -0.343 N 
ATOM     16  C5  non d ame     -31.668   6.161  22.284  0.00  0.00     0.273 C 
ATOM     17  O2  non d ame     -31.692   5.953  23.447  0.00  0.00    -0.266 OA
ATOM     18  H5  non d ame     -30.899   7.493  20.765  0.00  0.00     0.163 HD
BRANCH  16  19
ATOM     19  C4  non d ame     -32.414   5.222  21.324  0.00  0.00     0.154 A 
ATOM     20  C1  non d ame     -31.907   4.034  20.708  0.00  0.00    -0.017 A 
ATOM     21  C2  non d ame     -32.978   3.544  19.927  0.00  0.00     0.077 A 
ATOM     22  H1  non d ame     -30.915   3.595  20.812  0.00  0.00     0.091 H 
ATOM     23  O1  non d ame     -33.978   4.361  20.084  0.00  0.00    -0.218 OA
ATOM     24  N1  non d ame     -33.673   5.348  20.895  0.00  0.00    -0.123 NA
BRANCH  21  25
ATOM     25  C3  non d ame     -32.963   2.290  19.062  0.00  0.00    -0.029 C 
ATOM     26  H2  non d ame     -32.985   1.408  19.701  0.00  0.00     0.036 H 
ATOM     27  H3  non d ame     -33.837   2.288  18.411  0.00  0.00     0.036 H 
ATOM     28  H4  non d ame     -32.058   2.277  18.456  0.00  0.00     0.036 H 
ENDBRANCH  21  25
ENDBRANCH  16  19
ENDBRANCH  13  15
BRANCH  13  29
ATOM     29  C8  non d ame     -29.171   8.974  21.938  0.00  0.00    -0.049 C 
ATOM     30  H7  non d ame     -29.593   9.918  21.594  0.00  0.00     0.030 H 
ATOM     31  H8  non d ame     -28.333   9.173  22.606  0.00  0.00     0.030 H 
ATOM     32  H9  non d ame     -28.824   8.397  21.081  0.00  0.00     0.030 H 
ENDBRANCH  13  29
ENDBRANCH  10  13
ENDBRANCH   7   9
BRANCH   7  33
ATOM     33  C11 non d ame     -32.481   9.903  26.787  0.00  0.00    -0.033 C 
ATOM     34  H12 non d ame     -31.720  10.322  27.446  0.00  0.00     0.042 H 
BRANCH  33  35
ATOM     35  C12 non d ame     -33.865  10.442  27.266  0.00  0.00    -0.071 C 
ATOM     36  H13 non d ame     -33.781  11.504  27.497  0.00  0.00     0.028 H 
ATOM     37  H14 non d ame     -34.603  10.298  26.478  0.00  0.00     0.028 H 
ATOM     38  H15 non d ame     -34.176   9.900  28.159  0.00  0.00     0.028 H 
ENDBRANCH  33  35
BRANCH  33  39
ATOM     39  C13 non d ame     -32.410   8.346  26.898  0.00  0.00    -0.071 C 
ATOM     40  H16 non d ame     -31.731   8.069  27.704  0.00  0.00     0.028 H 
ATOM     41  H17 non d ame     -33.405   7.951  27.108  0.00  0.00     0.028 H 
ATOM     42  H18 non d ame     -32.047   7.931  25.957  0.00  0.00     0.028 H 
ENDBRANCH  33  39
ENDBRANCH   7  33
ENDBRANCH   4   7
ENDBRANCH   1   3
BRANCH   1  43
ATOM     43  C15 non d ame     -32.105  14.922  25.073  0.00  0.00     0.240 C 
ATOM     44  O5  non d ame     -33.109  15.351  24.602  0.00  0.00    -0.271 OA
ATOM     45  N6  non d ame     -31.750  15.247  26.484  0.00  0.00    -0.355 N 
ATOM     46  H46 non d ame     -30.903  14.885  26.897  0.00  0.00     0.162 HD
BRANCH  45  47
ATOM     47  C20 non d ame     -32.648  16.108  27.286  0.00  0.00     0.013 C 
ATOM     48  H30 non d ame     -33.654  16.015  26.878  0.00  0.00     0.072 H 
BRANCH  47  49
ATOM     49  C21 non d ame     -32.181  17.543  27.189  0.00  0.00    -0.038 C 
ATOM     50  H31 non d ame     -32.219  17.934  28.206  0.00  0.00     0.036 H 
ATOM     51  H32 non d ame     -31.233  17.508  26.652  0.00  0.00     0.036 H 
BRANCH  49  52
ATOM     52  C22 non d ame     -33.129  18.425  26.347  0.00  0.00     0.018 C 
ATOM     53  H33 non d ame     -32.491  19.163  25.862  0.00  0.00     0.048 H 
ATOM     54  H34 non d ame     -33.718  17.733  25.744  0.00  0.00     0.048 H 
BRANCH  52  55
ATOM     55  C23 non d ame     -34.150  19.233  27.194  0.00  0.00     0.259 C 
ATOM     56  O7  non d ame     -34.095  19.218  28.381  0.00  0.00    -0.265 OA
BRANCH  55  57
ATOM     57  O8  non d ame     -35.163  19.983  26.535  0.00  0.00    -0.317 OA
BRANCH  57  58
ATOM     58  C29 non d ame     -35.699  19.344  25.373  0.00  0.00     0.052 C 
ATOM     59  H47 non d ame     -35.055  19.645  24.547  0.00  0.00     0.082 H 
ATOM     60  H48 non d ame     -35.793  18.290  25.633  0.00  0.00     0.082 H 
BRANCH  58  61
ATOM     61  C35 non d ame     -37.119  19.916  25.123  0.00  0.00    -0.034 A 
ATOM     62  C30 non d ame     -38.097  19.807  26.107  0.00  0.00    -0.075 A 
ATOM     63  C31 non d ame     -39.373  20.321  25.883  0.00  0.00    -0.082 A 
ATOM     64  H49 non d ame     -37.864  19.319  27.053  0.00  0.00     0.084 H 
ATOM     65  C32 non d ame     -39.672  20.944  24.667  0.00  0.00    -0.083 A 
ATOM     66  H50 non d ame     -40.137  20.236  26.656  0.00  0.00     0.083 H 
ATOM     67  C33 non d ame     -38.694  21.047  23.687  0.00  0.00    -0.082 A 
ATOM     68  H51 non d ame     -40.667  21.349  24.484  0.00  0.00     0.083 H 
ATOM     69  C34 non d ame     -37.416  20.536  23.908  0.00  0.00    -0.075 A 
ATOM     70  H52 non d ame     -38.930  21.531  22.739  0.00  0.00     0.083 H 
ATOM     71  H53 non d ame     -36.653  20.622  23.134  0.00  0.00     0.084 H 
ENDBRANCH  58  61
ENDBRANCH  57  58
ENDBRANCH  55  57
ENDBRANCH  52  55
ENDBRANCH  49  52
ENDBRANCH  47  49
BRANCH  47  72
ATOM     72  C24 non d ame     -32.623  15.661  28.746  0.00  0.00    -0.039 C 
ATOM     73  H35 non d ame     -32.239  16.515  29.304  0.00  0.00     0.036 H 
ATOM     74  H36 non d ame     -33.624  15.282  28.951  0.00  0.00     0.036 H 
BRANCH  72  75
ATOM     75  C25 non d ame     -31.602  14.448  28.978  0.00  0.00    -0.001 C 
ATOM     76  C26 non d ame     -32.433  13.086  29.377  0.00  0.00    -0.035 C 
ATOM     77  C27 non d ame     -31.895  12.562  30.505  0.00  0.00     0.085 C 
ATOM     78  H38 non d ame     -33.449  13.342  29.675  0.00  0.00     0.036 H 
ATOM     79  H39 non d ame     -32.262  12.311  28.630  0.00  0.00     0.036 H 
ATOM     80  N5  non d ame     -30.988  13.616  31.092  0.00  0.00    -0.049 N 
ATOM     81  H40 non d ame     -32.735  12.399  31.179  0.00  0.00     0.075 H 
ATOM     82  H41 non d ame     -31.291  11.718  30.174  0.00  0.00     0.075 H 
ATOM     83  C28 non d ame     -30.769  14.713  29.928  0.00  0.00     0.193 C 
ATOM     84  H42 non d ame     -31.501  14.047  31.848  0.00  0.00     0.280 HD
ATOM     85  H43 non d ame     -30.105  13.162  31.277  0.00  0.00     0.280 HD
ATOM     86  H44 non d ame     -29.834  14.747  29.368  0.00  0.00     0.129 H 
ATOM     87  H37 non d ame     -30.871  14.365  28.174  0.00  0.00     0.046 H 
BRANCH  83  88
ATOM     88  O6  non d ame     -30.950  16.030  30.452  0.00  0.00    -0.369 OA
ATOM     89  H45 non d ame     -30.341  16.171  31.181  0.00  0.00     0.212 HD
ENDBRANCH  83  88
ENDBRANCH  72  75
ENDBRANCH  47  72
ENDBRANCH  45  47
ENDBRANCH   1  43
BRANCH   1  90
ATOM     90  C16 non d ame     -31.105  14.554  22.796  0.00  0.00    -0.035 C 
ATOM     91  H21 non d ame     -31.846  13.983  22.236  0.00  0.00     0.037 H 
ATOM     92  H22 non d ame     -31.208  15.635  22.890  0.00  0.00     0.037 H 
BRANCH  90  93
ATOM     93  C17 non d ame     -29.732  14.300  22.096  0.00  0.00    -0.059 C 
ATOM     94  H23 non d ame     -29.809  14.671  21.074  0.00  0.00     0.038 H 
BRANCH  93  95
ATOM     95  C18 non d ame     -28.564  15.067  22.795  0.00  0.00    -0.073 C 
ATOM     96  H24 non d ame     -28.069  15.713  22.071  0.00  0.00     0.028 H 
ATOM     97  H25 non d ame     -28.962  15.672  23.609  0.00  0.00     0.028 H 
ATOM     98  H26 non d ame     -27.846  14.350  23.193  0.00  0.00     0.028 H 
ENDBRANCH  93  95
BRANCH  93  99
ATOM     99  C19 non d ame     -29.429  12.802  22.014  0.00  0.00    -0.073 C 
ATOM    100  H27 non d ame     -30.330  12.264  21.717  0.00  0.00     0.028 H 
ATOM    101  H28 non d ame     -28.643  12.630  21.278  0.00  0.00     0.028 H 
ATOM    102  H29 non d ame     -29.097  12.445  22.989  0.00  0.00     0.028 H 
ENDBRANCH  93  99
ENDBRANCH  90  93
ENDBRANCH   1  90
TORSDOF 26
ENDMDL
MODEL 12
REMARK VINA RESULT:      -6.5      2.565      7.924
REMARK  26 active torsions:
REMARK  status: ('A' for Active; 'I' for Inactive)
REMARK    1  A    between atoms: C2_2  and  C3_3 
REMARK    2  A    between atoms: C4_6  and  C5_7 
REMARK       I    between atoms: C5_7  and  N2_9 
REMARK    3  A    between atoms: N2_9  and  C6_10 
REMARK    4  A    between atoms: C6_10  and  C7_11 
REMARK    5  A    between atoms: C6_10  and  C8_13 
REMARK       I    between atoms: C7_11  and  N3_14 
REMARK    6  A    between atoms: N3_14  and  C9_15 
REMARK    7  A    between atoms: C9_15  and  C10_16 
REMARK    8  A    between atoms: C9_15  and  C11_18 
REMARK       I    between atoms: C10_16  and  N4_21 
REMARK    9  A    between atoms: C11_18  and  C12_19 
REMARK   10  A    between atoms: C11_18  and  C13_20 
REMARK   11  A    between atoms: N4_21  and  C14_22 
REMARK   12  A    between atoms: C14_22  and  C15_23 
REMARK   13  A    between atoms: C14_22  and  C16_25 
REMARK       I    between atoms: C15_23  and  N6_40 
REMARK   14  A    between atoms: C16_25  and  C17_26 
REMARK   15  A    between atoms: C17_26  and  C18_27 
REMARK   16  A    between atoms: C17_26  and  C19_28 
REMARK   17  A    between atoms: C20_29  and  C21_30 
REMARK   18  A    between atoms: C20_29  and  C24_33 
REMARK   19  A    between atoms: C20_29  and  N6_40 
REMARK   20  A    between atoms: C21_30  and  C22_31 
REMARK   21  A    between atoms: C22_31  and  C23_32 
REMARK   22  A    between atoms: C23_32  and  O8_43 
REMARK   23  A    between atoms: C24_33  and  C25_34 
REMARK   24  A    between atoms: C28_38  and  O6_39 
REMARK   25  A    between atoms: C29_42  and  O8_43 
REMARK   26  A    between atoms: C29_42  and  C35_49 
ROOT
ATOM      1  C14 non d ame     -31.490  15.012  24.241  0.00  0.00     0.089 C 
ATOM      2  H20 non d ame     -32.393  15.084  23.634  0.00  0.00     0.087 H 
ENDROOT
BRANCH   1   3
ATOM      3  N4  non d ame     -31.712  15.790  25.451  0.00  0.00    -0.346 N 
ATOM      4  C10 non d ame     -33.052  16.432  25.708  0.00  0.00     0.241 C 
ATOM      5  O4  non d ame     -33.936  16.311  24.926  0.00  0.00    -0.271 OA
ATOM      6  H19 non d ame     -30.946  15.884  26.103  0.00  0.00     0.163 HD
BRANCH   4   7
ATOM      7  C9  non d ame     -33.266  17.230  26.968  0.00  0.00     0.092 C 
ATOM      8  H11 non d ame     -34.335  17.304  27.169  0.00  0.00     0.088 H 
BRANCH   7   9
ATOM      9  N3  non d ame     -32.660  16.525  28.102  0.00  0.00    -0.346 N 
ATOM     10  C7  non d ame     -32.991  15.144  28.352  0.00  0.00     0.240 C 
ATOM     11  O3  non d ame     -33.744  14.585  27.652  0.00  0.00    -0.271 OA
ATOM     12  H10 non d ame     -32.009  16.995  28.716  0.00  0.00     0.163 HD
BRANCH  10  13
ATOM     13  C6  non d ame     -32.345  14.400  29.562  0.00  0.00     0.086 C 
ATOM     14  H6  non d ame     -32.295  15.017  30.459  0.00  0.00     0.086 H 
BRANCH  13  15
ATOM     15  N2  non d ame     -33.162  13.246  29.897  0.00  0.00    -0.343 N 
ATOM     16  C5  non d ame     -32.611  12.196  30.755  0.00  0.00     0.273 C 
ATOM     17  O2  non d ame     -31.507  12.288  31.170  0.00  0.00    -0.266 OA
ATOM     18  H5  non d ame     -34.103  13.174  29.536  0.00  0.00     0.163 HD
BRANCH  16  19
ATOM     19  C4  non d ame     -33.464  10.970  31.119  0.00  0.00     0.154 A 
ATOM     20  C1  non d ame     -33.662   9.791  30.333  0.00  0.00    -0.017 A 
ATOM     21  C2  non d ame     -34.520   8.978  31.107  0.00  0.00     0.077 A 
ATOM     22  H1  non d ame     -33.247   9.560  29.351  0.00  0.00     0.091 H 
ATOM     23  O1  non d ame     -34.777   9.624  32.207  0.00  0.00    -0.218 OA
ATOM     24  N1  non d ame     -34.172  10.789  32.237  0.00  0.00    -0.123 NA
BRANCH  21  25
ATOM     25  C3  non d ame     -35.046   7.601  30.724  0.00  0.00    -0.029 C 
ATOM     26  H2  non d ame     -35.685   7.221  31.521  0.00  0.00     0.036 H 
ATOM     27  H3  non d ame     -35.621   7.676  29.801  0.00  0.00     0.036 H 
ATOM     28  H4  non d ame     -34.208   6.921  30.575  0.00  0.00     0.036 H 
ENDBRANCH  21  25
ENDBRANCH  16  19
ENDBRANCH  13  15
BRANCH  13  29
ATOM     29  C8  non d ame     -30.951  13.957  29.197  0.00  0.00    -0.049 C 
ATOM     30  H7  non d ame     -31.003  13.046  28.602  0.00  0.00     0.030 H 
ATOM     31  H8  non d ame     -30.461  14.741  28.620  0.00  0.00     0.030 H 
ATOM     32  H9  non d ame     -30.381  13.765  30.107  0.00  0.00     0.030 H 
ENDBRANCH  13  29
ENDBRANCH  10  13
ENDBRANCH   7   9
BRANCH   7  33
ATOM     33  C11 non d ame     -32.600  18.629  26.815  0.00  0.00    -0.033 C 
ATOM     34  H12 non d ame     -31.574  18.471  26.484  0.00  0.00     0.042 H 
BRANCH  33  35
ATOM     35  C12 non d ame     -33.319  19.484  25.724  0.00  0.00    -0.071 C 
ATOM     36  H13 non d ame     -34.329  19.722  26.056  0.00  0.00     0.028 H 
ATOM     37  H14 non d ame     -32.763  20.406  25.562  0.00  0.00     0.028 H 
ATOM     38  H15 non d ame     -33.366  18.919  24.794  0.00  0.00     0.028 H 
ENDBRANCH  33  35
BRANCH  33  39
ATOM     39  C13 non d ame     -32.556  19.380  28.185  0.00  0.00    -0.071 C 
ATOM     40  H16 non d ame     -32.956  20.386  28.060  0.00  0.00     0.028 H 
ATOM     41  H17 non d ame     -33.156  18.838  28.916  0.00  0.00     0.028 H 
ATOM     42  H18 non d ame     -31.525  19.439  28.533  0.00  0.00     0.028 H 
ENDBRANCH  33  39
ENDBRANCH   7  33
ENDBRANCH   4   7
ENDBRANCH   1   3
BRANCH   1  43
ATOM     43  C15 non d ame     -31.173  13.544  24.648  0.00  0.00     0.240 C 
ATOM     44  O5  non d ame     -30.960  13.280  25.787  0.00  0.00    -0.271 OA
ATOM     45  N6  non d ame     -31.142  12.467  23.618  0.00  0.00    -0.355 N 
ATOM     46  H46 non d ame     -31.326  12.679  22.649  0.00  0.00     0.162 HD
BRANCH  45  47
ATOM     47  C20 non d ame     -30.840  11.076  24.022  0.00  0.00     0.013 C 
ATOM     48  H30 non d ame     -30.251  11.113  24.937  0.00  0.00     0.072 H 
BRANCH  47  49
ATOM     49  C21 non d ame     -30.050  10.399  22.925  0.00  0.00    -0.038 C 
ATOM     50  H31 non d ame     -30.063  11.090  22.082  0.00  0.00     0.036 H 
ATOM     51  H32 non d ame     -29.102  10.112  23.381  0.00  0.00     0.036 H 
BRANCH  49  52
ATOM     52  C22 non d ame     -30.709   9.093  22.430  0.00  0.00     0.018 C 
ATOM     53  H33 non d ame     -31.624   8.986  23.011  0.00  0.00     0.048 H 
ATOM     54  H34 non d ame     -30.760   9.182  21.344  0.00  0.00     0.048 H 
BRANCH  52  55
ATOM     55  C23 non d ame     -29.868   7.819  22.717  0.00  0.00     0.259 C 
ATOM     56  O7  non d ame     -28.692   7.820  22.545  0.00  0.00    -0.265 OA
BRANCH  55  57
ATOM     57  O8  non d ame     -30.521   6.642  23.178  0.00  0.00    -0.317 OA
BRANCH  57  58
ATOM     58  C29 non d ame     -31.522   6.144  22.285  0.00  0.00     0.052 C 
ATOM     59  H47 non d ame     -31.629   6.903  21.510  0.00  0.00     0.082 H 
ATOM     60  H48 non d ame     -31.205   5.136  22.020  0.00  0.00     0.082 H 
BRANCH  58  61
ATOM     61  C35 non d ame     -32.858   6.049  23.068  0.00  0.00    -0.034 A 
ATOM     62  C30 non d ame     -33.897   6.930  22.783  0.00  0.00    -0.075 A 
ATOM     63  C31 non d ame     -35.097   6.845  23.487  0.00  0.00    -0.082 A 
ATOM     64  H49 non d ame     -33.770   7.687  22.009  0.00  0.00     0.084 H 
ATOM     65  C32 non d ame     -35.256   5.875  24.481  0.00  0.00    -0.083 A 
ATOM     66  H50 non d ame     -35.910   7.536  23.261  0.00  0.00     0.083 H 
ATOM     67  C33 non d ame     -34.216   5.001  24.764  0.00  0.00    -0.082 A 
ATOM     68  H51 non d ame     -36.192   5.801  25.035  0.00  0.00     0.083 H 
ATOM     69  C34 non d ame     -33.015   5.081  24.061  0.00  0.00    -0.075 A 
ATOM     70  H52 non d ame     -34.342   4.247  25.541  0.00  0.00     0.083 H 
ATOM     71  H53 non d ame     -32.203   4.390  24.289  0.00  0.00     0.084 H 
ENDBRANCH  58  61
ENDBRANCH  57  58
ENDBRANCH  55  57
ENDBRANCH  52  55
ENDBRANCH  49  52
ENDBRANCH  47  49
BRANCH  47  72
ATOM     72  C24 non d ame     -32.142  10.313  24.258  0.00  0.00    -0.039 C 
ATOM     73  H35 non d ame     -32.937  10.992  23.950  0.00  0.00     0.036 H 
ATOM     74  H36 non d ame     -32.014   9.357  23.750  0.00  0.00     0.036 H 
BRANCH  72  75
ATOM     75  C25 non d ame     -32.368   9.995  25.812  0.00  0.00    -0.001 C 
ATOM     76  C26 non d ame     -32.789   8.417  26.005  0.00  0.00    -0.035 C 
ATOM     77  C27 non d ame     -33.913   8.355  26.759  0.00  0.00     0.085 C 
ATOM     78  H38 non d ame     -33.099   7.994  25.050  0.00  0.00     0.036 H 
ATOM     79  H39 non d ame     -32.045   7.903  26.614  0.00  0.00     0.036 H 
ATOM     80  N5  non d ame     -34.480   9.752  26.823  0.00  0.00    -0.049 N 
ATOM     81  H40 non d ame     -34.600   7.717  26.204  0.00  0.00     0.075 H 
ATOM     82  H41 non d ame     -33.580   8.061  27.754  0.00  0.00     0.075 H 
ATOM     83  C28 non d ame     -33.305  10.732  26.308  0.00  0.00     0.193 C 
ATOM     84  H42 non d ame     -35.239   9.784  26.158  0.00  0.00     0.280 HD
ATOM     85  H43 non d ame     -34.655   9.945  27.799  0.00  0.00     0.280 HD
ATOM     86  H44 non d ame     -32.732  11.330  27.018  0.00  0.00     0.129 H 
ATOM     87  H37 non d ame     -31.555  10.371  26.433  0.00  0.00     0.046 H 
BRANCH  83  88
ATOM     88  O6  non d ame     -33.821  11.663  25.355  0.00  0.00    -0.369 OA
ATOM     89  H45 non d ame     -33.315  12.478  25.396  0.00  0.00     0.212 HD
ENDBRANCH  83  88
ENDBRANCH  72  75
ENDBRANCH  47  72
ENDBRANCH  45  47
ENDBRANCH   1  43
BRANCH   1  90
ATOM     90  C16 non d ame     -30.311  15.599  23.483  0.00  0.00    -0.035 C 
ATOM     91  H21 non d ame     -30.587  16.632  23.275  0.00  0.00     0.037 H 
ATOM     92  H22 non d ame     -29.436  15.381  24.096  0.00  0.00     0.037 H 
BRANCH  90  93
ATOM     93  C17 non d ame     -30.057  14.923  22.098  0.00  0.00    -0.059 C 
ATOM     94  H23 non d ame     -30.795  14.130  21.977  0.00  0.00     0.038 H 
BRANCH  93  95
ATOM     95  C18 non d ame     -30.236  15.924  20.912  0.00  0.00    -0.073 C 
ATOM     96  H24 non d ame     -30.201  15.380  19.969  0.00  0.00     0.028 H 
ATOM     97  H25 non d ame     -31.197  16.429  21.004  0.00  0.00     0.028 H 
ATOM     98  H26 non d ame     -29.434  16.662  20.936  0.00  0.00     0.028 H 
ENDBRANCH  93  95
BRANCH  93  99
ATOM     99  C19 non d ame     -28.674  14.268  22.054  0.00  0.00    -0.073 C 
ATOM    100  H27 non d ame     -28.226  14.298  23.047  0.00  0.00     0.028 H 
ATOM    101  H28 non d ame     -28.773  13.231  21.732  0.00  0.00     0.028 H 
ATOM    102  H29 non d ame     -28.039  14.807  21.352  0.00  0.00     0.028 H 
ENDBRANCH  93  99
ENDBRANCH  90  93
ENDBRANCH   1  90
TORSDOF 26
ENDMDL
MODEL 13
REMARK VINA RESULT:      -6.5      2.570      3.992
REMARK  26 active torsions:
REMARK  status: ('A' for Active; 'I' for Inactive)
REMARK    1  A    between atoms: C2_2  and  C3_3 
REMARK    2  A    between atoms: C4_6  and  C5_7 
REMARK       I    between atoms: C5_7  and  N2_9 
REMARK    3  A    between atoms: N2_9  and  C6_10 
REMARK    4  A    between atoms: C6_10  and  C7_11 
REMARK    5  A    between atoms: C6_10  and  C8_13 
REMARK       I    between atoms: C7_11  and  N3_14 
REMARK    6  A    between atoms: N3_14  and  C9_15 
REMARK    7  A    between atoms: C9_15  and  C10_16 
REMARK    8  A    between atoms: C9_15  and  C11_18 
REMARK       I    between atoms: C10_16  and  N4_21 
REMARK    9  A    between atoms: C11_18  and  C12_19 
REMARK   10  A    between atoms: C11_18  and  C13_20 
REMARK   11  A    between atoms: N4_21  and  C14_22 
REMARK   12  A    between atoms: C14_22  and  C15_23 
REMARK   13  A    between atoms: C14_22  and  C16_25 
REMARK       I    between atoms: C15_23  and  N6_40 
REMARK   14  A    between atoms: C16_25  and  C17_26 
REMARK   15  A    between atoms: C17_26  and  C18_27 
REMARK   16  A    between atoms: C17_26  and  C19_28 
REMARK   17  A    between atoms: C20_29  and  C21_30 
REMARK   18  A    between atoms: C20_29  and  C24_33 
REMARK   19  A    between atoms: C20_29  and  N6_40 
REMARK   20  A    between atoms: C21_30  and  C22_31 
REMARK   21  A    between atoms: C22_31  and  C23_32 
REMARK   22  A    between atoms: C23_32  and  O8_43 
REMARK   23  A    between atoms: C24_33  and  C25_34 
REMARK   24  A    between atoms: C28_38  and  O6_39 
REMARK   25  A    between atoms: C29_42  and  O8_43 
REMARK   26  A    between atoms: C29_42  and  C35_49 
ROOT
ATOM      1  C14 non d ame     -30.713  14.246  23.847  0.00  0.00     0.089 C 
ATOM      2  H20 non d ame     -29.634  14.253  23.689  0.00  0.00     0.087 H 
ENDROOT
BRANCH   1   3
ATOM      3  N4  non d ame     -31.114  12.865  24.072  0.00  0.00    -0.346 N 
ATOM      4  C10 non d ame     -30.499  11.752  23.262  0.00  0.00     0.241 C 
ATOM      5  O4  non d ame     -29.684  11.992  22.433  0.00  0.00    -0.271 OA
ATOM      6  H19 non d ame     -31.811  12.682  24.780  0.00  0.00     0.163 HD
BRANCH   4   7
ATOM      7  C9  non d ame     -30.922  10.328  23.512  0.00  0.00     0.092 C 
ATOM      8  H11 non d ame     -30.443   9.966  24.421  0.00  0.00     0.088 H 
BRANCH   7   9
ATOM      9  N3  non d ame     -32.370  10.280  23.736  0.00  0.00    -0.346 N 
ATOM     10  C7  non d ame     -32.888   9.850  25.012  0.00  0.00     0.240 C 
ATOM     11  O3  non d ame     -32.153   9.537  25.868  0.00  0.00    -0.271 OA
ATOM     12  H10 non d ame     -33.016  10.546  23.006  0.00  0.00     0.163 HD
BRANCH  10  13
ATOM     13  C6  non d ame     -34.430   9.798  25.243  0.00  0.00     0.086 C 
ATOM     14  H6  non d ame     -34.949   9.203  24.492  0.00  0.00     0.086 H 
BRANCH  13  15
ATOM     15  N2  non d ame     -34.693   9.169  26.527  0.00  0.00    -0.343 N 
ATOM     16  C5  non d ame     -35.133   7.773  26.569  0.00  0.00     0.273 C 
ATOM     17  O2  non d ame     -35.276   7.165  25.565  0.00  0.00    -0.266 OA
ATOM     18  H5  non d ame     -34.571   9.696  27.380  0.00  0.00     0.163 HD
BRANCH  16  19
ATOM     19  C4  non d ame     -35.413   7.094  27.919  0.00  0.00     0.154 A 
ATOM     20  C1  non d ame     -36.690   6.874  28.528  0.00  0.00    -0.017 A 
ATOM     21  C2  non d ame     -36.403   6.221  29.747  0.00  0.00     0.077 A 
ATOM     22  H1  non d ame     -37.673   7.146  28.143  0.00  0.00     0.091 H 
ATOM     23  O1  non d ame     -35.111   6.085  29.820  0.00  0.00    -0.218 OA
ATOM     24  N1  non d ame     -34.512   6.588  28.765  0.00  0.00    -0.123 NA
BRANCH  21  25
ATOM     25  C3  non d ame     -37.419   5.759  30.783  0.00  0.00    -0.029 C 
ATOM     26  H2  non d ame     -38.293   5.349  30.278  0.00  0.00     0.036 H 
ATOM     27  H3  non d ame     -36.971   4.993  31.415  0.00  0.00     0.036 H 
ATOM     28  H4  non d ame     -37.720   6.607  31.399  0.00  0.00     0.036 H 
ENDBRANCH  21  25
ENDBRANCH  16  19
ENDBRANCH  13  15
BRANCH  13  29
ATOM     29  C8  non d ame     -34.990  11.197  25.229  0.00  0.00    -0.049 C 
ATOM     30  H7  non d ame     -34.948  11.616  26.235  0.00  0.00     0.030 H 
ATOM     31  H8  non d ame     -34.402  11.817  24.553  0.00  0.00     0.030 H 
ATOM     32  H9  non d ame     -36.026  11.171  24.890  0.00  0.00     0.030 H 
ENDBRANCH  13  29
ENDBRANCH  10  13
ENDBRANCH   7   9
BRANCH   7  33
ATOM     33  C11 non d ame     -30.563   9.456  22.274  0.00  0.00    -0.033 C 
ATOM     34  H12 non d ame     -30.470  10.123  21.417  0.00  0.00     0.042 H 
BRANCH  33  35
ATOM     35  C12 non d ame     -29.188   8.741  22.462  0.00  0.00    -0.071 C 
ATOM     36  H13 non d ame     -28.453   9.185  21.791  0.00  0.00     0.028 H 
ATOM     37  H14 non d ame     -28.857   8.857  23.493  0.00  0.00     0.028 H 
ATOM     38  H15 non d ame     -29.296   7.681  22.231  0.00  0.00     0.028 H 
ENDBRANCH  33  35
BRANCH  33  39
ATOM     39  C13 non d ame     -31.698   8.428  21.965  0.00  0.00    -0.071 C 
ATOM     40  H16 non d ame     -32.346   8.826  21.183  0.00  0.00     0.028 H 
ATOM     41  H17 non d ame     -31.257   7.489  21.629  0.00  0.00     0.028 H 
ATOM     42  H18 non d ame     -32.283   8.251  22.867  0.00  0.00     0.028 H 
ENDBRANCH  33  39
ENDBRANCH   7  33
ENDBRANCH   4   7
ENDBRANCH   1   3
BRANCH   1  43
ATOM     43  C15 non d ame     -31.130  15.091  25.085  0.00  0.00     0.240 C 
ATOM     44  O5  non d ame     -31.061  16.277  25.042  0.00  0.00    -0.271 OA
ATOM     45  N6  non d ame     -31.624  14.421  26.322  0.00  0.00    -0.355 N 
ATOM     46  H46 non d ame     -31.691  13.415  26.369  0.00  0.00     0.162 HD
BRANCH  45  47
ATOM     47  C20 non d ame     -32.018  15.238  27.490  0.00  0.00     0.013 C 
ATOM     48  H30 non d ame     -31.527  16.208  27.402  0.00  0.00     0.072 H 
BRANCH  47  49
ATOM     49  C21 non d ame     -31.570  14.547  28.758  0.00  0.00    -0.038 C 
ATOM     50  H31 non d ame     -30.863  13.779  28.441  0.00  0.00     0.036 H 
ATOM     51  H32 non d ame     -31.247  15.343  29.429  0.00  0.00     0.036 H 
BRANCH  49  52
ATOM     52  C22 non d ame     -32.721  13.810  29.477  0.00  0.00     0.018 C 
ATOM     53  H33 non d ame     -32.761  14.232  30.480  0.00  0.00     0.048 H 
ATOM     54  H34 non d ame     -33.584  13.893  28.816  0.00  0.00     0.048 H 
BRANCH  52  55
ATOM     55  C23 non d ame     -32.470  12.287  29.663  0.00  0.00     0.259 C 
ATOM     56  O7  non d ame     -31.531  11.902  30.280  0.00  0.00    -0.265 OA
BRANCH  55  57
ATOM     57  O8  non d ame     -33.370  11.356  29.075  0.00  0.00    -0.317 OA
BRANCH  57  58
ATOM     58  C29 non d ame     -33.366  10.069  29.699  0.00  0.00     0.052 C 
ATOM     59  H47 non d ame     -33.241   9.349  28.890  0.00  0.00     0.082 H 
ATOM     60  H48 non d ame     -32.624  10.129  30.494  0.00  0.00     0.082 H 
BRANCH  58  61
ATOM     61  C35 non d ame     -34.760   9.845  30.344  0.00  0.00    -0.034 A 
ATOM     62  C30 non d ame     -35.908  10.285  29.693  0.00  0.00    -0.075 A 
ATOM     63  C31 non d ame     -37.160  10.084  30.272  0.00  0.00    -0.082 A 
ATOM     64  H49 non d ame     -35.827  10.787  28.729  0.00  0.00     0.084 H 
ATOM     65  C32 non d ame     -37.261   9.442  31.510  0.00  0.00    -0.083 A 
ATOM     66  H50 non d ame     -38.058  10.429  29.759  0.00  0.00     0.083 H 
ATOM     67  C33 non d ame     -36.113   9.008  32.157  0.00  0.00    -0.082 A 
ATOM     68  H51 non d ame     -38.236   9.280  31.969  0.00  0.00     0.083 H 
ATOM     69  C34 non d ame     -34.859   9.204  31.581  0.00  0.00    -0.075 A 
ATOM     70  H52 non d ame     -36.195   8.509  33.123  0.00  0.00     0.083 H 
ATOM     71  H53 non d ame     -33.962   8.859  32.095  0.00  0.00     0.084 H 
ENDBRANCH  58  61
ENDBRANCH  57  58
ENDBRANCH  55  57
ENDBRANCH  52  55
ENDBRANCH  49  52
ENDBRANCH  47  49
BRANCH  47  72
ATOM     72  C24 non d ame     -33.535  15.411  27.512  0.00  0.00    -0.039 C 
ATOM     73  H35 non d ame     -33.927  14.610  26.885  0.00  0.00     0.036 H 
ATOM     74  H36 non d ame     -33.806  15.460  28.566  0.00  0.00     0.036 H 
BRANCH  72  75
ATOM     75  C25 non d ame     -33.983  16.796  26.843  0.00  0.00    -0.001 C 
ATOM     76  C26 non d ame     -33.081  18.029  27.451  0.00  0.00    -0.035 C 
ATOM     77  C27 non d ame     -33.913  19.009  27.878  0.00  0.00     0.085 C 
ATOM     78  H38 non d ame     -32.576  17.709  28.362  0.00  0.00     0.036 H 
ATOM     79  H39 non d ame     -32.514  18.507  26.652  0.00  0.00     0.036 H 
ATOM     80  N5  non d ame     -35.303  18.422  27.918  0.00  0.00    -0.049 N 
ATOM     81  H40 non d ame     -33.595  19.239  28.895  0.00  0.00     0.075 H 
ATOM     82  H41 non d ame     -33.875  19.779  27.108  0.00  0.00     0.075 H 
ATOM     83  C28 non d ame     -35.229  17.046  27.077  0.00  0.00     0.193 C 
ATOM     84  H42 non d ame     -35.492  18.198  28.884  0.00  0.00     0.280 HD
ATOM     85  H43 non d ame     -35.901  19.070  27.423  0.00  0.00     0.280 HD
ATOM     86  H44 non d ame     -35.634  16.992  26.066  0.00  0.00     0.129 H 
ATOM     87  H37 non d ame     -34.059  16.725  25.758  0.00  0.00     0.046 H 
BRANCH  83  88
ATOM     88  O6  non d ame     -35.864  15.991  27.800  0.00  0.00    -0.369 OA
ATOM     89  H45 non d ame     -36.808  16.006  27.626  0.00  0.00     0.212 HD
ENDBRANCH  83  88
ENDBRANCH  72  75
ENDBRANCH  47  72
ENDBRANCH  45  47
ENDBRANCH   1  43
BRANCH   1  90
ATOM     90  C16 non d ame     -31.419  14.773  22.608  0.00  0.00    -0.035 C 
ATOM     91  H21 non d ame     -31.736  13.887  22.058  0.00  0.00     0.037 H 
ATOM     92  H22 non d ame     -32.162  15.480  22.977  0.00  0.00     0.037 H 
BRANCH  90  93
ATOM     93  C17 non d ame     -30.484  15.576  21.648  0.00  0.00    -0.059 C 
ATOM     94  H23 non d ame     -30.745  16.630  21.738  0.00  0.00     0.038 H 
BRANCH  93  95
ATOM     95  C18 non d ame     -28.977  15.424  22.030  0.00  0.00    -0.073 C 
ATOM     96  H24 non d ame     -28.606  16.367  22.427  0.00  0.00     0.028 H 
ATOM     97  H25 non d ame     -28.870  14.645  22.784  0.00  0.00     0.028 H 
ATOM     98  H26 non d ame     -28.404  15.152  21.143  0.00  0.00     0.028 H 
ENDBRANCH  93  95
BRANCH  93  99
ATOM     99  C19 non d ame     -30.721  15.172  20.191  0.00  0.00    -0.073 C 
ATOM    100  H27 non d ame     -29.857  14.618  19.822  0.00  0.00     0.028 H 
ATOM    101  H28 non d ame     -31.610  14.544  20.126  0.00  0.00     0.028 H 
ATOM    102  H29 non d ame     -30.864  16.066  19.584  0.00  0.00     0.028 H 
ENDBRANCH  93  99
ENDBRANCH  90  93
ENDBRANCH   1  90
TORSDOF 26
ENDMDL
MODEL 14
REMARK VINA RESULT:      -6.5      3.180      6.654
REMARK  26 active torsions:
REMARK  status: ('A' for Active; 'I' for Inactive)
REMARK    1  A    between atoms: C2_2  and  C3_3 
REMARK    2  A    between atoms: C4_6  and  C5_7 
REMARK       I    between atoms: C5_7  and  N2_9 
REMARK    3  A    between atoms: N2_9  and  C6_10 
REMARK    4  A    between atoms: C6_10  and  C7_11 
REMARK    5  A    between atoms: C6_10  and  C8_13 
REMARK       I    between atoms: C7_11  and  N3_14 
REMARK    6  A    between atoms: N3_14  and  C9_15 
REMARK    7  A    between atoms: C9_15  and  C10_16 
REMARK    8  A    between atoms: C9_15  and  C11_18 
REMARK       I    between atoms: C10_16  and  N4_21 
REMARK    9  A    between atoms: C11_18  and  C12_19 
REMARK   10  A    between atoms: C11_18  and  C13_20 
REMARK   11  A    between atoms: N4_21  and  C14_22 
REMARK   12  A    between atoms: C14_22  and  C15_23 
REMARK   13  A    between atoms: C14_22  and  C16_25 
REMARK       I    between atoms: C15_23  and  N6_40 
REMARK   14  A    between atoms: C16_25  and  C17_26 
REMARK   15  A    between atoms: C17_26  and  C18_27 
REMARK   16  A    between atoms: C17_26  and  C19_28 
REMARK   17  A    between atoms: C20_29  and  C21_30 
REMARK   18  A    between atoms: C20_29  and  C24_33 
REMARK   19  A    between atoms: C20_29  and  N6_40 
REMARK   20  A    between atoms: C21_30  and  C22_31 
REMARK   21  A    between atoms: C22_31  and  C23_32 
REMARK   22  A    between atoms: C23_32  and  O8_43 
REMARK   23  A    between atoms: C24_33  and  C25_34 
REMARK   24  A    between atoms: C28_38  and  O6_39 
REMARK   25  A    between atoms: C29_42  and  O8_43 
REMARK   26  A    between atoms: C29_42  and  C35_49 
ROOT
ATOM      1  C14 non d ame     -32.868  12.841  27.776  0.00  0.00     0.089 C 
ATOM      2  H20 non d ame     -33.948  12.846  27.627  0.00  0.00     0.087 H 
ENDROOT
BRANCH   1   3
ATOM      3  N4  non d ame     -32.357  11.589  27.238  0.00  0.00    -0.346 N 
ATOM      4  C10 non d ame     -33.059  10.912  26.088  0.00  0.00     0.241 C 
ATOM      5  O4  non d ame     -34.035  11.392  25.614  0.00  0.00    -0.271 OA
ATOM      6  H19 non d ame     -31.526  11.196  27.657  0.00  0.00     0.163 HD
BRANCH   4   7
ATOM      7  C9  non d ame     -32.512   9.620  25.540  0.00  0.00     0.092 C 
ATOM      8  H11 non d ame     -31.588   9.372  26.061  0.00  0.00     0.088 H 
BRANCH   7   9
ATOM      9  N3  non d ame     -33.463   8.536  25.804  0.00  0.00    -0.346 N 
ATOM     10  C7  non d ame     -33.167   7.547  26.812  0.00  0.00     0.240 C 
ATOM     11  O3  non d ame     -32.167   7.609  27.419  0.00  0.00    -0.271 OA
ATOM     12  H10 non d ame     -34.329   8.469  25.288  0.00  0.00     0.163 HD
BRANCH  10  13
ATOM     13  C6  non d ame     -34.181   6.394  27.087  0.00  0.00     0.086 C 
ATOM     14  H6  non d ame     -33.727   5.548  27.602  0.00  0.00     0.086 H 
BRANCH  13  15
ATOM     15  N2  non d ame     -35.236   6.891  27.955  0.00  0.00    -0.343 N 
ATOM     16  C5  non d ame     -35.645   6.102  29.118  0.00  0.00     0.273 C 
ATOM     17  O2  non d ame     -35.121   5.067  29.346  0.00  0.00    -0.266 OA
ATOM     18  H5  non d ame     -35.680   7.775  27.751  0.00  0.00     0.163 HD
BRANCH  16  19
ATOM     19  C4  non d ame     -36.758   6.616  30.045  0.00  0.00     0.154 A 
ATOM     20  C1  non d ame     -37.273   7.949  30.121  0.00  0.00    -0.017 A 
ATOM     21  C2  non d ame     -38.273   7.896  31.118  0.00  0.00     0.077 A 
ATOM     22  H1  non d ame     -36.967   8.821  29.542  0.00  0.00     0.091 H 
ATOM     23  O1  non d ame     -38.320   6.672  31.555  0.00  0.00    -0.218 OA
ATOM     24  N1  non d ame     -37.445   5.906  30.944  0.00  0.00    -0.123 NA
BRANCH  21  25
ATOM     25  C3  non d ame     -39.136   9.058  31.591  0.00  0.00    -0.029 C 
ATOM     26  H2  non d ame     -38.545   9.712  32.232  0.00  0.00     0.036 H 
ATOM     27  H3  non d ame     -39.492   9.621  30.729  0.00  0.00     0.036 H 
ATOM     28  H4  non d ame     -39.988   8.674  32.151  0.00  0.00     0.036 H 
ENDBRANCH  21  25
ENDBRANCH  16  19
ENDBRANCH  13  15
BRANCH  13  29
ATOM     29  C8  non d ame     -34.767   5.915  25.784  0.00  0.00    -0.049 C 
ATOM     30  H7  non d ame     -34.123   6.225  24.960  0.00  0.00     0.030 H 
ATOM     31  H8  non d ame     -34.841   4.828  25.797  0.00  0.00     0.030 H 
ATOM     32  H9  non d ame     -35.759   6.346  25.651  0.00  0.00     0.030 H 
ENDBRANCH  13  29
ENDBRANCH  10  13
ENDBRANCH   7   9
BRANCH   7  33
ATOM     33  C11 non d ame     -32.301   9.757  24.003  0.00  0.00    -0.033 C 
ATOM     34  H12 non d ame     -32.847  10.640  23.674  0.00  0.00     0.042 H 
BRANCH  33  35
ATOM     35  C12 non d ame     -30.796   9.979  23.655  0.00  0.00    -0.071 C 
ATOM     36  H13 non d ame     -30.414   9.109  23.121  0.00  0.00     0.028 H 
ATOM     37  H14 non d ame     -30.696  10.864  23.026  0.00  0.00     0.028 H 
ATOM     38  H15 non d ame     -30.227  10.119  24.574  0.00  0.00     0.028 H 
ENDBRANCH  33  35
BRANCH  33  39
ATOM     39  C13 non d ame     -32.881   8.519  23.246  0.00  0.00    -0.071 C 
ATOM     40  H16 non d ame     -32.956   7.676  23.933  0.00  0.00     0.028 H 
ATOM     41  H17 non d ame     -33.870   8.762  22.857  0.00  0.00     0.028 H 
ATOM     42  H18 non d ame     -32.221   8.257  22.420  0.00  0.00     0.028 H 
ENDBRANCH  33  39
ENDBRANCH   7  33
ENDBRANCH   4   7
ENDBRANCH   1   3
BRANCH   1  43
ATOM     43  C15 non d ame     -32.167  14.019  27.041  0.00  0.00     0.240 C 
ATOM     44  O5  non d ame     -31.040  14.293  27.302  0.00  0.00    -0.271 OA
ATOM     45  N6  non d ame     -32.899  14.802  26.004  0.00  0.00    -0.355 N 
ATOM     46  H46 non d ame     -33.855  14.576  25.771  0.00  0.00     0.162 HD
BRANCH  45  47
ATOM     47  C20 non d ame     -32.219  15.918  25.313  0.00  0.00     0.013 C 
ATOM     48  H30 non d ame     -31.235  16.043  25.765  0.00  0.00     0.072 H 
BRANCH  47  49
ATOM     49  C21 non d ame     -33.030  17.182  25.486  0.00  0.00    -0.038 C 
ATOM     50  H31 non d ame     -32.854  17.772  24.586  0.00  0.00     0.036 H 
ATOM     51  H32 non d ame     -34.039  16.852  25.733  0.00  0.00     0.036 H 
BRANCH  49  52
ATOM     52  C22 non d ame     -32.550  18.045  26.674  0.00  0.00     0.018 C 
ATOM     53  H33 non d ame     -31.513  17.758  26.847  0.00  0.00     0.048 H 
ATOM     54  H34 non d ame     -32.794  19.074  26.409  0.00  0.00     0.048 H 
BRANCH  52  55
ATOM     55  C23 non d ame     -33.302  17.755  28.002  0.00  0.00     0.259 C 
ATOM     56  O7  non d ame     -32.982  16.838  28.688  0.00  0.00    -0.265 OA
BRANCH  55  57
ATOM     57  O8  non d ame     -34.387  18.591  28.386  0.00  0.00    -0.317 OA
BRANCH  57  58
ATOM     58  C29 non d ame     -35.673  18.077  28.027  0.00  0.00     0.052 C 
ATOM     59  H47 non d ame     -35.484  17.109  27.561  0.00  0.00     0.082 H 
ATOM     60  H48 non d ame     -36.277  18.137  28.932  0.00  0.00     0.082 H 
BRANCH  58  61
ATOM     61  C35 non d ame     -36.287  19.024  26.963  0.00  0.00    -0.034 A 
ATOM     62  C30 non d ame     -36.688  20.307  27.320  0.00  0.00    -0.075 A 
ATOM     63  C31 non d ame     -37.240  21.158  26.364  0.00  0.00    -0.082 A 
ATOM     64  H49 non d ame     -36.570  20.646  28.350  0.00  0.00     0.084 H 
ATOM     65  C32 non d ame     -37.394  20.720  25.046  0.00  0.00    -0.083 A 
ATOM     66  H50 non d ame     -37.552  22.164  26.647  0.00  0.00     0.083 H 
ATOM     67  C33 non d ame     -36.996  19.438  24.695  0.00  0.00    -0.082 A 
ATOM     68  H51 non d ame     -37.824  21.379  24.292  0.00  0.00     0.083 H 
ATOM     69  C34 non d ame     -36.441  18.585  25.646  0.00  0.00    -0.075 A 
ATOM     70  H52 non d ame     -37.119  19.098  23.666  0.00  0.00     0.083 H 
ATOM     71  H53 non d ame     -36.130  17.579  25.362  0.00  0.00     0.084 H 
ENDBRANCH  58  61
ENDBRANCH  57  58
ENDBRANCH  55  57
ENDBRANCH  52  55
ENDBRANCH  49  52
ENDBRANCH  47  49
BRANCH  47  72
ATOM     72  C24 non d ame     -32.083  15.599  23.826  0.00  0.00    -0.039 C 
ATOM     73  H35 non d ame     -32.604  14.652  23.684  0.00  0.00     0.036 H 
ATOM     74  H36 non d ame     -32.426  16.493  23.305  0.00  0.00     0.036 H 
BRANCH  72  75
ATOM     75  C25 non d ame     -30.555  15.365  23.407  0.00  0.00    -0.001 C 
ATOM     76  C26 non d ame     -30.277  16.010  21.919  0.00  0.00    -0.035 C 
ATOM     77  C27 non d ame     -29.689  15.071  21.140  0.00  0.00     0.085 C 
ATOM     78  H38 non d ame     -31.222  16.205  21.414  0.00  0.00     0.036 H 
ATOM     79  H39 non d ame     -29.523  16.794  21.987  0.00  0.00     0.036 H 
ATOM     80  N5  non d ame     -29.837  13.749  21.853  0.00  0.00    -0.049 N 
ATOM     81  H40 non d ame     -30.274  15.048  20.221  0.00  0.00     0.075 H 
ATOM     82  H41 non d ame     -28.633  15.340  21.107  0.00  0.00     0.075 H 
ATOM     83  C28 non d ame     -30.268  14.107  23.367  0.00  0.00     0.193 C 
ATOM     84  H42 non d ame     -30.604  13.267  21.406  0.00  0.00     0.280 HD
ATOM     85  H43 non d ame     -28.918  13.330  21.870  0.00  0.00     0.280 HD
ATOM     86  H44 non d ame     -29.543  14.043  24.179  0.00  0.00     0.129 H 
ATOM     87  H37 non d ame     -29.862  15.638  24.203  0.00  0.00     0.046 H 
BRANCH  83  88
ATOM     88  O6  non d ame     -31.368  13.290  23.772  0.00  0.00    -0.369 OA
ATOM     89  H45 non d ame     -31.897  13.061  23.004  0.00  0.00     0.212 HD
ENDBRANCH  83  88
ENDBRANCH  72  75
ENDBRANCH  47  72
ENDBRANCH  45  47
ENDBRANCH   1  43
BRANCH   1  90
ATOM     90  C16 non d ame     -32.554  12.907  29.262  0.00  0.00    -0.035 C 
ATOM     91  H21 non d ame     -31.801  13.688  29.364  0.00  0.00     0.037 H 
ATOM     92  H22 non d ame     -33.519  13.014  29.757  0.00  0.00     0.037 H 
BRANCH  90  93
ATOM     93  C17 non d ame     -31.911  11.600  29.826  0.00  0.00    -0.059 C 
ATOM     94  H23 non d ame     -31.545  11.020  28.979  0.00  0.00     0.038 H 
BRANCH  93  95
ATOM     95  C18 non d ame     -30.697  11.896  30.762  0.00  0.00    -0.073 C 
ATOM     96  H24 non d ame     -30.428  12.949  30.686  0.00  0.00     0.028 H 
ATOM     97  H25 non d ame     -30.967  11.664  31.792  0.00  0.00     0.028 H 
ATOM     98  H26 non d ame     -29.848  11.282  30.462  0.00  0.00     0.028 H 
ENDBRANCH  93  95
BRANCH  93  99
ATOM     99  C19 non d ame     -32.957  10.743  30.544  0.00  0.00    -0.073 C 
ATOM    100  H27 non d ame     -33.743  10.464  29.842  0.00  0.00     0.028 H 
ATOM    101  H28 non d ame     -32.483   9.842  30.935  0.00  0.00     0.028 H 
ATOM    102  H29 non d ame     -33.389  11.311  31.367  0.00  0.00     0.028 H 
ENDBRANCH  93  99
ENDBRANCH  90  93
ENDBRANCH   1  90
TORSDOF 26
ENDMDL
MODEL 15
REMARK VINA RESULT:      -6.5      3.810      9.995
REMARK  26 active torsions:
REMARK  status: ('A' for Active; 'I' for Inactive)
REMARK    1  A    between atoms: C2_2  and  C3_3 
REMARK    2  A    between atoms: C4_6  and  C5_7 
REMARK       I    between atoms: C5_7  and  N2_9 
REMARK    3  A    between atoms: N2_9  and  C6_10 
REMARK    4  A    between atoms: C6_10  and  C7_11 
REMARK    5  A    between atoms: C6_10  and  C8_13 
REMARK       I    between atoms: C7_11  and  N3_14 
REMARK    6  A    between atoms: N3_14  and  C9_15 
REMARK    7  A    between atoms: C9_15  and  C10_16 
REMARK    8  A    between atoms: C9_15  and  C11_18 
REMARK       I    between atoms: C10_16  and  N4_21 
REMARK    9  A    between atoms: C11_18  and  C12_19 
REMARK   10  A    between atoms: C11_18  and  C13_20 
REMARK   11  A    between atoms: N4_21  and  C14_22 
REMARK   12  A    between atoms: C14_22  and  C15_23 
REMARK   13  A    between atoms: C14_22  and  C16_25 
REMARK       I    between atoms: C15_23  and  N6_40 
REMARK   14  A    between atoms: C16_25  and  C17_26 
REMARK   15  A    between atoms: C17_26  and  C18_27 
REMARK   16  A    between atoms: C17_26  and  C19_28 
REMARK   17  A    between atoms: C20_29  and  C21_30 
REMARK   18  A    between atoms: C20_29  and  C24_33 
REMARK   19  A    between atoms: C20_29  and  N6_40 
REMARK   20  A    between atoms: C21_30  and  C22_31 
REMARK   21  A    between atoms: C22_31  and  C23_32 
REMARK   22  A    between atoms: C23_32  and  O8_43 
REMARK   23  A    between atoms: C24_33  and  C25_34 
REMARK   24  A    between atoms: C28_38  and  O6_39 
REMARK   25  A    between atoms: C29_42  and  O8_43 
REMARK   26  A    between atoms: C29_42  and  C35_49 
ROOT
ATOM      1  C14 non d ame     -35.131   8.083  30.420  0.00  0.00     0.089 C 
ATOM      2  H20 non d ame     -35.052   8.345  31.476  0.00  0.00     0.087 H 
ENDROOT
BRANCH   1   3
ATOM      3  N4  non d ame     -34.206   8.934  29.687  0.00  0.00    -0.346 N 
ATOM      4  C10 non d ame     -33.467  10.043  30.393  0.00  0.00     0.241 C 
ATOM      5  O4  non d ame     -33.637  10.233  31.552  0.00  0.00    -0.271 OA
ATOM      6  H19 non d ame     -34.077   8.756  28.701  0.00  0.00     0.163 HD
BRANCH   4   7
ATOM      7  C9  non d ame     -32.509  10.910  29.620  0.00  0.00     0.092 C 
ATOM      8  H11 non d ame     -31.671  10.302  29.278  0.00  0.00     0.088 H 
BRANCH   7   9
ATOM      9  N3  non d ame     -33.179  11.434  28.426  0.00  0.00    -0.346 N 
ATOM     10  C7  non d ame     -33.017  10.767  27.157  0.00  0.00     0.240 C 
ATOM     11  O3  non d ame     -32.352   9.807  27.079  0.00  0.00    -0.271 OA
ATOM     12  H10 non d ame     -33.755  12.262  28.477  0.00  0.00     0.163 HD
BRANCH  10  13
ATOM     13  C6  non d ame     -33.730  11.331  25.890  0.00  0.00     0.086 C 
ATOM     14  H6  non d ame     -34.560  11.995  26.133  0.00  0.00     0.086 H 
BRANCH  13  15
ATOM     15  N2  non d ame     -32.778  12.119  25.125  0.00  0.00    -0.343 N 
ATOM     16  C5  non d ame     -32.538  13.516  25.492  0.00  0.00     0.273 C 
ATOM     17  O2  non d ame     -33.119  13.998  26.402  0.00  0.00    -0.266 OA
ATOM     18  H5  non d ame     -32.288  11.700  24.347  0.00  0.00     0.163 HD
BRANCH  16  19
ATOM     19  C4  non d ame     -31.533  14.360  24.693  0.00  0.00     0.154 A 
ATOM     20  C1  non d ame     -30.669  13.913  23.644  0.00  0.00    -0.017 A 
ATOM     21  C2  non d ame     -29.954  15.064  23.245  0.00  0.00     0.077 A 
ATOM     22  H1  non d ame     -30.575  12.907  23.234  0.00  0.00     0.091 H 
ATOM     23  O1  non d ame     -30.367  16.052  23.984  0.00  0.00    -0.218 OA
ATOM     24  N1  non d ame     -31.288  15.666  24.837  0.00  0.00    -0.123 NA
BRANCH  21  25
ATOM     25  C3  non d ame     -28.896  15.135  22.152  0.00  0.00    -0.029 C 
ATOM     26  H2  non d ame     -29.345  14.876  21.194  0.00  0.00     0.036 H 
ATOM     27  H3  non d ame     -28.492  16.146  22.102  0.00  0.00     0.036 H 
ATOM     28  H4  non d ame     -28.092  14.434  22.378  0.00  0.00     0.036 H 
ENDBRANCH  21  25
ENDBRANCH  16  19
ENDBRANCH  13  15
BRANCH  13  29
ATOM     29  C8  non d ame     -34.249  10.191  25.051  0.00  0.00    -0.049 C 
ATOM     30  H7  non d ame     -33.879  10.293  24.031  0.00  0.00     0.030 H 
ATOM     31  H8  non d ame     -33.903   9.246  25.470  0.00  0.00     0.030 H 
ATOM     32  H9  non d ame     -35.339  10.210  25.046  0.00  0.00     0.030 H 
ENDBRANCH  13  29
ENDBRANCH  10  13
ENDBRANCH   7   9
BRANCH   7  33
ATOM     33  C11 non d ame     -32.045  12.096  30.514  0.00  0.00    -0.033 C 
ATOM     34  H12 non d ame     -32.584  12.026  31.459  0.00  0.00     0.042 H 
BRANCH  33  35
ATOM     35  C12 non d ame     -30.521  12.004  30.836  0.00  0.00    -0.071 C 
ATOM     36  H13 non d ame     -30.174  10.986  30.661  0.00  0.00     0.028 H 
ATOM     37  H14 non d ame     -29.972  12.691  30.193  0.00  0.00     0.028 H 
ATOM     38  H15 non d ame     -30.353  12.270  31.879  0.00  0.00     0.028 H 
ENDBRANCH  33  35
BRANCH  33  39
ATOM     39  C13 non d ame     -32.403  13.467  29.855  0.00  0.00    -0.071 C 
ATOM     40  H16 non d ame     -33.482  13.621  29.899  0.00  0.00     0.028 H 
ATOM     41  H17 non d ame     -31.899  14.271  30.392  0.00  0.00     0.028 H 
ATOM     42  H18 non d ame     -32.078  13.466  28.815  0.00  0.00     0.028 H 
ENDBRANCH  33  39
ENDBRANCH   7  33
ENDBRANCH   4   7
ENDBRANCH   1   3
BRANCH   1  43
ATOM     43  C15 non d ame     -34.755   6.597  30.155  0.00  0.00     0.240 C 
ATOM     44  O5  non d ame     -34.912   5.786  31.009  0.00  0.00    -0.271 OA
ATOM     45  N6  non d ame     -34.207   6.184  28.831  0.00  0.00    -0.355 N 
ATOM     46  H46 non d ame     -34.073   6.863  28.096  0.00  0.00     0.162 HD
BRANCH  45  47
ATOM     47  C20 non d ame     -33.856   4.767  28.593  0.00  0.00     0.013 C 
ATOM     48  H30 non d ame     -33.745   4.282  29.563  0.00  0.00     0.072 H 
BRANCH  47  49
ATOM     49  C21 non d ame     -32.554   4.697  27.828  0.00  0.00    -0.038 C 
ATOM     50  H31 non d ame     -31.785   4.491  28.573  0.00  0.00     0.036 H 
ATOM     51  H32 non d ame     -32.728   3.992  27.015  0.00  0.00     0.036 H 
BRANCH  49  52
ATOM     52  C22 non d ame     -32.173   6.040  27.168  0.00  0.00     0.018 C 
ATOM     53  H33 non d ame     -32.811   6.789  27.635  0.00  0.00     0.048 H 
ATOM     54  H34 non d ame     -31.089   6.115  27.256  0.00  0.00     0.048 H 
BRANCH  52  55
ATOM     55  C23 non d ame     -32.484   6.100  25.647  0.00  0.00     0.259 C 
ATOM     56  O7  non d ame     -32.723   5.106  25.040  0.00  0.00    -0.265 OA
BRANCH  55  57
ATOM     57  O8  non d ame     -32.469   7.357  24.982  0.00  0.00    -0.317 OA
BRANCH  57  58
ATOM     58  C29 non d ame     -32.461   7.261  23.554  0.00  0.00     0.052 C 
ATOM     59  H47 non d ame     -32.539   6.197  23.330  0.00  0.00     0.082 H 
ATOM     60  H48 non d ame     -33.232   7.949  23.208  0.00  0.00     0.082 H 
BRANCH  58  61
ATOM     61  C35 non d ame     -31.085   7.769  23.048  0.00  0.00    -0.034 A 
ATOM     62  C30 non d ame     -30.005   6.895  22.968  0.00  0.00    -0.075 A 
ATOM     63  C31 non d ame     -28.769   7.352  22.513  0.00  0.00    -0.082 A 
ATOM     64  H49 non d ame     -30.127   5.853  23.263  0.00  0.00     0.084 H 
ATOM     65  C32 non d ame     -28.614   8.690  22.139  0.00  0.00    -0.083 A 
ATOM     66  H50 non d ame     -27.926   6.664  22.451  0.00  0.00     0.083 H 
ATOM     67  C33 non d ame     -29.694   9.559  22.223  0.00  0.00    -0.082 A 
ATOM     68  H51 non d ame     -27.651   9.055  21.782  0.00  0.00     0.083 H 
ATOM     69  C34 non d ame     -30.931   9.106  22.675  0.00  0.00    -0.075 A 
ATOM     70  H52 non d ame     -29.569  10.602  21.933  0.00  0.00     0.083 H 
ATOM     71  H53 non d ame     -31.774   9.795  22.738  0.00  0.00     0.084 H 
ENDBRANCH  58  61
ENDBRANCH  57  58
ENDBRANCH  55  57
ENDBRANCH  52  55
ENDBRANCH  49  52
ENDBRANCH  47  49
BRANCH  47  72
ATOM     72  C24 non d ame     -34.960   4.090  27.784  0.00  0.00    -0.039 C 
ATOM     73  H35 non d ame     -34.455   3.625  26.937  0.00  0.00     0.036 H 
ATOM     74  H36 non d ame     -35.506   3.473  28.498  0.00  0.00     0.036 H 
BRANCH  72  75
ATOM     75  C25 non d ame     -35.998   5.156  27.190  0.00  0.00    -0.001 C 
ATOM     76  C26 non d ame     -37.448   5.010  27.951  0.00  0.00    -0.035 C 
ATOM     77  C27 non d ame     -38.422   4.897  27.017  0.00  0.00     0.085 C 
ATOM     78  H38 non d ame     -37.496   4.062  28.486  0.00  0.00     0.036 H 
ATOM     79  H39 non d ame     -37.695   5.939  28.466  0.00  0.00     0.036 H 
ATOM     80  N5  non d ame     -37.739   4.623  25.698  0.00  0.00    -0.049 N 
ATOM     81  H40 non d ame     -39.002   4.020  27.306  0.00  0.00     0.075 H 
ATOM     82  H41 non d ame     -38.899   5.875  26.973  0.00  0.00     0.075 H 
ATOM     83  C28 non d ame     -36.180   4.975  25.924  0.00  0.00     0.193 C 
ATOM     84  H42 non d ame     -37.824   3.630  25.533  0.00  0.00     0.280 HD
ATOM     85  H43 non d ame     -38.125   5.280  25.035  0.00  0.00     0.280 HD
ATOM     86  H44 non d ame     -35.758   5.900  25.530  0.00  0.00     0.129 H 
ATOM     87  H37 non d ame     -35.570   6.157  27.125  0.00  0.00     0.046 H 
BRANCH  83  88
ATOM     88  O6  non d ame     -35.358   3.928  25.405  0.00  0.00    -0.369 OA
ATOM     89  H45 non d ame     -34.695   4.302  24.820  0.00  0.00     0.212 HD
ENDBRANCH  83  88
ENDBRANCH  72  75
ENDBRANCH  47  72
ENDBRANCH  45  47
ENDBRANCH   1  43
BRANCH   1  90
ATOM     90  C16 non d ame     -36.545   8.348  29.929  0.00  0.00    -0.035 C 
ATOM     91  H21 non d ame     -36.429   8.940  29.021  0.00  0.00     0.037 H 
ATOM     92  H22 non d ame     -37.023   7.370  29.884  0.00  0.00     0.037 H 
BRANCH  90  93
ATOM     93  C17 non d ame     -37.398   9.213  30.911  0.00  0.00    -0.059 C 
ATOM     94  H23 non d ame     -37.453  10.221  30.502  0.00  0.00     0.038 H 
BRANCH  93  95
ATOM     95  C18 non d ame     -38.858   8.675  31.053  0.00  0.00    -0.073 C 
ATOM     96  H24 non d ame     -39.086   8.017  30.215  0.00  0.00     0.028 H 
ATOM     97  H25 non d ame     -38.953   8.121  31.986  0.00  0.00     0.028 H 
ATOM     98  H26 non d ame     -39.555   9.514  31.056  0.00  0.00     0.028 H 
ENDBRANCH  93  95
BRANCH  93  99
ATOM     99  C19 non d ame     -36.720   9.314  32.280  0.00  0.00    -0.073 C 
ATOM    100  H27 non d ame     -37.142  10.153  32.834  0.00  0.00     0.028 H 
ATOM    101  H28 non d ame     -36.885   8.391  32.837  0.00  0.00     0.028 H 
ATOM    102  H29 non d ame     -35.650   9.469  32.145  0.00  0.00     0.028 H 
ENDBRANCH  93  99
ENDBRANCH  90  93
ENDBRANCH   1  90
TORSDOF 26
ENDMDL
MODEL 16
REMARK VINA RESULT:      -6.5      3.348      6.623
REMARK  26 active torsions:
REMARK  status: ('A' for Active; 'I' for Inactive)
REMARK    1  A    between atoms: C2_2  and  C3_3 
REMARK    2  A    between atoms: C4_6  and  C5_7 
REMARK       I    between atoms: C5_7  and  N2_9 
REMARK    3  A    between atoms: N2_9  and  C6_10 
REMARK    4  A    between atoms: C6_10  and  C7_11 
REMARK    5  A    between atoms: C6_10  and  C8_13 
REMARK       I    between atoms: C7_11  and  N3_14 
REMARK    6  A    between atoms: N3_14  and  C9_15 
REMARK    7  A    between atoms: C9_15  and  C10_16 
REMARK    8  A    between atoms: C9_15  and  C11_18 
REMARK       I    between atoms: C10_16  and  N4_21 
REMARK    9  A    between atoms: C11_18  and  C12_19 
REMARK   10  A    between atoms: C11_18  and  C13_20 
REMARK   11  A    between atoms: N4_21  and  C14_22 
REMARK   12  A    between atoms: C14_22  and  C15_23 
REMARK   13  A    between atoms: C14_22  and  C16_25 
REMARK       I    between atoms: C15_23  and  N6_40 
REMARK   14  A    between atoms: C16_25  and  C17_26 
REMARK   15  A    between atoms: C17_26  and  C18_27 
REMARK   16  A    between atoms: C17_26  and  C19_28 
REMARK   17  A    between atoms: C20_29  and  C21_30 
REMARK   18  A    between atoms: C20_29  and  C24_33 
REMARK   19  A    between atoms: C20_29  and  N6_40 
REMARK   20  A    between atoms: C21_30  and  C22_31 
REMARK   21  A    between atoms: C22_31  and  C23_32 
REMARK   22  A    between atoms: C23_32  and  O8_43 
REMARK   23  A    between atoms: C24_33  and  C25_34 
REMARK   24  A    between atoms: C28_38  and  O6_39 
REMARK   25  A    between atoms: C29_42  and  O8_43 
REMARK   26  A    between atoms: C29_42  and  C35_49 
ROOT
ATOM      1  C14 non d ame     -31.742   8.515  23.752  0.00  0.00     0.089 C 
ATOM      2  H20 non d ame     -30.796   8.167  24.168  0.00  0.00     0.087 H 
ENDROOT
BRANCH   1   3
ATOM      3  N4  non d ame     -32.678   7.402  23.799  0.00  0.00    -0.346 N 
ATOM      4  C10 non d ame     -32.410   6.219  24.694  0.00  0.00     0.241 C 
ATOM      5  O4  non d ame     -31.433   6.184  25.366  0.00  0.00    -0.271 OA
ATOM      6  H19 non d ame     -33.503   7.450  23.217  0.00  0.00     0.163 HD
BRANCH   4   7
ATOM      7  C9  non d ame     -33.393   5.078  24.735  0.00  0.00     0.092 C 
ATOM      8  H11 non d ame     -32.866   4.160  24.996  0.00  0.00     0.088 H 
BRANCH   7   9
ATOM      9  N3  non d ame     -34.384   5.324  25.786  0.00  0.00    -0.346 N 
ATOM     10  C7  non d ame     -34.222   4.716  27.085  0.00  0.00     0.240 C 
ATOM     11  O3  non d ame     -33.301   4.027  27.300  0.00  0.00    -0.271 OA
ATOM     12  H10 non d ame     -35.185   5.915  25.615  0.00  0.00     0.163 HD
BRANCH  10  13
ATOM     13  C6  non d ame     -35.282   4.979  28.199  0.00  0.00     0.086 C 
ATOM     14  H6  non d ame     -35.132   4.355  29.080  0.00  0.00     0.086 H 
BRANCH  13  15
ATOM     15  N2  non d ame     -35.169   6.358  28.643  0.00  0.00    -0.343 N 
ATOM     16  C5  non d ame     -35.007   6.646  30.069  0.00  0.00     0.273 C 
ATOM     17  O2  non d ame     -34.973   5.761  30.853  0.00  0.00    -0.266 OA
ATOM     18  H5  non d ame     -35.201   7.108  27.967  0.00  0.00     0.163 HD
BRANCH  16  19
ATOM     19  C4  non d ame     -34.884   8.100  30.552  0.00  0.00     0.154 A 
ATOM     20  C1  non d ame     -35.357   8.643  31.789  0.00  0.00    -0.017 A 
ATOM     21  C2  non d ame     -34.997  10.009  31.747  0.00  0.00     0.077 A 
ATOM     22  H1  non d ame     -35.880   8.126  32.593  0.00  0.00     0.091 H 
ATOM     23  O1  non d ame     -34.389  10.214  30.616  0.00  0.00    -0.218 OA
ATOM     24  N1  non d ame     -34.311   9.116  29.901  0.00  0.00    -0.123 NA
BRANCH  21  25
ATOM     25  C3  non d ame     -35.270  11.047  32.828  0.00  0.00    -0.029 C 
ATOM     26  H2  non d ame     -35.155  10.588  33.809  0.00  0.00     0.036 H 
ATOM     27  H3  non d ame     -34.564  11.870  32.726  0.00  0.00     0.036 H 
ATOM     28  H4  non d ame     -36.287  11.424  32.720  0.00  0.00     0.036 H 
ENDBRANCH  21  25
ENDBRANCH  16  19
ENDBRANCH  13  15
BRANCH  13  29
ATOM     29  C8  non d ame     -36.664   4.724  27.652  0.00  0.00    -0.049 C 
ATOM     30  H7  non d ame     -36.631   4.736  26.563  0.00  0.00     0.030 H 
ATOM     31  H8  non d ame     -37.016   3.751  27.994  0.00  0.00     0.030 H 
ATOM     32  H9  non d ame     -37.343   5.501  28.004  0.00  0.00     0.030 H 
ENDBRANCH  13  29
ENDBRANCH  10  13
ENDBRANCH   7   9
BRANCH   7  33
ATOM     33  C11 non d ame     -34.116   4.968  23.360  0.00  0.00    -0.033 C 
ATOM     34  H12 non d ame     -34.187   5.973  22.945  0.00  0.00     0.042 H 
BRANCH  33  35
ATOM     35  C12 non d ame     -33.295   4.102  22.354  0.00  0.00    -0.071 C 
ATOM     36  H13 non d ame     -33.864   3.210  22.094  0.00  0.00     0.028 H 
ATOM     37  H14 non d ame     -33.095   4.682  21.454  0.00  0.00     0.028 H 
ATOM     38  H15 non d ame     -32.351   3.808  22.814  0.00  0.00     0.028 H 
ENDBRANCH  33  35
BRANCH  33  39
ATOM     39  C13 non d ame     -35.566   4.412  23.534  0.00  0.00    -0.071 C 
ATOM     40  H16 non d ame     -36.273   5.241  23.547  0.00  0.00     0.028 H 
ATOM     41  H17 non d ame     -35.801   3.745  22.704  0.00  0.00     0.028 H 
ATOM     42  H18 non d ame     -35.634   3.860  24.472  0.00  0.00     0.028 H 
ENDBRANCH  33  39
ENDBRANCH   7  33
ENDBRANCH   4   7
ENDBRANCH   1   3
BRANCH   1  43
ATOM     43  C15 non d ame     -32.339   9.700  24.564  0.00  0.00     0.240 C 
ATOM     44  O5  non d ame     -33.512   9.761  24.744  0.00  0.00    -0.271 OA
ATOM     45  N6  non d ame     -31.447  10.755  25.125  0.00  0.00    -0.355 N 
ATOM     46  H46 non d ame     -30.449  10.711  24.982  0.00  0.00     0.162 HD
BRANCH  45  47
ATOM     47  C20 non d ame     -32.031  11.874  25.896  0.00  0.00     0.013 C 
ATOM     48  H30 non d ame     -33.022  12.079  25.492  0.00  0.00     0.072 H 
BRANCH  47  49
ATOM     49  C21 non d ame     -31.151  13.094  25.749  0.00  0.00    -0.038 C 
ATOM     50  H31 non d ame     -31.609  13.864  26.370  0.00  0.00     0.036 H 
ATOM     51  H32 non d ame     -30.137  12.753  25.962  0.00  0.00     0.036 H 
BRANCH  49  52
ATOM     52  C22 non d ame     -31.130  13.649  24.308  0.00  0.00     0.018 C 
ATOM     53  H33 non d ame     -30.326  13.120  23.799  0.00  0.00     0.048 H 
ATOM     54  H34 non d ame     -32.155  13.563  23.945  0.00  0.00     0.048 H 
BRANCH  52  55
ATOM     55  C23 non d ame     -30.771  15.158  24.223  0.00  0.00     0.259 C 
ATOM     56  O7  non d ame     -30.130  15.575  23.313  0.00  0.00    -0.265 OA
BRANCH  55  57
ATOM     57  O8  non d ame     -31.205  16.037  25.254  0.00  0.00    -0.317 OA
BRANCH  57  58
ATOM     58  C29 non d ame     -32.522  16.560  25.057  0.00  0.00     0.052 C 
ATOM     59  H47 non d ame     -32.538  16.939  24.035  0.00  0.00     0.082 H 
ATOM     60  H48 non d ame     -33.203  15.764  25.354  0.00  0.00     0.082 H 
BRANCH  58  61
ATOM     61  C35 non d ame     -32.712  17.756  26.027  0.00  0.00    -0.034 A 
ATOM     62  C30 non d ame     -33.103  18.997  25.535  0.00  0.00    -0.075 A 
ATOM     63  C31 non d ame     -33.274  20.072  26.407  0.00  0.00    -0.082 A 
ATOM     64  H49 non d ame     -33.276  19.128  24.467  0.00  0.00     0.084 H 
ATOM     65  C32 non d ame     -33.049  19.903  27.775  0.00  0.00    -0.083 A 
ATOM     66  H50 non d ame     -33.582  21.043  26.018  0.00  0.00     0.083 H 
ATOM     67  C33 non d ame     -32.656  18.663  28.261  0.00  0.00    -0.082 A 
ATOM     68  H51 non d ame     -33.181  20.737  28.464  0.00  0.00     0.083 H 
ATOM     69  C34 non d ame     -32.486  17.586  27.394  0.00  0.00    -0.075 A 
ATOM     70  H52 non d ame     -32.479  18.535  29.330  0.00  0.00     0.083 H 
ATOM     71  H53 non d ame     -32.177  16.616  27.784  0.00  0.00     0.084 H 
ENDBRANCH  58  61
ENDBRANCH  57  58
ENDBRANCH  55  57
ENDBRANCH  52  55
ENDBRANCH  49  52
ENDBRANCH  47  49
BRANCH  47  72
ATOM     72  C24 non d ame     -32.128  11.489  27.371  0.00  0.00    -0.039 C 
ATOM     73  H35 non d ame     -33.145  11.120  27.508  0.00  0.00     0.036 H 
ATOM     74  H36 non d ame     -31.280  10.830  27.555  0.00  0.00     0.036 H 
BRANCH  72  75
ATOM     75  C25 non d ame     -31.954  12.762  28.328  0.00  0.00    -0.001 C 
ATOM     76  C26 non d ame     -30.743  12.491  29.406  0.00  0.00    -0.035 C 
ATOM     77  C27 non d ame     -31.202  12.751  30.653  0.00  0.00     0.085 C 
ATOM     78  H38 non d ame     -30.503  11.428  29.439  0.00  0.00     0.036 H 
ATOM     79  H39 non d ame     -29.949  13.225  29.268  0.00  0.00     0.036 H 
ATOM     80  N5  non d ame     -32.705  12.859  30.557  0.00  0.00    -0.049 N 
ATOM     81  H40 non d ame     -30.946  11.874  31.247  0.00  0.00     0.075 H 
ATOM     82  H41 non d ame     -30.793  13.726  30.917  0.00  0.00     0.075 H 
ATOM     83  C28 non d ame     -33.040  13.005  28.984  0.00  0.00     0.193 C 
ATOM     84  H42 non d ame     -33.077  11.979  30.884  0.00  0.00     0.280 HD
ATOM     85  H43 non d ame     -32.960  13.719  31.021  0.00  0.00     0.280 HD
ATOM     86  H44 non d ame     -33.313  13.973  28.564  0.00  0.00     0.129 H 
ATOM     87  H37 non d ame     -31.921  13.697  27.769  0.00  0.00     0.046 H 
BRANCH  83  88
ATOM     88  O6  non d ame     -34.099  12.118  28.621  0.00  0.00    -0.369 OA
ATOM     89  H45 non d ame     -34.021  11.304  29.123  0.00  0.00     0.212 HD
ENDBRANCH  83  88
ENDBRANCH  72  75
ENDBRANCH  47  72
ENDBRANCH  45  47
ENDBRANCH   1  43
BRANCH   1  90
ATOM     90  C16 non d ame     -31.544   8.936  22.304  0.00  0.00    -0.035 C 
ATOM     91  H21 non d ame     -31.816   8.064  21.710  0.00  0.00     0.037 H 
ATOM     92  H22 non d ame     -32.102   9.866  22.195  0.00  0.00     0.037 H 
BRANCH  90  93
ATOM     93  C17 non d ame     -30.060   9.268  21.945  0.00  0.00    -0.059 C 
ATOM     94  H23 non d ame     -29.939   9.124  20.872  0.00  0.00     0.038 H 
BRANCH  93  95
ATOM     95  C18 non d ame     -29.692  10.750  22.272  0.00  0.00    -0.073 C 
ATOM     96  H24 non d ame     -28.775  10.776  22.860  0.00  0.00     0.028 H 
ATOM     97  H25 non d ame     -29.543  11.301  21.344  0.00  0.00     0.028 H 
ATOM     98  H26 non d ame     -30.501  11.209  22.841  0.00  0.00     0.028 H 
ENDBRANCH  93  95
BRANCH  93  99
ATOM     99  C19 non d ame     -29.100   8.301  22.644  0.00  0.00    -0.073 C 
ATOM    100  H27 non d ame     -29.565   7.921  23.554  0.00  0.00     0.028 H 
ATOM    101  H28 non d ame     -28.872   7.469  21.977  0.00  0.00     0.028 H 
ATOM    102  H29 non d ame     -28.179   8.825  22.898  0.00  0.00     0.028 H 
ENDBRANCH  93  99
ENDBRANCH  90  93
ENDBRANCH   1  90
TORSDOF 26
ENDMDL
MODEL 17
REMARK VINA RESULT:      -6.4      3.538      6.585
REMARK  26 active torsions:
REMARK  status: ('A' for Active; 'I' for Inactive)
REMARK    1  A    between atoms: C2_2  and  C3_3 
REMARK    2  A    between atoms: C4_6  and  C5_7 
REMARK       I    between atoms: C5_7  and  N2_9 
REMARK    3  A    between atoms: N2_9  and  C6_10 
REMARK    4  A    between atoms: C6_10  and  C7_11 
REMARK    5  A    between atoms: C6_10  and  C8_13 
REMARK       I    between atoms: C7_11  and  N3_14 
REMARK    6  A    between atoms: N3_14  and  C9_15 
REMARK    7  A    between atoms: C9_15  and  C10_16 
REMARK    8  A    between atoms: C9_15  and  C11_18 
REMARK       I    between atoms: C10_16  and  N4_21 
REMARK    9  A    between atoms: C11_18  and  C12_19 
REMARK   10  A    between atoms: C11_18  and  C13_20 
REMARK   11  A    between atoms: N4_21  and  C14_22 
REMARK   12  A    between atoms: C14_22  and  C15_23 
REMARK   13  A    between atoms: C14_22  and  C16_25 
REMARK       I    between atoms: C15_23  and  N6_40 
REMARK   14  A    between atoms: C16_25  and  C17_26 
REMARK   15  A    between atoms: C17_26  and  C18_27 
REMARK   16  A    between atoms: C17_26  and  C19_28 
REMARK   17  A    between atoms: C20_29  and  C21_30 
REMARK   18  A    between atoms: C20_29  and  C24_33 
REMARK   19  A    between atoms: C20_29  and  N6_40 
REMARK   20  A    between atoms: C21_30  and  C22_31 
REMARK   21  A    between atoms: C22_31  and  C23_32 
REMARK   22  A    between atoms: C23_32  and  O8_43 
REMARK   23  A    between atoms: C24_33  and  C25_34 
REMARK   24  A    between atoms: C28_38  and  O6_39 
REMARK   25  A    between atoms: C29_42  and  O8_43 
REMARK   26  A    between atoms: C29_42  and  C35_49 
ROOT
ATOM      1  C14 non d ame     -32.418   8.628  24.891  0.00  0.00     0.089 C 
ATOM      2  H20 non d ame     -31.387   8.339  24.686  0.00  0.00     0.087 H 
ENDROOT
BRANCH   1   3
ATOM      3  N4  non d ame     -33.135   7.431  25.307  0.00  0.00    -0.346 N 
ATOM      4  C10 non d ame     -32.556   6.065  25.039  0.00  0.00     0.241 C 
ATOM      5  O4  non d ame     -31.513   5.953  24.483  0.00  0.00    -0.271 OA
ATOM      6  H19 non d ame     -34.022   7.548  25.777  0.00  0.00     0.163 HD
BRANCH   4   7
ATOM      7  C9  non d ame     -33.308   4.838  25.482  0.00  0.00     0.092 C 
ATOM      8  H11 non d ame     -32.771   4.366  26.304  0.00  0.00     0.088 H 
BRANCH   7   9
ATOM      9  N3  non d ame     -34.626   5.229  25.992  0.00  0.00    -0.346 N 
ATOM     10  C7  non d ame     -35.074   4.745  27.275  0.00  0.00     0.240 C 
ATOM     11  O3  non d ame     -34.389   4.039  27.908  0.00  0.00    -0.271 OA
ATOM     12  H10 non d ame     -35.229   5.836  25.456  0.00  0.00     0.163 HD
BRANCH  10  13
ATOM     13  C6  non d ame     -36.479   5.163  27.811  0.00  0.00     0.086 C 
ATOM     14  H6  non d ame     -37.105   4.307  28.062  0.00  0.00     0.086 H 
BRANCH  13  15
ATOM     15  N2  non d ame     -36.308   5.927  29.035  0.00  0.00    -0.343 N 
ATOM     16  C5  non d ame     -35.468   7.127  29.025  0.00  0.00     0.273 C 
ATOM     17  O2  non d ame     -34.933   7.467  28.028  0.00  0.00    -0.266 OA
ATOM     18  H5  non d ame     -36.767   5.627  29.884  0.00  0.00     0.163 HD
BRANCH  16  19
ATOM     19  C4  non d ame     -35.279   7.945  30.312  0.00  0.00     0.154 A 
ATOM     20  C1  non d ame     -35.534   9.342  30.494  0.00  0.00    -0.017 A 
ATOM     21  C2  non d ame     -35.205   9.599  31.843  0.00  0.00     0.077 A 
ATOM     22  H1  non d ame     -35.901  10.059  29.759  0.00  0.00     0.091 H 
ATOM     23  O1  non d ame     -34.810   8.475  32.366  0.00  0.00    -0.218 OA
ATOM     24  N1  non d ame     -34.845   7.496  31.492  0.00  0.00    -0.123 NA
BRANCH  21  25
ATOM     25  C3  non d ame     -35.296  10.943  32.553  0.00  0.00    -0.029 C 
ATOM     26  H2  non d ame     -35.258  10.788  33.631  0.00  0.00     0.036 H 
ATOM     27  H3  non d ame     -34.461  11.573  32.247  0.00  0.00     0.036 H 
ATOM     28  H4  non d ame     -36.234  11.430  32.289  0.00  0.00     0.036 H 
ENDBRANCH  21  25
ENDBRANCH  16  19
ENDBRANCH  13  15
BRANCH  13  29
ATOM     29  C8  non d ame     -37.187   5.998  26.775  0.00  0.00    -0.049 C 
ATOM     30  H7  non d ame     -38.252   6.035  27.005  0.00  0.00     0.030 H 
ATOM     31  H8  non d ame     -36.779   7.009  26.783  0.00  0.00     0.030 H 
ATOM     32  H9  non d ame     -37.043   5.555  25.790  0.00  0.00     0.030 H 
ENDBRANCH  13  29
ENDBRANCH  10  13
ENDBRANCH   7   9
BRANCH   7  33
ATOM     33  C11 non d ame     -33.489   3.875  24.272  0.00  0.00    -0.033 C 
ATOM     34  H12 non d ame     -32.544   3.848  23.729  0.00  0.00     0.042 H 
BRANCH  33  35
ATOM     35  C12 non d ame     -33.801   2.421  24.744  0.00  0.00    -0.071 C 
ATOM     36  H13 non d ame     -34.035   2.426  25.808  0.00  0.00     0.028 H 
ATOM     37  H14 non d ame     -34.653   2.033  24.187  0.00  0.00     0.028 H 
ATOM     38  H15 non d ame     -32.932   1.787  24.567  0.00  0.00     0.028 H 
ENDBRANCH  33  35
BRANCH  33  39
ATOM     39  C13 non d ame     -34.590   4.403  23.297  0.00  0.00    -0.071 C 
ATOM     40  H16 non d ame     -34.274   5.356  22.873  0.00  0.00     0.028 H 
ATOM     41  H17 non d ame     -34.742   3.680  22.494  0.00  0.00     0.028 H 
ATOM     42  H18 non d ame     -35.524   4.538  23.843  0.00  0.00     0.028 H 
ENDBRANCH  33  39
ENDBRANCH   7  33
ENDBRANCH   4   7
ENDBRANCH   1   3
BRANCH   1  43
ATOM     43  C15 non d ame     -32.517   9.685  26.027  0.00  0.00     0.240 C 
ATOM     44  O5  non d ame     -32.436   9.342  27.162  0.00  0.00    -0.271 OA
ATOM     45  N6  non d ame     -32.704  11.128  25.700  0.00  0.00    -0.355 N 
ATOM     46  H46 non d ame     -32.770  11.432  24.740  0.00  0.00     0.162 HD
BRANCH  45  47
ATOM     47  C20 non d ame     -32.795  12.121  26.792  0.00  0.00     0.013 C 
ATOM     48  H30 non d ame     -33.308  11.651  27.631  0.00  0.00     0.072 H 
BRANCH  47  49
ATOM     49  C21 non d ame     -33.581  13.320  26.313  0.00  0.00    -0.038 C 
ATOM     50  H31 non d ame     -33.115  13.621  25.374  0.00  0.00     0.036 H 
ATOM     51  H32 non d ame     -34.626  13.013  26.329  0.00  0.00     0.036 H 
BRANCH  49  52
ATOM     52  C22 non d ame     -33.467  14.531  27.264  0.00  0.00     0.018 C 
ATOM     53  H33 non d ame     -34.490  14.843  27.469  0.00  0.00     0.048 H 
ATOM     54  H34 non d ame     -32.822  14.205  28.081  0.00  0.00     0.048 H 
BRANCH  52  55
ATOM     55  C23 non d ame     -32.763  15.763  26.629  0.00  0.00     0.259 C 
ATOM     56  O7  non d ame     -33.221  16.852  26.757  0.00  0.00    -0.265 OA
BRANCH  55  57
ATOM     57  O8  non d ame     -31.569  15.573  25.879  0.00  0.00    -0.317 OA
BRANCH  57  58
ATOM     58  C29 non d ame     -31.653  16.028  24.526  0.00  0.00     0.052 C 
ATOM     59  H47 non d ame     -32.702  15.930  24.247  0.00  0.00     0.082 H 
ATOM     60  H48 non d ame     -31.175  17.007  24.513  0.00  0.00     0.082 H 
BRANCH  58  61
ATOM     61  C35 non d ame     -30.818  15.062  23.644  0.00  0.00    -0.034 A 
ATOM     62  C30 non d ame     -31.011  13.688  23.740  0.00  0.00    -0.075 A 
ATOM     63  C31 non d ame     -30.261  12.820  22.948  0.00  0.00    -0.082 A 
ATOM     64  H49 non d ame     -31.750  13.290  24.437  0.00  0.00     0.084 H 
ATOM     65  C32 non d ame     -29.313  13.331  22.058  0.00  0.00    -0.083 A 
ATOM     66  H50 non d ame     -30.416  11.743  23.025  0.00  0.00     0.083 H 
ATOM     67  C33 non d ame     -29.121  14.703  21.967  0.00  0.00    -0.082 A 
ATOM     68  H51 non d ame     -28.722  12.660  21.434  0.00  0.00     0.083 H 
ATOM     69  C34 non d ame     -29.870  15.574  22.756  0.00  0.00    -0.075 A 
ATOM     70  H52 non d ame     -28.379  15.099  21.274  0.00  0.00     0.083 H 
ATOM     71  H53 non d ame     -29.715  16.651  22.678  0.00  0.00     0.084 H 
ENDBRANCH  58  61
ENDBRANCH  57  58
ENDBRANCH  55  57
ENDBRANCH  52  55
ENDBRANCH  49  52
ENDBRANCH  47  49
BRANCH  47  72
ATOM     72  C24 non d ame     -31.393  12.562  27.207  0.00  0.00    -0.039 C 
ATOM     73  H35 non d ame     -30.712  12.025  26.546  0.00  0.00     0.036 H 
ATOM     74  H36 non d ame     -31.416  13.652  27.195  0.00  0.00     0.036 H 
BRANCH  72  75
ATOM     75  C25 non d ame     -31.049  12.113  28.706  0.00  0.00    -0.001 C 
ATOM     76  C26 non d ame     -32.431  11.709  29.500  0.00  0.00    -0.035 C 
ATOM     77  C27 non d ame     -32.472  12.381  30.675  0.00  0.00     0.085 C 
ATOM     78  H38 non d ame     -33.298  12.088  28.959  0.00  0.00     0.036 H 
ATOM     79  H39 non d ame     -32.394  10.663  29.806  0.00  0.00     0.036 H 
ATOM     80  N5  non d ame     -31.411  13.452  30.608  0.00  0.00    -0.049 N 
ATOM     81  H40 non d ame     -33.454  12.854  30.705  0.00  0.00     0.075 H 
ATOM     82  H41 non d ame     -32.195  11.653  31.437  0.00  0.00     0.075 H 
ATOM     83  C28 non d ame     -30.467  13.064  29.357  0.00  0.00     0.193 C 
ATOM     84  H42 non d ame     -31.889  14.316  30.394  0.00  0.00     0.280 HD
ATOM     85  H43 non d ame     -30.869  13.371  31.457  0.00  0.00     0.280 HD
ATOM     86  H44 non d ame     -29.485  12.620  29.521  0.00  0.00     0.129 H 
ATOM     87  H37 non d ame     -30.228  11.398  28.744  0.00  0.00     0.046 H 
BRANCH  83  88
ATOM     88  O6  non d ame     -30.235  14.213  28.540  0.00  0.00    -0.369 OA
ATOM     89  H45 non d ame     -29.501  14.718  28.899  0.00  0.00     0.212 HD
ENDBRANCH  83  88
ENDBRANCH  72  75
ENDBRANCH  47  72
ENDBRANCH  45  47
ENDBRANCH   1  43
BRANCH   1  90
ATOM     90  C16 non d ame     -33.060   9.175  23.626  0.00  0.00    -0.035 C 
ATOM     91  H21 non d ame     -33.943   8.558  23.459  0.00  0.00     0.037 H 
ATOM     92  H22 non d ame     -33.169  10.246  23.798  0.00  0.00     0.037 H 
BRANCH  90  93
ATOM     93  C17 non d ame     -32.168   9.021  22.353  0.00  0.00    -0.059 C 
ATOM     94  H23 non d ame     -32.378   9.866  21.698  0.00  0.00     0.038 H 
BRANCH  93  95
ATOM     95  C18 non d ame     -30.644   9.050  22.695  0.00  0.00    -0.073 C 
ATOM     96  H24 non d ame     -30.069   9.190  21.780  0.00  0.00     0.028 H 
ATOM     97  H25 non d ame     -30.441   9.873  23.380  0.00  0.00     0.028 H 
ATOM     98  H26 non d ame     -30.359   8.109  23.163  0.00  0.00     0.028 H 
ENDBRANCH  93  95
BRANCH  93  99
ATOM     99  C19 non d ame     -32.529   7.748  21.584  0.00  0.00    -0.073 C 
ATOM    100  H27 non d ame     -31.701   7.042  21.640  0.00  0.00     0.028 H 
ATOM    101  H28 non d ame     -33.420   7.298  22.022  0.00  0.00     0.028 H 
ATOM    102  H29 non d ame     -32.725   7.997  20.541  0.00  0.00     0.028 H 
ENDBRANCH  93  99
ENDBRANCH  90  93
ENDBRANCH   1  90
TORSDOF 26
ENDMDL
MODEL 18
REMARK VINA RESULT:      -6.4      2.207      8.224
REMARK  26 active torsions:
REMARK  status: ('A' for Active; 'I' for Inactive)
REMARK    1  A    between atoms: C2_2  and  C3_3 
REMARK    2  A    between atoms: C4_6  and  C5_7 
REMARK       I    between atoms: C5_7  and  N2_9 
REMARK    3  A    between atoms: N2_9  and  C6_10 
REMARK    4  A    between atoms: C6_10  and  C7_11 
REMARK    5  A    between atoms: C6_10  and  C8_13 
REMARK       I    between atoms: C7_11  and  N3_14 
REMARK    6  A    between atoms: N3_14  and  C9_15 
REMARK    7  A    between atoms: C9_15  and  C10_16 
REMARK    8  A    between atoms: C9_15  and  C11_18 
REMARK       I    between atoms: C10_16  and  N4_21 
REMARK    9  A    between atoms: C11_18  and  C12_19 
REMARK   10  A    between atoms: C11_18  and  C13_20 
REMARK   11  A    between atoms: N4_21  and  C14_22 
REMARK   12  A    between atoms: C14_22  and  C15_23 
REMARK   13  A    between atoms: C14_22  and  C16_25 
REMARK       I    between atoms: C15_23  and  N6_40 
REMARK   14  A    between atoms: C16_25  and  C17_26 
REMARK   15  A    between atoms: C17_26  and  C18_27 
REMARK   16  A    between atoms: C17_26  and  C19_28 
REMARK   17  A    between atoms: C20_29  and  C21_30 
REMARK   18  A    between atoms: C20_29  and  C24_33 
REMARK   19  A    between atoms: C20_29  and  N6_40 
REMARK   20  A    between atoms: C21_30  and  C22_31 
REMARK   21  A    between atoms: C22_31  and  C23_32 
REMARK   22  A    between atoms: C23_32  and  O8_43 
REMARK   23  A    between atoms: C24_33  and  C25_34 
REMARK   24  A    between atoms: C28_38  and  O6_39 
REMARK   25  A    between atoms: C29_42  and  O8_43 
REMARK   26  A    between atoms: C29_42  and  C35_49 
ROOT
ATOM      1  C14 non d ame     -36.597  13.745  26.676  0.00  0.00     0.089 C 
ATOM      2  H20 non d ame     -37.081  13.886  27.642  0.00  0.00     0.087 H 
ENDROOT
BRANCH   1   3
ATOM      3  N4  non d ame     -36.296  15.065  26.140  0.00  0.00    -0.346 N 
ATOM      4  C10 non d ame     -36.980  16.287  26.698  0.00  0.00     0.241 C 
ATOM      5  O4  non d ame     -37.771  16.184  27.577  0.00  0.00    -0.271 OA
ATOM      6  H19 non d ame     -35.622  15.131  25.390  0.00  0.00     0.163 HD
BRANCH   4   7
ATOM      7  C9  non d ame     -36.653  17.646  26.135  0.00  0.00     0.092 C 
ATOM      8  H11 non d ame     -37.010  18.413  26.821  0.00  0.00     0.088 H 
BRANCH   7   9
ATOM      9  N3  non d ame     -35.198  17.796  26.036  0.00  0.00    -0.346 N 
ATOM     10  C7  non d ame     -34.408  17.965  27.231  0.00  0.00     0.240 C 
ATOM     11  O3  non d ame     -34.927  17.984  28.280  0.00  0.00    -0.271 OA
ATOM     12  H10 non d ame     -34.737  17.784  25.138  0.00  0.00     0.163 HD
BRANCH  10  13
ATOM     13  C6  non d ame     -32.860  18.128  27.118  0.00  0.00     0.086 C 
ATOM     14  H6  non d ame     -32.323  17.616  27.916  0.00  0.00     0.086 H 
BRANCH  13  15
ATOM     15  N2  non d ame     -32.413  17.535  25.869  0.00  0.00    -0.343 N 
ATOM     16  C5  non d ame     -31.905  16.161  25.864  0.00  0.00     0.273 C 
ATOM     17  O2  non d ame     -31.856  15.544  26.871  0.00  0.00    -0.266 OA
ATOM     18  H5  non d ame     -32.455  18.071  25.014  0.00  0.00     0.163 HD
BRANCH  16  19
ATOM     19  C4  non d ame     -31.430  15.521  24.550  0.00  0.00     0.154 A 
ATOM     20  C1  non d ame     -31.439  16.112  23.247  0.00  0.00    -0.017 A 
ATOM     21  C2  non d ame     -30.905  15.120  22.394  0.00  0.00     0.077 A 
ATOM     22  H1  non d ame     -31.780  17.108  22.964  0.00  0.00     0.091 H 
ATOM     23  O1  non d ame     -30.625  14.086  23.131  0.00  0.00    -0.218 OA
ATOM     24  N1  non d ame     -30.923  14.295  24.393  0.00  0.00    -0.123 NA
BRANCH  21  25
ATOM     25  C3  non d ame     -30.696  15.242  20.891  0.00  0.00    -0.029 C 
ATOM     26  H2  non d ame     -31.658  15.170  20.383  0.00  0.00     0.036 H 
ATOM     27  H3  non d ame     -30.237  16.204  20.665  0.00  0.00     0.036 H 
ATOM     28  H4  non d ame     -30.044  14.439  20.548  0.00  0.00     0.036 H 
ENDBRANCH  21  25
ENDBRANCH  16  19
ENDBRANCH  13  15
BRANCH  13  29
ATOM     29  C8  non d ame     -32.502  19.592  27.151  0.00  0.00    -0.049 C 
ATOM     30  H7  non d ame     -33.360  20.183  26.830  0.00  0.00     0.030 H 
ATOM     31  H8  non d ame     -32.226  19.875  28.167  0.00  0.00     0.030 H 
ATOM     32  H9  non d ame     -31.663  19.777  26.481  0.00  0.00     0.030 H 
ENDBRANCH  13  29
ENDBRANCH  10  13
ENDBRANCH   7   9
BRANCH   7  33
ATOM     33  C11 non d ame     -37.284  17.786  24.719  0.00  0.00    -0.033 C 
ATOM     34  H12 non d ame     -36.730  17.132  24.046  0.00  0.00     0.042 H 
BRANCH  33  35
ATOM     35  C12 non d ame     -38.772  17.315  24.711  0.00  0.00    -0.071 C 
ATOM     36  H13 non d ame     -38.960  16.720  23.817  0.00  0.00     0.028 H 
ATOM     37  H14 non d ame     -38.967  16.711  25.597  0.00  0.00     0.028 H 
ATOM     38  H15 non d ame     -39.428  18.185  24.712  0.00  0.00     0.028 H 
ENDBRANCH  33  35
BRANCH  33  39
ATOM     39  C13 non d ame     -37.150  19.250  24.190  0.00  0.00    -0.071 C 
ATOM     40  H16 non d ame     -37.452  19.287  23.143  0.00  0.00     0.028 H 
ATOM     41  H17 non d ame     -37.791  19.909  24.777  0.00  0.00     0.028 H 
ATOM     42  H18 non d ame     -36.114  19.576  24.282  0.00  0.00     0.028 H 
ENDBRANCH  33  39
ENDBRANCH   7  33
ENDBRANCH   4   7
ENDBRANCH   1   3
BRANCH   1  43
ATOM     43  C15 non d ame     -35.268  12.945  26.795  0.00  0.00     0.240 C 
ATOM     44  O5  non d ame     -34.294  13.329  26.233  0.00  0.00    -0.271 OA
ATOM     45  N6  non d ame     -35.208  11.703  27.618  0.00  0.00    -0.355 N 
ATOM     46  H46 non d ame     -36.028  11.370  28.104  0.00  0.00     0.162 HD
BRANCH  45  47
ATOM     47  C20 non d ame     -33.937  10.954  27.722  0.00  0.00     0.013 C 
ATOM     48  H30 non d ame     -33.172  11.515  27.185  0.00  0.00     0.072 H 
BRANCH  47  49
ATOM     49  C21 non d ame     -34.110   9.588  27.099  0.00  0.00    -0.038 C 
ATOM     50  H31 non d ame     -35.046   9.197  27.499  0.00  0.00     0.036 H 
ATOM     51  H32 non d ame     -33.997   9.738  26.025  0.00  0.00     0.036 H 
BRANCH  49  52
ATOM     52  C22 non d ame     -33.006   8.593  27.520  0.00  0.00     0.018 C 
ATOM     53  H33 non d ame     -32.087   9.176  27.569  0.00  0.00     0.048 H 
ATOM     54  H34 non d ame     -33.383   8.094  28.412  0.00  0.00     0.048 H 
BRANCH  52  55
ATOM     55  C23 non d ame     -32.745   7.470  26.478  0.00  0.00     0.259 C 
ATOM     56  O7  non d ame     -32.169   6.479  26.792  0.00  0.00    -0.265 OA
BRANCH  55  57
ATOM     57  O8  non d ame     -33.191   7.644  25.139  0.00  0.00    -0.317 OA
BRANCH  57  58
ATOM     58  C29 non d ame     -32.287   7.138  24.153  0.00  0.00     0.052 C 
ATOM     59  H47 non d ame     -31.596   6.489  24.692  0.00  0.00     0.082 H 
ATOM     60  H48 non d ame     -32.913   6.728  23.361  0.00  0.00     0.082 H 
BRANCH  58  61
ATOM     61  C35 non d ame     -31.486   8.336  23.577  0.00  0.00    -0.034 A 
ATOM     62  C30 non d ame     -30.478   8.116  22.644  0.00  0.00    -0.075 A 
ATOM     63  C31 non d ame     -29.758   9.192  22.127  0.00  0.00    -0.082 A 
ATOM     64  H49 non d ame     -30.250   7.100  22.319  0.00  0.00     0.084 H 
ATOM     65  C32 non d ame     -30.049  10.493  22.547  0.00  0.00    -0.083 A 
ATOM     66  H50 non d ame     -28.969   9.016  21.395  0.00  0.00     0.083 H 
ATOM     67  C33 non d ame     -31.054  10.707  23.481  0.00  0.00    -0.082 A 
ATOM     68  H51 non d ame     -29.492  11.340  22.147  0.00  0.00     0.083 H 
ATOM     69  C34 non d ame     -31.777   9.634  23.999  0.00  0.00    -0.075 A 
ATOM     70  H52 non d ame     -31.277  11.723  23.809  0.00  0.00     0.083 H 
ATOM     71  H53 non d ame     -32.566   9.811  24.731  0.00  0.00     0.084 H 
ENDBRANCH  58  61
ENDBRANCH  57  58
ENDBRANCH  55  57
ENDBRANCH  52  55
ENDBRANCH  49  52
ENDBRANCH  47  49
BRANCH  47  72
ATOM     72  C24 non d ame     -33.548  10.799  29.191  0.00  0.00    -0.039 C 
ATOM     73  H35 non d ame     -34.491  10.723  29.734  0.00  0.00     0.036 H 
ATOM     74  H36 non d ame     -32.836   9.974  29.217  0.00  0.00     0.036 H 
BRANCH  72  75
ATOM     75  C25 non d ame     -32.789  12.097  29.743  0.00  0.00    -0.001 C 
ATOM     76  C26 non d ame     -31.497  12.440  28.784  0.00  0.00    -0.035 C 
ATOM     77  C27 non d ame     -30.399  12.579  29.564  0.00  0.00     0.085 C 
ATOM     78  H38 non d ame     -31.258  11.581  28.158  0.00  0.00     0.036 H 
ATOM     79  H39 non d ame     -31.617  13.426  28.335  0.00  0.00     0.036 H 
ATOM     80  N5  non d ame     -30.756  12.041  30.929  0.00  0.00    -0.049 N 
ATOM     81  H40 non d ame     -29.641  11.937  29.116  0.00  0.00     0.075 H 
ATOM     82  H41 non d ame     -30.229  13.653  29.639  0.00  0.00     0.075 H 
ATOM     83  C28 non d ame     -32.365  11.914  30.949  0.00  0.00     0.193 C 
ATOM     84  H42 non d ame     -30.359  11.114  30.984  0.00  0.00     0.280 HD
ATOM     85  H43 non d ame     -30.481  12.748  31.596  0.00  0.00     0.280 HD
ATOM     86  H44 non d ame     -32.972  12.644  31.485  0.00  0.00     0.129 H 
ATOM     87  H37 non d ame     -33.475  12.916  29.962  0.00  0.00     0.046 H 
BRANCH  83  88
ATOM     88  O6  non d ame     -32.752  10.640  31.468  0.00  0.00    -0.369 OA
ATOM     89  H45 non d ame     -31.977  10.179  31.795  0.00  0.00     0.212 HD
ENDBRANCH  83  88
ENDBRANCH  72  75
ENDBRANCH  47  72
ENDBRANCH  45  47
ENDBRANCH   1  43
BRANCH   1  90
ATOM     90  C16 non d ame     -37.542  13.028  25.726  0.00  0.00    -0.035 C 
ATOM     91  H21 non d ame     -37.771  12.078  26.209  0.00  0.00     0.037 H 
ATOM     92  H22 non d ame     -38.341  13.741  25.520  0.00  0.00     0.037 H 
BRANCH  90  93
ATOM     93  C17 non d ame     -36.898  12.677  24.347  0.00  0.00    -0.059 C 
ATOM     94  H23 non d ame     -35.837  12.918  24.406  0.00  0.00     0.038 H 
BRANCH  93  95
ATOM     95  C18 non d ame     -37.024  11.157  24.007  0.00  0.00    -0.073 C 
ATOM     96  H24 non d ame     -36.149  10.837  23.442  0.00  0.00     0.028 H 
ATOM     97  H25 non d ame     -37.089  10.582  24.931  0.00  0.00     0.028 H 
ATOM     98  H26 non d ame     -37.921  10.991  23.412  0.00  0.00     0.028 H 
ENDBRANCH  93  95
BRANCH  93  99
ATOM     99  C19 non d ame     -37.497  13.536  23.230  0.00  0.00    -0.073 C 
ATOM    100  H27 non d ame     -36.694  14.006  22.662  0.00  0.00     0.028 H 
ATOM    101  H28 non d ame     -38.090  12.906  22.565  0.00  0.00     0.028 H 
ATOM    102  H29 non d ame     -38.135  14.305  23.665  0.00  0.00     0.028 H 
ENDBRANCH  93  99
ENDBRANCH  90  93
ENDBRANCH   1  90
TORSDOF 26
ENDMDL
MODEL 19
REMARK VINA RESULT:      -6.4      2.838      8.217
REMARK  26 active torsions:
REMARK  status: ('A' for Active; 'I' for Inactive)
REMARK    1  A    between atoms: C2_2  and  C3_3 
REMARK    2  A    between atoms: C4_6  and  C5_7 
REMARK       I    between atoms: C5_7  and  N2_9 
REMARK    3  A    between atoms: N2_9  and  C6_10 
REMARK    4  A    between atoms: C6_10  and  C7_11 
REMARK    5  A    between atoms: C6_10  and  C8_13 
REMARK       I    between atoms: C7_11  and  N3_14 
REMARK    6  A    between atoms: N3_14  and  C9_15 
REMARK    7  A    between atoms: C9_15  and  C10_16 
REMARK    8  A    between atoms: C9_15  and  C11_18 
REMARK       I    between atoms: C10_16  and  N4_21 
REMARK    9  A    between atoms: C11_18  and  C12_19 
REMARK   10  A    between atoms: C11_18  and  C13_20 
REMARK   11  A    between atoms: N4_21  and  C14_22 
REMARK   12  A    between atoms: C14_22  and  C15_23 
REMARK   13  A    between atoms: C14_22  and  C16_25 
REMARK       I    between atoms: C15_23  and  N6_40 
REMARK   14  A    between atoms: C16_25  and  C17_26 
REMARK   15  A    between atoms: C17_26  and  C18_27 
REMARK   16  A    between atoms: C17_26  and  C19_28 
REMARK   17  A    between atoms: C20_29  and  C21_30 
REMARK   18  A    between atoms: C20_29  and  C24_33 
REMARK   19  A    between atoms: C20_29  and  N6_40 
REMARK   20  A    between atoms: C21_30  and  C22_31 
REMARK   21  A    between atoms: C22_31  and  C23_32 
REMARK   22  A    between atoms: C23_32  and  O8_43 
REMARK   23  A    between atoms: C24_33  and  C25_34 
REMARK   24  A    between atoms: C28_38  and  O6_39 
REMARK   25  A    between atoms: C29_42  and  O8_43 
REMARK   26  A    between atoms: C29_42  and  C35_49 
ROOT
ATOM      1  C14 non d ame     -36.560  10.047  31.100  0.00  0.00     0.089 C 
ATOM      2  H20 non d ame     -37.095  10.814  31.660  0.00  0.00     0.087 H 
ENDROOT
BRANCH   1   3
ATOM      3  N4  non d ame     -36.988  10.137  29.712  0.00  0.00    -0.346 N 
ATOM      4  C10 non d ame     -38.261  10.860  29.354  0.00  0.00     0.241 C 
ATOM      5  O4  non d ame     -38.927  11.360  30.200  0.00  0.00    -0.271 OA
ATOM      6  H19 non d ame     -36.409   9.703  29.007  0.00  0.00     0.163 HD
BRANCH   4   7
ATOM      7  C9  non d ame     -38.687  10.949  27.911  0.00  0.00     0.092 C 
ATOM      8  H11 non d ame     -39.462  11.709  27.812  0.00  0.00     0.088 H 
BRANCH   7   9
ATOM      9  N3  non d ame     -37.550  11.380  27.092  0.00  0.00    -0.346 N 
ATOM     10  C7  non d ame     -37.424  12.764  26.705  0.00  0.00     0.240 C 
ATOM     11  O3  non d ame     -38.229  13.543  27.044  0.00  0.00    -0.271 OA
ATOM     12  H10 non d ame     -36.849  10.718  26.791  0.00  0.00     0.163 HD
BRANCH  10  13
ATOM     13  C6  non d ame     -36.214  13.216  25.831  0.00  0.00     0.086 C 
ATOM     14  H6  non d ame     -36.520  13.664  24.886  0.00  0.00     0.086 H 
BRANCH  13  15
ATOM     15  N2  non d ame     -35.466  14.233  26.550  0.00  0.00    -0.343 N 
ATOM     16  C5  non d ame     -35.560  15.632  26.128  0.00  0.00     0.273 C 
ATOM     17  O2  non d ame     -36.239  15.928  25.206  0.00  0.00    -0.266 OA
ATOM     18  H5  non d ame     -34.886  13.970  27.335  0.00  0.00     0.163 HD
BRANCH  16  19
ATOM     19  C4  non d ame     -34.776  16.718  26.881  0.00  0.00     0.154 A 
ATOM     20  C1  non d ame     -34.130  17.864  26.318  0.00  0.00    -0.017 A 
ATOM     21  C2  non d ame     -33.559  18.538  27.422  0.00  0.00     0.077 A 
ATOM     22  H1  non d ame     -34.082  18.162  25.271  0.00  0.00     0.091 H 
ATOM     23  O1  non d ame     -33.851  17.851  28.487  0.00  0.00    -0.218 OA
ATOM     24  N1  non d ame     -34.560  16.785  28.197  0.00  0.00    -0.123 NA
BRANCH  21  25
ATOM     25  C3  non d ame     -32.753  19.829  27.371  0.00  0.00    -0.029 C 
ATOM     26  H2  non d ame     -32.429  20.016  26.348  0.00  0.00     0.036 H 
ATOM     27  H3  non d ame     -33.373  20.657  27.713  0.00  0.00     0.036 H 
ATOM     28  H4  non d ame     -31.880  19.738  28.018  0.00  0.00     0.036 H 
ENDBRANCH  21  25
ENDBRANCH  16  19
ENDBRANCH  13  15
BRANCH  13  29
ATOM     29  C8  non d ame     -35.328  12.030  25.542  0.00  0.00    -0.049 C 
ATOM     30  H7  non d ame     -34.285  12.310  25.694  0.00  0.00     0.030 H 
ATOM     31  H8  non d ame     -35.586  11.212  26.215  0.00  0.00     0.030 H 
ATOM     32  H9  non d ame     -35.472  11.711  24.510  0.00  0.00     0.030 H 
ENDBRANCH  13  29
ENDBRANCH  10  13
ENDBRANCH   7   9
BRANCH   7  33
ATOM     33  C11 non d ame     -39.172   9.551  27.427  0.00  0.00    -0.033 C 
ATOM     34  H12 non d ame     -39.781   9.705  26.536  0.00  0.00     0.042 H 
BRANCH  33  35
ATOM     35  C12 non d ame     -37.970   8.642  27.022  0.00  0.00    -0.071 C 
ATOM     36  H13 non d ame     -37.681   8.022  27.871  0.00  0.00     0.028 H 
ATOM     37  H14 non d ame     -38.262   8.003  26.189  0.00  0.00     0.028 H 
ATOM     38  H15 non d ame     -37.127   9.265  26.724  0.00  0.00     0.028 H 
ENDBRANCH  33  35
BRANCH  33  39
ATOM     39  C13 non d ame     -40.064   8.863  28.509  0.00  0.00    -0.071 C 
ATOM     40  H16 non d ame     -40.567   9.625  29.104  0.00  0.00     0.028 H 
ATOM     41  H17 non d ame     -40.807   8.232  28.020  0.00  0.00     0.028 H 
ATOM     42  H18 non d ame     -39.439   8.249  29.158  0.00  0.00     0.028 H 
ENDBRANCH  33  39
ENDBRANCH   7  33
ENDBRANCH   4   7
ENDBRANCH   1   3
BRANCH   1  43
ATOM     43  C15 non d ame     -35.018  10.247  31.157  0.00  0.00     0.240 C 
ATOM     44  O5  non d ame     -34.419   9.953  32.141  0.00  0.00    -0.271 OA
ATOM     45  N6  non d ame     -34.286  10.799  29.981  0.00  0.00    -0.355 N 
ATOM     46  H46 non d ame     -34.783  11.048  29.138  0.00  0.00     0.162 HD
BRANCH  45  47
ATOM     47  C20 non d ame     -32.821  10.983  30.050  0.00  0.00     0.013 C 
ATOM     48  H30 non d ame     -32.419  10.223  30.720  0.00  0.00     0.072 H 
BRANCH  47  49
ATOM     49  C21 non d ame     -32.515  12.361  30.590  0.00  0.00    -0.038 C 
ATOM     50  H31 non d ame     -33.066  13.055  29.955  0.00  0.00     0.036 H 
ATOM     51  H32 non d ame     -32.726  12.313  31.658  0.00  0.00     0.036 H 
BRANCH  49  52
ATOM     52  C22 non d ame     -31.024  12.740  30.457  0.00  0.00     0.018 C 
ATOM     53  H33 non d ame     -30.678  12.938  31.471  0.00  0.00     0.048 H 
ATOM     54  H34 non d ame     -30.567  11.941  29.872  0.00  0.00     0.048 H 
BRANCH  52  55
ATOM     55  C23 non d ame     -30.779  14.050  29.657  0.00  0.00     0.259 C 
ATOM     56  O7  non d ame     -30.677  15.091  30.221  0.00  0.00    -0.265 OA
BRANCH  55  57
ATOM     57  O8  non d ame     -30.689  13.993  28.239  0.00  0.00    -0.317 OA
BRANCH  57  58
ATOM     58  C29 non d ame     -31.728  14.707  27.561  0.00  0.00     0.052 C 
ATOM     59  H47 non d ame     -32.641  14.140  27.742  0.00  0.00     0.082 H 
ATOM     60  H48 non d ame     -31.650  15.738  27.905  0.00  0.00     0.082 H 
BRANCH  58  61
ATOM     61  C35 non d ame     -31.420  14.672  26.041  0.00  0.00    -0.034 A 
ATOM     62  C30 non d ame     -31.242  13.453  25.394  0.00  0.00    -0.075 A 
ATOM     63  C31 non d ame     -30.965  13.421  24.028  0.00  0.00    -0.082 A 
ATOM     64  H49 non d ame     -31.318  12.523  25.958  0.00  0.00     0.084 H 
ATOM     65  C32 non d ame     -30.864  14.614  23.309  0.00  0.00    -0.083 A 
ATOM     66  H50 non d ame     -30.827  12.464  23.524  0.00  0.00     0.083 H 
ATOM     67  C33 non d ame     -31.039  15.828  23.959  0.00  0.00    -0.082 A 
ATOM     68  H51 non d ame     -30.648  14.598  22.240  0.00  0.00     0.083 H 
ATOM     69  C34 non d ame     -31.318  15.865  25.323  0.00  0.00    -0.075 A 
ATOM     70  H52 non d ame     -30.958  16.758  23.395  0.00  0.00     0.083 H 
ATOM     71  H53 non d ame     -31.456  16.823  25.827  0.00  0.00     0.084 H 
ENDBRANCH  58  61
ENDBRANCH  57  58
ENDBRANCH  55  57
ENDBRANCH  52  55
ENDBRANCH  49  52
ENDBRANCH  47  49
BRANCH  47  72
ATOM     72  C24 non d ame     -32.215  10.835  28.656  0.00  0.00    -0.039 C 
ATOM     73  H35 non d ame     -32.223  11.837  28.228  0.00  0.00     0.036 H 
ATOM     74  H36 non d ame     -31.269  10.314  28.804  0.00  0.00     0.036 H 
BRANCH  72  75
ATOM     75  C25 non d ame     -33.121   9.910  27.711  0.00  0.00    -0.001 C 
ATOM     76  C26 non d ame     -33.377   8.454  28.432  0.00  0.00    -0.035 C 
ATOM     77  C27 non d ame     -33.057   7.472  27.556  0.00  0.00     0.085 C 
ATOM     78  H38 non d ame     -32.667   8.311  29.247  0.00  0.00     0.036 H 
ATOM     79  H39 non d ame     -34.443   8.305  28.604  0.00  0.00     0.036 H 
ATOM     80  N5  non d ame     -32.298   8.120  26.424  0.00  0.00    -0.049 N 
ATOM     81  H40 non d ame     -32.386   6.806  28.099  0.00  0.00     0.075 H 
ATOM     82  H41 non d ame     -34.007   7.098  27.178  0.00  0.00     0.075 H 
ATOM     83  C28 non d ame     -32.551   9.708  26.570  0.00  0.00     0.193 C 
ATOM     84  H42 non d ame     -31.319   7.934  26.591  0.00  0.00     0.280 HD
ATOM     85  H43 non d ame     -32.734   7.802  25.569  0.00  0.00     0.280 HD
ATOM     86  H44 non d ame     -33.247  10.221  25.907  0.00  0.00     0.129 H 
ATOM     87  H37 non d ame     -33.997  10.438  27.335  0.00  0.00     0.046 H 
BRANCH  83  88
ATOM     88  O6  non d ame     -31.316  10.417  26.451  0.00  0.00    -0.369 OA
ATOM     89  H45 non d ame     -31.376  11.247  26.930  0.00  0.00     0.212 HD
ENDBRANCH  83  88
ENDBRANCH  72  75
ENDBRANCH  47  72
ENDBRANCH  45  47
ENDBRANCH   1  43
BRANCH   1  90
ATOM     90  C16 non d ame     -36.916   8.671  31.641  0.00  0.00    -0.035 C 
ATOM     91  H21 non d ame     -36.248   8.511  32.486  0.00  0.00     0.037 H 
ATOM     92  H22 non d ame     -37.995   8.692  31.796  0.00  0.00     0.037 H 
BRANCH  90  93
ATOM     93  C17 non d ame     -36.637   7.510  30.634  0.00  0.00    -0.059 C 
ATOM     94  H23 non d ame     -36.414   7.959  29.666  0.00  0.00     0.038 H 
BRANCH  93  95
ATOM     95  C18 non d ame     -35.405   6.648  31.055  0.00  0.00    -0.073 C 
ATOM     96  H24 non d ame     -34.726   7.253  31.654  0.00  0.00     0.028 H 
ATOM     97  H25 non d ame     -35.742   5.793  31.641  0.00  0.00     0.028 H 
ATOM     98  H26 non d ame     -34.887   6.295  30.163  0.00  0.00     0.028 H 
ENDBRANCH  93  95
BRANCH  93  99
ATOM     99  C19 non d ame     -37.879   6.634  30.453  0.00  0.00    -0.073 C 
ATOM    100  H27 non d ame     -38.186   6.233  31.419  0.00  0.00     0.028 H 
ATOM    101  H28 non d ame     -38.689   7.232  30.034  0.00  0.00     0.028 H 
ATOM    102  H29 non d ame     -37.649   5.812  29.775  0.00  0.00     0.028 H 
ENDBRANCH  93  99
ENDBRANCH  90  93
ENDBRANCH   1  90
TORSDOF 26
ENDMDL
MODEL 20
REMARK VINA RESULT:      -6.3      2.766      7.418
REMARK  26 active torsions:
REMARK  status: ('A' for Active; 'I' for Inactive)
REMARK    1  A    between atoms: C2_2  and  C3_3 
REMARK    2  A    between atoms: C4_6  and  C5_7 
REMARK       I    between atoms: C5_7  and  N2_9 
REMARK    3  A    between atoms: N2_9  and  C6_10 
REMARK    4  A    between atoms: C6_10  and  C7_11 
REMARK    5  A    between atoms: C6_10  and  C8_13 
REMARK       I    between atoms: C7_11  and  N3_14 
REMARK    6  A    between atoms: N3_14  and  C9_15 
REMARK    7  A    between atoms: C9_15  and  C10_16 
REMARK    8  A    between atoms: C9_15  and  C11_18 
REMARK       I    between atoms: C10_16  and  N4_21 
REMARK    9  A    between atoms: C11_18  and  C12_19 
REMARK   10  A    between atoms: C11_18  and  C13_20 
REMARK   11  A    between atoms: N4_21  and  C14_22 
REMARK   12  A    between atoms: C14_22  and  C15_23 
REMARK   13  A    between atoms: C14_22  and  C16_25 
REMARK       I    between atoms: C15_23  and  N6_40 
REMARK   14  A    between atoms: C16_25  and  C17_26 
REMARK   15  A    between atoms: C17_26  and  C18_27 
REMARK   16  A    between atoms: C17_26  and  C19_28 
REMARK   17  A    between atoms: C20_29  and  C21_30 
REMARK   18  A    between atoms: C20_29  and  C24_33 
REMARK   19  A    between atoms: C20_29  and  N6_40 
REMARK   20  A    between atoms: C21_30  and  C22_31 
REMARK   21  A    between atoms: C22_31  and  C23_32 
REMARK   22  A    between atoms: C23_32  and  O8_43 
REMARK   23  A    between atoms: C24_33  and  C25_34 
REMARK   24  A    between atoms: C28_38  and  O6_39 
REMARK   25  A    between atoms: C29_42  and  O8_43 
REMARK   26  A    between atoms: C29_42  and  C35_49 
ROOT
ATOM      1  C14 non d ame     -31.602  14.074  26.783  0.00  0.00     0.089 C 
ATOM      2  H20 non d ame     -30.956  14.106  25.904  0.00  0.00     0.087 H 
ENDROOT
BRANCH   1   3
ATOM      3  N4  non d ame     -32.455  15.252  26.743  0.00  0.00    -0.346 N 
ATOM      4  C10 non d ame     -32.134  16.394  25.813  0.00  0.00     0.241 C 
ATOM      5  O4  non d ame     -31.181  16.344  25.107  0.00  0.00    -0.271 OA
ATOM      6  H19 non d ame     -33.260  15.276  27.354  0.00  0.00     0.163 HD
BRANCH   4   7
ATOM      7  C9  non d ame     -33.032  17.603  25.781  0.00  0.00     0.092 C 
ATOM      8  H11 non d ame     -33.166  17.923  24.748  0.00  0.00     0.088 H 
BRANCH   7   9
ATOM      9  N3  non d ame     -34.355  17.244  26.300  0.00  0.00    -0.346 N 
ATOM     10  C7  non d ame     -35.133  16.223  25.642  0.00  0.00     0.240 C 
ATOM     11  O3  non d ame     -34.710  15.681  24.695  0.00  0.00    -0.271 OA
ATOM     12  H10 non d ame     -34.733  17.704  27.115  0.00  0.00     0.163 HD
BRANCH  10  13
ATOM     13  C6  non d ame     -36.542  15.847  26.197  0.00  0.00     0.086 C 
ATOM     14  H6  non d ame     -37.298  15.777  25.415  0.00  0.00     0.086 H 
BRANCH  13  15
ATOM     15  N2  non d ame     -36.469  14.537  26.822  0.00  0.00    -0.343 N 
ATOM     16  C5  non d ame     -37.212  13.417  26.240  0.00  0.00     0.273 C 
ATOM     17  O2  non d ame     -37.868  13.581  25.271  0.00  0.00    -0.266 OA
ATOM     18  H5  non d ame     -35.907  14.406  27.652  0.00  0.00     0.163 HD
BRANCH  16  19
ATOM     19  C4  non d ame     -37.142  12.026  26.889  0.00  0.00     0.154 A 
ATOM     20  C1  non d ame     -36.464  10.870  26.387  0.00  0.00    -0.017 A 
ATOM     21  C2  non d ame     -36.704   9.862  27.347  0.00  0.00     0.077 A 
ATOM     22  H1  non d ame     -35.887  10.777  25.466  0.00  0.00     0.091 H 
ATOM     23  O1  non d ame     -37.433  10.388  28.287  0.00  0.00    -0.218 OA
ATOM     24  N1  non d ame     -37.702  11.650  28.042  0.00  0.00    -0.123 NA
BRANCH  21  25
ATOM     25  C3  non d ame     -36.201   8.426  27.291  0.00  0.00    -0.029 C 
ATOM     26  H2  non d ame     -35.433   8.280  28.051  0.00  0.00     0.036 H 
ATOM     27  H3  non d ame     -37.029   7.743  27.477  0.00  0.00     0.036 H 
ATOM     28  H4  non d ame     -35.779   8.226  26.306  0.00  0.00     0.036 H 
ENDBRANCH  21  25
ENDBRANCH  16  19
ENDBRANCH  13  15
BRANCH  13  29
ATOM     29  C8  non d ame     -36.979  16.877  27.207  0.00  0.00    -0.049 C 
ATOM     30  H7  non d ame     -37.712  16.436  27.882  0.00  0.00     0.030 H 
ATOM     31  H8  non d ame     -36.115  17.214  27.779  0.00  0.00     0.030 H 
ATOM     32  H9  non d ame     -37.427  17.726  26.690  0.00  0.00     0.030 H 
ENDBRANCH  13  29
ENDBRANCH  10  13
ENDBRANCH   7   9
BRANCH   7  33
ATOM     33  C11 non d ame     -32.418  18.727  26.667  0.00  0.00    -0.033 C 
ATOM     34  H12 non d ame     -31.338  18.705  26.525  0.00  0.00     0.042 H 
BRANCH  33  35
ATOM     35  C12 non d ame     -32.920  20.137  26.224  0.00  0.00    -0.071 C 
ATOM     36  H13 non d ame     -32.067  20.805  26.101  0.00  0.00     0.028 H 
ATOM     37  H14 non d ame     -33.454  20.052  25.278  0.00  0.00     0.028 H 
ATOM     38  H15 non d ame     -33.589  20.540  26.984  0.00  0.00     0.028 H 
ENDBRANCH  33  35
BRANCH  33  39
ATOM     39  C13 non d ame     -32.713  18.471  28.180  0.00  0.00    -0.071 C 
ATOM     40  H16 non d ame     -32.011  19.042  28.788  0.00  0.00     0.028 H 
ATOM     41  H17 non d ame     -33.732  18.784  28.410  0.00  0.00     0.028 H 
ATOM     42  H18 non d ame     -32.602  17.408  28.396  0.00  0.00     0.028 H 
ENDBRANCH  33  39
ENDBRANCH   7  33
ENDBRANCH   4   7
ENDBRANCH   1   3
BRANCH   1  43
ATOM     43  C15 non d ame     -32.505  12.808  26.801  0.00  0.00     0.240 C 
ATOM     44  O5  non d ame     -33.628  12.877  26.415  0.00  0.00    -0.271 OA
ATOM     45  N6  non d ame     -31.969  11.506  27.290  0.00  0.00    -0.355 N 
ATOM     46  H46 non d ame     -31.016  11.433  27.615  0.00  0.00     0.162 HD
BRANCH  45  47
ATOM     47  C20 non d ame     -32.840  10.311  27.300  0.00  0.00     0.013 C 
ATOM     48  H30 non d ame     -33.813  10.602  26.904  0.00  0.00     0.072 H 
BRANCH  47  49
ATOM     49  C21 non d ame     -32.988   9.812  28.719  0.00  0.00    -0.038 C 
ATOM     50  H31 non d ame     -33.455   8.830  28.639  0.00  0.00     0.036 H 
ATOM     51  H32 non d ame     -32.001   9.911  29.170  0.00  0.00     0.036 H 
BRANCH  49  52
ATOM     52  C22 non d ame     -33.944  10.682  29.564  0.00  0.00     0.018 C 
ATOM     53  H33 non d ame     -33.572  11.702  29.474  0.00  0.00     0.048 H 
ATOM     54  H34 non d ame     -34.949  10.436  29.220  0.00  0.00     0.048 H 
BRANCH  52  55
ATOM     55  C23 non d ame     -33.918  10.348  31.082  0.00  0.00     0.259 C 
ATOM     56  O7  non d ame     -33.739  11.206  31.884  0.00  0.00    -0.265 OA
BRANCH  55  57
ATOM     57  O8  non d ame     -34.098   9.002  31.502  0.00  0.00    -0.317 OA
BRANCH  57  58
ATOM     58  C29 non d ame     -35.377   8.741  32.088  0.00  0.00     0.052 C 
ATOM     59  H47 non d ame     -35.170   8.335  33.079  0.00  0.00     0.082 H 
ATOM     60  H48 non d ame     -35.943   9.667  31.986  0.00  0.00     0.082 H 
BRANCH  58  61
ATOM     61  C35 non d ame     -36.076   7.643  31.243  0.00  0.00    -0.034 A 
ATOM     62  C30 non d ame     -37.462   7.635  31.120  0.00  0.00    -0.075 A 
ATOM     63  C31 non d ame     -38.090   6.648  30.362  0.00  0.00    -0.082 A 
ATOM     64  H49 non d ame     -38.056   8.401  31.619  0.00  0.00     0.084 H 
ATOM     65  C32 non d ame     -37.327   5.665  29.726  0.00  0.00    -0.083 A 
ATOM     66  H50 non d ame     -39.176   6.646  30.266  0.00  0.00     0.083 H 
ATOM     67  C33 non d ame     -35.944   5.675  29.854  0.00  0.00    -0.082 A 
ATOM     68  H51 non d ame     -37.810   4.891  29.130  0.00  0.00     0.083 H 
ATOM     69  C34 non d ame     -35.312   6.660  30.610  0.00  0.00    -0.075 A 
ATOM     70  H52 non d ame     -35.352   4.905  29.359  0.00  0.00     0.083 H 
ATOM     71  H53 non d ame     -34.226   6.662  30.705  0.00  0.00     0.084 H 
ENDBRANCH  58  61
ENDBRANCH  57  58
ENDBRANCH  55  57
ENDBRANCH  52  55
ENDBRANCH  49  52
ENDBRANCH  47  49
BRANCH  47  72
ATOM     72  C24 non d ame     -32.223   9.214  26.435  0.00  0.00    -0.039 C 
ATOM     73  H35 non d ame     -31.146   9.376  26.487  0.00  0.00     0.036 H 
ATOM     74  H36 non d ame     -32.651   8.281  26.800  0.00  0.00     0.036 H 
BRANCH  72  75
ATOM     75  C25 non d ame     -32.649   9.361  24.898  0.00  0.00    -0.001 C 
ATOM     76  C26 non d ame     -33.010   7.883  24.273  0.00  0.00    -0.035 C 
ATOM     77  C27 non d ame     -32.314   7.713  23.124  0.00  0.00     0.085 C 
ATOM     78  H38 non d ame     -32.624   7.098  24.923  0.00  0.00     0.036 H 
ATOM     79  H39 non d ame     -34.050   7.859  23.947  0.00  0.00     0.036 H 
ATOM     80  N5  non d ame     -31.266   8.799  23.078  0.00  0.00    -0.049 N 
ATOM     81  H40 non d ame     -31.820   6.746  23.223  0.00  0.00     0.075 H 
ATOM     82  H41 non d ame     -33.032   7.879  22.321  0.00  0.00     0.075 H 
ATOM     83  C28 non d ame     -31.697   9.880  24.196  0.00  0.00     0.193 C 
ATOM     84  H42 non d ame     -30.397   8.370  23.363  0.00  0.00     0.280 HD
ATOM     85  H43 non d ame     -31.341   9.230  22.167  0.00  0.00     0.280 HD
ATOM     86  H44 non d ame     -32.157  10.824  23.905  0.00  0.00     0.129 H 
ATOM     87  H37 non d ame     -33.379  10.156  24.746  0.00  0.00     0.046 H 
BRANCH  83  88
ATOM     88  O6  non d ame     -30.569  10.236  24.998  0.00  0.00    -0.369 OA
ATOM     89  H45 non d ame     -30.343   9.504  25.576  0.00  0.00     0.212 HD
ENDBRANCH  83  88
ENDBRANCH  72  75
ENDBRANCH  47  72
ENDBRANCH  45  47
ENDBRANCH   1  43
BRANCH   1  90
ATOM     90  C16 non d ame     -30.756  14.116  28.045  0.00  0.00    -0.035 C 
ATOM     91  H21 non d ame     -30.250  13.151  28.086  0.00  0.00     0.037 H 
ATOM     92  H22 non d ame     -30.173  15.034  27.971  0.00  0.00     0.037 H 
BRANCH  90  93
ATOM     93  C17 non d ame     -31.594  14.230  29.358  0.00  0.00    -0.059 C 
ATOM     94  H23 non d ame     -32.642  14.085  29.095  0.00  0.00     0.038 H 
BRANCH  93  95
ATOM     95  C18 non d ame     -31.208  13.132  30.401  0.00  0.00    -0.073 C 
ATOM     96  H24 non d ame     -31.185  13.570  31.398  0.00  0.00     0.028 H 
ATOM     97  H25 non d ame     -31.945  12.330  30.374  0.00  0.00     0.028 H 
ATOM     98  H26 non d ame     -30.225  12.730  30.158  0.00  0.00     0.028 H 
ENDBRANCH  93  95
BRANCH  93  99
ATOM     99  C19 non d ame     -31.468  15.628  29.967  0.00  0.00    -0.073 C 
ATOM    100  H27 non d ame     -32.414  16.160  29.857  0.00  0.00     0.028 H 
ATOM    101  H28 non d ame     -31.221  15.543  31.026  0.00  0.00     0.028 H 
ATOM    102  H29 non d ame     -30.680  16.178  29.454  0.00  0.00     0.028 H 
ENDBRANCH  93  99
ENDBRANCH  90  93
ENDBRANCH   1  90
TORSDOF 26
ENDMDL
