MODEL 1
REMARK VINA RESULT:      -7.2      0.000      0.000
REMARK  26 active torsions:
REMARK  status: ('A' for Active; 'I' for Inactive)
REMARK    1  A    between atoms: C2_2  and  C3_3 
REMARK    2  A    between atoms: C4_6  and  C5_7 
REMARK       I    between atoms: C5_7  and  N2_9 
REMARK    3  A    between atoms: N2_9  and  C6_10 
REMARK    4  A    between atoms: C6_10  and  C7_11 
REMARK    5  A    between atoms: C6_10  and  C8_13 
REMARK       I    between atoms: C7_11  and  N3_14 
REMARK    6  A    between atoms: N3_14  and  C9_15 
REMARK    7  A    between atoms: C9_15  and  C10_16 
REMARK    8  A    between atoms: C9_15  and  C11_18 
REMARK       I    between atoms: C10_16  and  N4_21 
REMARK    9  A    between atoms: C11_18  and  C12_19 
REMARK   10  A    between atoms: C11_18  and  C13_20 
REMARK   11  A    between atoms: N4_21  and  C14_22 
REMARK   12  A    between atoms: C14_22  and  C15_23 
REMARK   13  A    between atoms: C14_22  and  C16_25 
REMARK       I    between atoms: C15_23  and  N6_40 
REMARK   14  A    between atoms: C16_25  and  C17_26 
REMARK   15  A    between atoms: C17_26  and  C18_27 
REMARK   16  A    between atoms: C17_26  and  C19_28 
REMARK   17  A    between atoms: C20_29  and  C21_30 
REMARK   18  A    between atoms: C20_29  and  C24_33 
REMARK   19  A    between atoms: C20_29  and  N6_40 
REMARK   20  A    between atoms: C21_30  and  C22_31 
REMARK   21  A    between atoms: C22_31  and  C23_32 
REMARK   22  A    between atoms: C23_32  and  O8_43 
REMARK   23  A    between atoms: C24_33  and  C25_34 
REMARK   24  A    between atoms: C28_38  and  O6_39 
REMARK   25  A    between atoms: C29_42  and  O8_43 
REMARK   26  A    between atoms: C29_42  and  C35_49 
ROOT
ATOM      1  C14 non d ame     -30.820  14.474  23.823  0.00  0.00     0.089 C 
ATOM      2  H20 non d ame     -29.735  14.512  23.721  0.00  0.00     0.087 H 
ENDROOT
BRANCH   1   3
ATOM      3  N4  non d ame     -31.186  13.095  24.107  0.00  0.00    -0.346 N 
ATOM      4  C10 non d ame     -30.542  11.964  23.345  0.00  0.00     0.241 C 
ATOM      5  O4  non d ame     -29.733  12.189  22.506  0.00  0.00    -0.271 OA
ATOM      6  H19 non d ame     -31.878  12.924  24.823  0.00  0.00     0.163 HD
BRANCH   4   7
ATOM      7  C9  non d ame     -30.928  10.541  23.656  0.00  0.00     0.092 C 
ATOM      8  H11 non d ame     -30.358  10.196  24.519  0.00  0.00     0.088 H 
BRANCH   7   9
ATOM      9  N3  non d ame     -32.346  10.489  24.024  0.00  0.00    -0.346 N 
ATOM     10  C7  non d ame     -32.735  10.590  25.410  0.00  0.00     0.240 C 
ATOM     11  O3  non d ame     -31.920  10.711  26.241  0.00  0.00    -0.271 OA
ATOM     12  H10 non d ame     -33.060  10.383  23.319  0.00  0.00     0.163 HD
BRANCH  10  13
ATOM     13  C6  non d ame     -34.245  10.530  25.796  0.00  0.00     0.086 C 
ATOM     14  H6  non d ame     -34.402  10.400  26.866  0.00  0.00     0.086 H 
BRANCH  13  15
ATOM     15  N2  non d ame     -34.874  11.789  25.433  0.00  0.00    -0.343 N 
ATOM     16  C5  non d ame     -35.782  12.441  26.380  0.00  0.00     0.273 C 
ATOM     17  O2  non d ame     -36.002  11.943  27.429  0.00  0.00    -0.266 OA
ATOM     18  H5  non d ame     -34.683  12.207  24.533  0.00  0.00     0.163 HD
BRANCH  16  19
ATOM     19  C4  non d ame     -36.453  13.773  26.011  0.00  0.00     0.154 A 
ATOM     20  C1  non d ame     -36.580  14.345  24.705  0.00  0.00    -0.017 A 
ATOM     21  C2  non d ame     -37.268  15.562  24.906  0.00  0.00     0.077 A 
ATOM     22  H1  non d ame     -36.226  13.939  23.757  0.00  0.00     0.091 H 
ATOM     23  O1  non d ame     -37.506  15.666  26.181  0.00  0.00    -0.218 OA
ATOM     24  N1  non d ame     -37.039  14.635  26.846  0.00  0.00    -0.123 NA
BRANCH  21  25
ATOM     25  C3  non d ame     -37.661  16.564  23.829  0.00  0.00    -0.029 C 
ATOM     26  H2  non d ame     -37.254  16.246  22.870  0.00  0.00     0.036 H 
ATOM     27  H3  non d ame     -38.747  16.618  23.762  0.00  0.00     0.036 H 
ATOM     28  H4  non d ame     -37.264  17.546  24.084  0.00  0.00     0.036 H 
ENDBRANCH  21  25
ENDBRANCH  16  19
ENDBRANCH  13  15
BRANCH  13  29
ATOM     29  C8  non d ame     -34.909   9.392  25.064  0.00  0.00    -0.049 C 
ATOM     30  H7  non d ame     -35.630   9.790  24.349  0.00  0.00     0.030 H 
ATOM     31  H8  non d ame     -34.155   8.811  24.534  0.00  0.00     0.030 H 
ATOM     32  H9  non d ame     -35.424   8.751  25.780  0.00  0.00     0.030 H 
ENDBRANCH  13  29
ENDBRANCH  10  13
ENDBRANCH   7   9
BRANCH   7  33
ATOM     33  C11 non d ame     -30.688   9.653  22.401  0.00  0.00    -0.033 C 
ATOM     34  H12 non d ame     -30.634  10.313  21.536  0.00  0.00     0.042 H 
BRANCH  33  35
ATOM     35  C12 non d ame     -29.328   8.892  22.495  0.00  0.00    -0.071 C 
ATOM     36  H13 non d ame     -29.398   7.954  21.944  0.00  0.00     0.028 H 
ATOM     37  H14 non d ame     -28.538   9.507  22.066  0.00  0.00     0.028 H 
ATOM     38  H15 non d ame     -29.100   8.683  23.540  0.00  0.00     0.028 H 
ENDBRANCH  33  35
BRANCH  33  39
ATOM     39  C13 non d ame     -31.876   8.663  22.181  0.00  0.00    -0.071 C 
ATOM     40  H16 non d ame     -32.679   9.172  21.646  0.00  0.00     0.028 H 
ATOM     41  H17 non d ame     -31.534   7.808  21.595  0.00  0.00     0.028 H 
ATOM     42  H18 non d ame     -32.244   8.316  23.146  0.00  0.00     0.028 H 
ENDBRANCH  33  39
ENDBRANCH   7  33
ENDBRANCH   4   7
ENDBRANCH   1   3
BRANCH   1  43
ATOM     43  C15 non d ame     -31.334  15.372  24.985  0.00  0.00     0.240 C 
ATOM     44  O5  non d ame     -30.820  16.424  25.190  0.00  0.00    -0.271 OA
ATOM     45  N6  non d ame     -32.472  14.924  25.837  0.00  0.00    -0.355 N 
ATOM     46  H46 non d ame     -32.919  14.034  25.669  0.00  0.00     0.162 HD
BRANCH  45  47
ATOM     47  C20 non d ame     -32.949  15.789  26.937  0.00  0.00     0.013 C 
ATOM     48  H30 non d ame     -32.116  16.415  27.257  0.00  0.00     0.072 H 
BRANCH  47  49
ATOM     49  C21 non d ame     -33.418  14.925  28.085  0.00  0.00    -0.038 C 
ATOM     50  H31 non d ame     -34.262  15.455  28.527  0.00  0.00     0.036 H 
ATOM     51  H32 non d ame     -33.558  13.929  27.666  0.00  0.00     0.036 H 
BRANCH  49  52
ATOM     52  C22 non d ame     -32.358  14.784  29.200  0.00  0.00     0.018 C 
ATOM     53  H33 non d ame     -31.894  15.766  29.292  0.00  0.00     0.048 H 
ATOM     54  H34 non d ame     -32.882  14.347  30.051  0.00  0.00     0.048 H 
BRANCH  52  55
ATOM     55  C23 non d ame     -31.209  13.798  28.851  0.00  0.00     0.259 C 
ATOM     56  O7  non d ame     -30.351  14.116  28.093  0.00  0.00    -0.265 OA
BRANCH  55  57
ATOM     57  O8  non d ame     -31.200  12.503  29.439  0.00  0.00    -0.317 OA
BRANCH  57  58
ATOM     58  C29 non d ame     -31.907  12.421  30.680  0.00  0.00     0.052 C 
ATOM     59  H47 non d ame     -31.167  12.122  31.422  0.00  0.00     0.082 H 
ATOM     60  H48 non d ame     -32.430  13.372  30.784  0.00  0.00     0.082 H 
BRANCH  58  61
ATOM     61  C35 non d ame     -32.964  11.292  30.555  0.00  0.00    -0.034 A 
ATOM     62  C30 non d ame     -32.942  10.435  29.459  0.00  0.00    -0.075 A 
ATOM     63  C31 non d ame     -33.891   9.420  29.347  0.00  0.00    -0.082 A 
ATOM     64  H49 non d ame     -32.182  10.559  28.688  0.00  0.00     0.084 H 
ATOM     65  C32 non d ame     -34.867   9.265  30.336  0.00  0.00    -0.083 A 
ATOM     66  H50 non d ame     -33.871   8.750  28.488  0.00  0.00     0.083 H 
ATOM     67  C33 non d ame     -34.886  10.124  31.426  0.00  0.00    -0.082 A 
ATOM     68  H51 non d ame     -35.612   8.474  30.256  0.00  0.00     0.083 H 
ATOM     69  C34 non d ame     -33.938  11.138  31.543  0.00  0.00    -0.075 A 
ATOM     70  H52 non d ame     -35.650  10.002  32.195  0.00  0.00     0.083 H 
ATOM     71  H53 non d ame     -33.960  11.808  32.403  0.00  0.00     0.084 H 
ENDBRANCH  58  61
ENDBRANCH  57  58
ENDBRANCH  55  57
ENDBRANCH  52  55
ENDBRANCH  49  52
ENDBRANCH  47  49
BRANCH  47  72
ATOM     72  C24 non d ame     -34.106  16.657  26.446  0.00  0.00    -0.039 C 
ATOM     73  H35 non d ame     -34.348  16.283  25.451  0.00  0.00     0.036 H 
ATOM     74  H36 non d ame     -34.854  16.618  27.239  0.00  0.00     0.036 H 
BRANCH  72  75
ATOM     75  C25 non d ame     -33.670  18.190  26.283  0.00  0.00    -0.001 C 
ATOM     76  C26 non d ame     -32.524  18.568  27.400  0.00  0.00    -0.035 C 
ATOM     77  C27 non d ame     -32.907  19.690  28.055  0.00  0.00     0.085 C 
ATOM     78  H38 non d ame     -32.502  17.811  28.183  0.00  0.00     0.036 H 
ATOM     79  H39 non d ame     -31.601  18.866  26.902  0.00  0.00     0.036 H 
ATOM     80  N5  non d ame     -34.359  19.926  27.715  0.00  0.00    -0.049 N 
ATOM     81  H40 non d ame     -32.824  19.451  29.115  0.00  0.00     0.075 H 
ATOM     82  H41 non d ame     -32.308  20.494  27.630  0.00  0.00     0.075 H 
ATOM     83  C28 non d ame     -34.677  18.982  26.444  0.00  0.00     0.193 C 
ATOM     84  H42 non d ame     -34.895  19.594  28.504  0.00  0.00     0.280 HD
ATOM     85  H43 non d ame     -34.431  20.891  27.426  0.00  0.00     0.280 HD
ATOM     86  H44 non d ame     -34.756  19.409  25.444  0.00  0.00     0.129 H 
ATOM     87  H37 non d ame     -33.457  18.450  25.246  0.00  0.00     0.046 H 
BRANCH  83  88
ATOM     88  O6  non d ame     -35.897  18.268  26.653  0.00  0.00    -0.369 OA
ATOM     89  H45 non d ame     -36.124  17.783  25.856  0.00  0.00     0.212 HD
ENDBRANCH  83  88
ENDBRANCH  72  75
ENDBRANCH  47  72
ENDBRANCH  45  47
ENDBRANCH   1  43
BRANCH   1  90
ATOM     90  C16 non d ame     -31.474  14.903  22.519  0.00  0.00    -0.035 C 
ATOM     91  H21 non d ame     -31.720  13.976  22.001  0.00  0.00     0.037 H 
ATOM     92  H22 non d ame     -32.267  15.593  22.807  0.00  0.00     0.037 H 
BRANCH  90  93
ATOM     93  C17 non d ame     -30.520  15.697  21.570  0.00  0.00    -0.059 C 
ATOM     94  H23 non d ame     -30.791  16.750  21.636  0.00  0.00     0.038 H 
BRANCH  93  95
ATOM     95  C18 non d ame     -29.023  15.563  21.994  0.00  0.00    -0.073 C 
ATOM     96  H24 non d ame     -28.752  14.509  22.043  0.00  0.00     0.028 H 
ATOM     97  H25 non d ame     -28.391  16.066  21.263  0.00  0.00     0.028 H 
ATOM     98  H26 non d ame     -28.880  16.020  22.973  0.00  0.00     0.028 H 
ENDBRANCH  93  95
BRANCH  93  99
ATOM     99  C19 non d ame     -30.715  15.266  20.114  0.00  0.00    -0.073 C 
ATOM    100  H27 non d ame     -29.913  15.681  19.502  0.00  0.00     0.028 H 
ATOM    101  H28 non d ame     -30.694  14.178  20.050  0.00  0.00     0.028 H 
ATOM    102  H29 non d ame     -31.675  15.632  19.752  0.00  0.00     0.028 H 
ENDBRANCH  93  99
ENDBRANCH  90  93
ENDBRANCH   1  90
TORSDOF 26
ENDMDL
MODEL 2
REMARK VINA RESULT:      -7.1      3.414      6.571
REMARK  26 active torsions:
REMARK  status: ('A' for Active; 'I' for Inactive)
REMARK    1  A    between atoms: C2_2  and  C3_3 
REMARK    2  A    between atoms: C4_6  and  C5_7 
REMARK       I    between atoms: C5_7  and  N2_9 
REMARK    3  A    between atoms: N2_9  and  C6_10 
REMARK    4  A    between atoms: C6_10  and  C7_11 
REMARK    5  A    between atoms: C6_10  and  C8_13 
REMARK       I    between atoms: C7_11  and  N3_14 
REMARK    6  A    between atoms: N3_14  and  C9_15 
REMARK    7  A    between atoms: C9_15  and  C10_16 
REMARK    8  A    between atoms: C9_15  and  C11_18 
REMARK       I    between atoms: C10_16  and  N4_21 
REMARK    9  A    between atoms: C11_18  and  C12_19 
REMARK   10  A    between atoms: C11_18  and  C13_20 
REMARK   11  A    between atoms: N4_21  and  C14_22 
REMARK   12  A    between atoms: C14_22  and  C15_23 
REMARK   13  A    between atoms: C14_22  and  C16_25 
REMARK       I    between atoms: C15_23  and  N6_40 
REMARK   14  A    between atoms: C16_25  and  C17_26 
REMARK   15  A    between atoms: C17_26  and  C18_27 
REMARK   16  A    between atoms: C17_26  and  C19_28 
REMARK   17  A    between atoms: C20_29  and  C21_30 
REMARK   18  A    between atoms: C20_29  and  C24_33 
REMARK   19  A    between atoms: C20_29  and  N6_40 
REMARK   20  A    between atoms: C21_30  and  C22_31 
REMARK   21  A    between atoms: C22_31  and  C23_32 
REMARK   22  A    between atoms: C23_32  and  O8_43 
REMARK   23  A    between atoms: C24_33  and  C25_34 
REMARK   24  A    between atoms: C28_38  and  O6_39 
REMARK   25  A    between atoms: C29_42  and  O8_43 
REMARK   26  A    between atoms: C29_42  and  C35_49 
ROOT
ATOM      1  C14 non d ame     -32.709  10.362  25.709  0.00  0.00     0.089 C 
ATOM      2  H20 non d ame     -33.573  10.427  25.047  0.00  0.00     0.087 H 
ENDROOT
BRANCH   1   3
ATOM      3  N4  non d ame     -32.191   9.004  25.622  0.00  0.00    -0.346 N 
ATOM      4  C10 non d ame     -32.983   7.931  24.919  0.00  0.00     0.241 C 
ATOM      5  O4  non d ame     -34.037   8.183  24.433  0.00  0.00    -0.271 OA
ATOM      6  H19 non d ame     -31.294   8.810  26.044  0.00  0.00     0.163 HD
BRANCH   4   7
ATOM      7  C9  non d ame     -32.430   6.532  24.833  0.00  0.00     0.092 C 
ATOM      8  H11 non d ame     -31.362   6.555  25.052  0.00  0.00     0.088 H 
BRANCH   7   9
ATOM      9  N3  non d ame     -33.064   5.692  25.854  0.00  0.00    -0.346 N 
ATOM     10  C7  non d ame     -32.675   5.822  27.237  0.00  0.00     0.240 C 
ATOM     11  O3  non d ame     -31.854   6.597  27.545  0.00  0.00    -0.271 OA
ATOM     12  H10 non d ame     -33.773   5.019  25.602  0.00  0.00     0.163 HD
BRANCH  10  13
ATOM     13  C6  non d ame     -33.351   4.923  28.318  0.00  0.00     0.086 C 
ATOM     14  H6  non d ame     -32.732   4.794  29.206  0.00  0.00     0.086 H 
BRANCH  13  15
ATOM     15  N2  non d ame     -34.582   5.559  28.758  0.00  0.00    -0.343 N 
ATOM     16  C5  non d ame     -34.936   5.539  30.178  0.00  0.00     0.273 C 
ATOM     17  O2  non d ame     -34.226   5.006  30.959  0.00  0.00    -0.266 OA
ATOM     18  H5  non d ame     -35.184   6.009  28.083  0.00  0.00     0.163 HD
BRANCH  16  19
ATOM     19  C4  non d ame     -36.234   6.208  30.658  0.00  0.00     0.154 A 
ATOM     20  C1  non d ame     -36.519   7.610  30.699  0.00  0.00    -0.017 A 
ATOM     21  C2  non d ame     -37.832   7.699  31.214  0.00  0.00     0.077 A 
ATOM     22  H1  non d ame     -35.873   8.436  30.402  0.00  0.00     0.091 H 
ATOM     23  O1  non d ame     -38.243   6.485  31.436  0.00  0.00    -0.218 OA
ATOM     24  N1  non d ame     -37.328   5.598  31.120  0.00  0.00    -0.123 NA
BRANCH  21  25
ATOM     25  C3  non d ame     -38.619   8.979  31.460  0.00  0.00    -0.029 C 
ATOM     26  H2  non d ame     -39.599   8.899  30.991  0.00  0.00     0.036 H 
ATOM     27  H3  non d ame     -38.742   9.129  32.532  0.00  0.00     0.036 H 
ATOM     28  H4  non d ame     -38.080   9.825  31.034  0.00  0.00     0.036 H 
ENDBRANCH  21  25
ENDBRANCH  16  19
ENDBRANCH  13  15
BRANCH  13  29
ATOM     29  C8  non d ame     -33.651   3.567  27.732  0.00  0.00    -0.049 C 
ATOM     30  H7  non d ame     -32.779   3.206  27.187  0.00  0.00     0.030 H 
ATOM     31  H8  non d ame     -33.892   2.870  28.534  0.00  0.00     0.030 H 
ATOM     32  H9  non d ame     -34.498   3.645  27.050  0.00  0.00     0.030 H 
ENDBRANCH  13  29
ENDBRANCH  10  13
ENDBRANCH   7   9
BRANCH   7  33
ATOM     33  C11 non d ame     -32.726   5.943  23.423  0.00  0.00    -0.033 C 
ATOM     34  H12 non d ame     -33.581   6.482  23.014  0.00  0.00     0.042 H 
BRANCH  33  35
ATOM     35  C12 non d ame     -31.525   6.163  22.451  0.00  0.00    -0.071 C 
ATOM     36  H13 non d ame     -30.880   5.284  22.466  0.00  0.00     0.028 H 
ATOM     37  H14 non d ame     -31.899   6.321  21.441  0.00  0.00     0.028 H 
ATOM     38  H15 non d ame     -30.955   7.036  22.770  0.00  0.00     0.028 H 
ENDBRANCH  33  35
BRANCH  33  39
ATOM     39  C13 non d ame     -33.109   4.431  23.518  0.00  0.00    -0.071 C 
ATOM     40  H16 non d ame     -33.455   4.082  22.545  0.00  0.00     0.028 H 
ATOM     41  H17 non d ame     -32.235   3.853  23.822  0.00  0.00     0.028 H 
ATOM     42  H18 non d ame     -33.902   4.303  24.254  0.00  0.00     0.028 H 
ENDBRANCH  33  39
ENDBRANCH   7  33
ENDBRANCH   4   7
ENDBRANCH   1   3
BRANCH   1  43
ATOM     43  C15 non d ame     -31.579  11.350  25.299  0.00  0.00     0.240 C 
ATOM     44  O5  non d ame     -30.473  10.948  25.136  0.00  0.00    -0.271 OA
ATOM     45  N6  non d ame     -31.879  12.796  25.101  0.00  0.00    -0.355 N 
ATOM     46  H46 non d ame     -32.816  13.149  25.232  0.00  0.00     0.162 HD
BRANCH  45  47
ATOM     47  C20 non d ame     -30.795  13.723  24.710  0.00  0.00     0.013 C 
ATOM     48  H30 non d ame     -29.856  13.318  25.087  0.00  0.00     0.072 H 
BRANCH  47  49
ATOM     49  C21 non d ame     -31.054  15.082  25.320  0.00  0.00    -0.038 C 
ATOM     50  H31 non d ame     -30.543  15.075  26.283  0.00  0.00     0.036 H 
ATOM     51  H32 non d ame     -30.770  15.806  24.556  0.00  0.00     0.036 H 
BRANCH  49  52
ATOM     52  C22 non d ame     -32.549  15.328  25.620  0.00  0.00     0.018 C 
ATOM     53  H33 non d ame     -32.945  15.843  24.746  0.00  0.00     0.048 H 
ATOM     54  H34 non d ame     -32.955  14.360  25.913  0.00  0.00     0.048 H 
BRANCH  52  55
ATOM     55  C23 non d ame     -32.797  16.278  26.825  0.00  0.00     0.259 C 
ATOM     56  O7  non d ame     -32.787  17.457  26.676  0.00  0.00    -0.265 OA
BRANCH  55  57
ATOM     57  O8  non d ame     -33.024  15.723  28.115  0.00  0.00    -0.317 OA
BRANCH  57  58
ATOM     58  C29 non d ame     -33.485  14.369  28.093  0.00  0.00     0.052 C 
ATOM     59  H47 non d ame     -34.461  14.382  28.579  0.00  0.00     0.082 H 
ATOM     60  H48 non d ame     -33.396  14.043  27.057  0.00  0.00     0.082 H 
BRANCH  58  61
ATOM     61  C35 non d ame     -32.517  13.519  28.959  0.00  0.00    -0.034 A 
ATOM     62  C30 non d ame     -31.165  13.455  28.634  0.00  0.00    -0.075 A 
ATOM     63  C31 non d ame     -30.296  12.692  29.411  0.00  0.00    -0.082 A 
ATOM     64  H49 non d ame     -30.788  14.003  27.770  0.00  0.00     0.084 H 
ATOM     65  C32 non d ame     -30.782  11.988  30.516  0.00  0.00    -0.083 A 
ATOM     66  H50 non d ame     -29.237  12.645  29.155  0.00  0.00     0.083 H 
ATOM     67  C33 non d ame     -32.132  12.052  30.834  0.00  0.00    -0.082 A 
ATOM     68  H51 non d ame     -30.109  11.389  31.129  0.00  0.00     0.083 H 
ATOM     69  C34 non d ame     -33.005  12.815  30.062  0.00  0.00    -0.075 A 
ATOM     70  H52 non d ame     -32.509  11.500  31.696  0.00  0.00     0.083 H 
ATOM     71  H53 non d ame     -34.063  12.862  30.319  0.00  0.00     0.084 H 
ENDBRANCH  58  61
ENDBRANCH  57  58
ENDBRANCH  55  57
ENDBRANCH  52  55
ENDBRANCH  49  52
ENDBRANCH  47  49
BRANCH  47  72
ATOM     72  C24 non d ame     -30.745  13.847  23.189  0.00  0.00    -0.039 C 
ATOM     73  H35 non d ame     -30.066  13.063  22.855  0.00  0.00     0.036 H 
ATOM     74  H36 non d ame     -31.786  13.842  22.863  0.00  0.00     0.036 H 
BRANCH  72  75
ATOM     75  C25 non d ame     -30.114  15.246  22.729  0.00  0.00    -0.001 C 
ATOM     76  C26 non d ame     -31.247  16.139  21.938  0.00  0.00    -0.035 C 
ATOM     77  C27 non d ame     -30.730  16.550  20.756  0.00  0.00     0.085 C 
ATOM     78  H38 non d ame     -32.083  15.506  21.645  0.00  0.00     0.036 H 
ATOM     79  H39 non d ame     -31.430  17.070  22.474  0.00  0.00     0.036 H 
ATOM     80  N5  non d ame     -29.472  15.750  20.521  0.00  0.00    -0.049 N 
ATOM     81  H40 non d ame     -31.471  16.277  20.004  0.00  0.00     0.075 H 
ATOM     82  H41 non d ame     -30.464  17.596  20.903  0.00  0.00     0.075 H 
ATOM     83  C28 non d ame     -29.109  15.068  21.939  0.00  0.00     0.193 C 
ATOM     84  H42 non d ame     -29.714  15.021  19.866  0.00  0.00     0.280 HD
ATOM     85  H43 non d ame     -28.749  16.417  20.290  0.00  0.00     0.280 HD
ATOM     86  H44 non d ame     -28.301  15.465  22.553  0.00  0.00     0.129 H 
ATOM     87  H37 non d ame     -29.569  15.738  23.535  0.00  0.00     0.046 H 
BRANCH  83  88
ATOM     88  O6  non d ame     -28.805  13.684  21.756  0.00  0.00    -0.369 OA
ATOM     89  H45 non d ame     -29.527  13.257  21.287  0.00  0.00     0.212 HD
ENDBRANCH  83  88
ENDBRANCH  72  75
ENDBRANCH  47  72
ENDBRANCH  45  47
ENDBRANCH   1  43
BRANCH   1  90
ATOM     90  C16 non d ame     -33.136  10.639  27.141  0.00  0.00    -0.035 C 
ATOM     91  H21 non d ame     -32.221  10.584  27.731  0.00  0.00     0.037 H 
ATOM     92  H22 non d ame     -33.702  11.570  27.099  0.00  0.00     0.037 H 
BRANCH  90  93
ATOM     93  C17 non d ame     -34.102   9.561  27.727  0.00  0.00    -0.059 C 
ATOM     94  H23 non d ame     -34.036   8.677  27.092  0.00  0.00     0.038 H 
BRANCH  93  95
ATOM     95  C18 non d ame     -33.703   9.137  29.177  0.00  0.00    -0.073 C 
ATOM     96  H24 non d ame     -33.122   8.216  29.139  0.00  0.00     0.028 H 
ATOM     97  H25 non d ame     -33.106   9.924  29.635  0.00  0.00     0.028 H 
ATOM     98  H26 non d ame     -34.604   8.974  29.768  0.00  0.00     0.028 H 
ENDBRANCH  93  95
BRANCH  93  99
ATOM     99  C19 non d ame     -35.554  10.045  27.681  0.00  0.00    -0.073 C 
ATOM    100  H27 non d ame     -36.014   9.909  28.661  0.00  0.00     0.028 H 
ATOM    101  H28 non d ame     -35.576  11.102  27.413  0.00  0.00     0.028 H 
ATOM    102  H29 non d ame     -36.105   9.471  26.937  0.00  0.00     0.028 H 
ENDBRANCH  93  99
ENDBRANCH  90  93
ENDBRANCH   1  90
TORSDOF 26
ENDMDL
MODEL 3
REMARK VINA RESULT:      -7.0      1.428      2.115
REMARK  26 active torsions:
REMARK  status: ('A' for Active; 'I' for Inactive)
REMARK    1  A    between atoms: C2_2  and  C3_3 
REMARK    2  A    between atoms: C4_6  and  C5_7 
REMARK       I    between atoms: C5_7  and  N2_9 
REMARK    3  A    between atoms: N2_9  and  C6_10 
REMARK    4  A    between atoms: C6_10  and  C7_11 
REMARK    5  A    between atoms: C6_10  and  C8_13 
REMARK       I    between atoms: C7_11  and  N3_14 
REMARK    6  A    between atoms: N3_14  and  C9_15 
REMARK    7  A    between atoms: C9_15  and  C10_16 
REMARK    8  A    between atoms: C9_15  and  C11_18 
REMARK       I    between atoms: C10_16  and  N4_21 
REMARK    9  A    between atoms: C11_18  and  C12_19 
REMARK   10  A    between atoms: C11_18  and  C13_20 
REMARK   11  A    between atoms: N4_21  and  C14_22 
REMARK   12  A    between atoms: C14_22  and  C15_23 
REMARK   13  A    between atoms: C14_22  and  C16_25 
REMARK       I    between atoms: C15_23  and  N6_40 
REMARK   14  A    between atoms: C16_25  and  C17_26 
REMARK   15  A    between atoms: C17_26  and  C18_27 
REMARK   16  A    between atoms: C17_26  and  C19_28 
REMARK   17  A    between atoms: C20_29  and  C21_30 
REMARK   18  A    between atoms: C20_29  and  C24_33 
REMARK   19  A    between atoms: C20_29  and  N6_40 
REMARK   20  A    between atoms: C21_30  and  C22_31 
REMARK   21  A    between atoms: C22_31  and  C23_32 
REMARK   22  A    between atoms: C23_32  and  O8_43 
REMARK   23  A    between atoms: C24_33  and  C25_34 
REMARK   24  A    between atoms: C28_38  and  O6_39 
REMARK   25  A    between atoms: C29_42  and  O8_43 
REMARK   26  A    between atoms: C29_42  and  C35_49 
ROOT
ATOM      1  C14 non d ame     -31.191  14.119  24.384  0.00  0.00     0.089 C 
ATOM      2  H20 non d ame     -30.191  13.699  24.486  0.00  0.00     0.087 H 
ENDROOT
BRANCH   1   3
ATOM      3  N4  non d ame     -32.144  13.051  24.643  0.00  0.00    -0.346 N 
ATOM      4  C10 non d ame     -31.774  11.902  25.547  0.00  0.00     0.241 C 
ATOM      5  O4  non d ame     -30.701  11.858  26.053  0.00  0.00    -0.271 OA
ATOM      6  H19 non d ame     -33.051  13.105  24.201  0.00  0.00     0.163 HD
BRANCH   4   7
ATOM      7  C9  non d ame     -32.775  10.807  25.808  0.00  0.00     0.092 C 
ATOM      8  H11 non d ame     -32.889  10.674  26.883  0.00  0.00     0.088 H 
BRANCH   7   9
ATOM      9  N3  non d ame     -34.083  11.204  25.279  0.00  0.00    -0.346 N 
ATOM     10  C7  non d ame     -35.062  11.802  26.154  0.00  0.00     0.240 C 
ATOM     11  O3  non d ame     -34.814  11.970  27.286  0.00  0.00    -0.271 OA
ATOM     12  H10 non d ame     -34.313  11.065  24.306  0.00  0.00     0.163 HD
BRANCH  10  13
ATOM     13  C6  non d ame     -36.454  12.221  25.587  0.00  0.00     0.086 C 
ATOM     14  H6  non d ame     -37.274  11.980  26.263  0.00  0.00     0.086 H 
BRANCH  13  15
ATOM     15  N2  non d ame     -36.475  13.662  25.404  0.00  0.00    -0.343 N 
ATOM     16  C5  non d ame     -37.441  14.470  26.150  0.00  0.00     0.273 C 
ATOM     17  O2  non d ame     -38.200  13.951  26.893  0.00  0.00    -0.266 OA
ATOM     18  H5  non d ame     -35.825  14.098  24.765  0.00  0.00     0.163 HD
BRANCH  16  19
ATOM     19  C4  non d ame     -37.473  15.996  25.968  0.00  0.00     0.154 A 
ATOM     20  C1  non d ame     -37.112  16.734  24.797  0.00  0.00    -0.017 A 
ATOM     21  C2  non d ame     -37.318  18.089  25.143  0.00  0.00     0.077 A 
ATOM     22  H1  non d ame     -36.754  16.347  23.842  0.00  0.00     0.091 H 
ATOM     23  O1  non d ame     -37.749  18.113  26.370  0.00  0.00    -0.218 OA
ATOM     24  N1  non d ame     -37.848  16.905  26.873  0.00  0.00    -0.123 NA
BRANCH  21  25
ATOM     25  C3  non d ame     -37.080  19.295  24.244  0.00  0.00    -0.029 C 
ATOM     26  H2  non d ame     -36.427  20.004  24.752  0.00  0.00     0.036 H 
ATOM     27  H3  non d ame     -36.610  18.970  23.316  0.00  0.00     0.036 H 
ATOM     28  H4  non d ame     -38.032  19.775  24.020  0.00  0.00     0.036 H 
ENDBRANCH  21  25
ENDBRANCH  16  19
ENDBRANCH  13  15
BRANCH  13  29
ATOM     29  C8  non d ame     -36.691  11.529  24.268  0.00  0.00    -0.049 C 
ATOM     30  H7  non d ame     -37.739  11.239  24.193  0.00  0.00     0.030 H 
ATOM     31  H8  non d ame     -36.442  12.208  23.452  0.00  0.00     0.030 H 
ATOM     32  H9  non d ame     -36.063  10.640  24.206  0.00  0.00     0.030 H 
ENDBRANCH  13  29
ENDBRANCH  10  13
ENDBRANCH   7   9
BRANCH   7  33
ATOM     33  C11 non d ame     -32.309   9.500  25.102  0.00  0.00    -0.033 C 
ATOM     34  H12 non d ame     -31.224   9.545  25.009  0.00  0.00     0.042 H 
BRANCH  33  35
ATOM     35  C12 non d ame     -32.655   8.239  25.955  0.00  0.00    -0.071 C 
ATOM     36  H13 non d ame     -33.713   8.257  26.218  0.00  0.00     0.028 H 
ATOM     37  H14 non d ame     -32.439   7.340  25.379  0.00  0.00     0.028 H 
ATOM     38  H15 non d ame     -32.055   8.241  26.865  0.00  0.00     0.028 H 
ENDBRANCH  33  35
BRANCH  33  39
ATOM     39  C13 non d ame     -32.913   9.394  23.665  0.00  0.00    -0.071 C 
ATOM     40  H16 non d ame     -33.184  10.389  23.311  0.00  0.00     0.028 H 
ATOM     41  H17 non d ame     -32.175   8.956  22.992  0.00  0.00     0.028 H 
ATOM     42  H18 non d ame     -33.801   8.762  23.690  0.00  0.00     0.028 H 
ENDBRANCH  33  39
ENDBRANCH   7  33
ENDBRANCH   4   7
ENDBRANCH   1   3
BRANCH   1  43
ATOM     43  C15 non d ame     -31.450  15.270  25.399  0.00  0.00     0.240 C 
ATOM     44  O5  non d ame     -30.827  16.279  25.320  0.00  0.00    -0.271 OA
ATOM     45  N6  non d ame     -32.482  15.118  26.464  0.00  0.00    -0.355 N 
ATOM     46  H46 non d ame     -33.022  14.267  26.537  0.00  0.00     0.162 HD
BRANCH  45  47
ATOM     47  C20 non d ame     -32.718  16.221  27.419  0.00  0.00     0.013 C 
ATOM     48  H30 non d ame     -31.977  16.997  27.226  0.00  0.00     0.072 H 
BRANCH  47  49
ATOM     49  C21 non d ame     -32.564  15.701  28.831  0.00  0.00    -0.038 C 
ATOM     50  H31 non d ame     -31.563  15.996  29.146  0.00  0.00     0.036 H 
ATOM     51  H32 non d ame     -33.436  16.065  29.375  0.00  0.00     0.036 H 
BRANCH  49  52
ATOM     52  C22 non d ame     -32.611  14.160  28.910  0.00  0.00     0.018 C 
ATOM     53  H33 non d ame     -33.139  13.928  29.834  0.00  0.00     0.048 H 
ATOM     54  H34 non d ame     -33.014  13.827  27.953  0.00  0.00     0.048 H 
BRANCH  52  55
ATOM     55  C23 non d ame     -31.211  13.497  29.038  0.00  0.00     0.259 C 
ATOM     56  O7  non d ame     -30.248  14.029  28.589  0.00  0.00    -0.265 OA
BRANCH  55  57
ATOM     57  O8  non d ame     -31.094  12.237  29.689  0.00  0.00    -0.317 OA
BRANCH  57  58
ATOM     58  C29 non d ame     -31.846  12.136  30.902  0.00  0.00     0.052 C 
ATOM     59  H47 non d ame     -31.157  11.733  31.644  0.00  0.00     0.082 H 
ATOM     60  H48 non d ame     -32.296  13.117  31.053  0.00  0.00     0.082 H 
BRANCH  58  61
ATOM     61  C35 non d ame     -32.983  11.105  30.676  0.00  0.00    -0.034 A 
ATOM     62  C30 non d ame     -34.043  11.028  31.574  0.00  0.00    -0.075 A 
ATOM     63  C31 non d ame     -35.064  10.101  31.372  0.00  0.00    -0.082 A 
ATOM     64  H49 non d ame     -34.073  11.693  32.438  0.00  0.00     0.084 H 
ATOM     65  C32 non d ame     -35.023   9.247  30.266  0.00  0.00    -0.083 A 
ATOM     66  H50 non d ame     -35.894  10.045  32.077  0.00  0.00     0.083 H 
ATOM     67  C33 non d ame     -33.962   9.325  29.374  0.00  0.00    -0.082 A 
ATOM     68  H51 non d ame     -35.818   8.520  30.100  0.00  0.00     0.083 H 
ATOM     69  C34 non d ame     -32.940  10.251  29.572  0.00  0.00    -0.075 A 
ATOM     70  H52 non d ame     -33.931   8.656  28.514  0.00  0.00     0.083 H 
ATOM     71  H53 non d ame     -32.110  10.307  28.866  0.00  0.00     0.084 H 
ENDBRANCH  58  61
ENDBRANCH  57  58
ENDBRANCH  55  57
ENDBRANCH  52  55
ENDBRANCH  49  52
ENDBRANCH  47  49
BRANCH  47  72
ATOM     72  C24 non d ame     -34.128  16.776  27.231  0.00  0.00    -0.039 C 
ATOM     73  H35 non d ame     -34.541  16.235  26.379  0.00  0.00     0.036 H 
ATOM     74  H36 non d ame     -34.604  16.697  28.208  0.00  0.00     0.036 H 
BRANCH  72  75
ATOM     75  C25 non d ame     -34.107  18.329  26.840  0.00  0.00    -0.001 C 
ATOM     76  C26 non d ame     -32.569  18.907  26.923  0.00  0.00    -0.035 C 
ATOM     77  C27 non d ame     -32.565  20.028  27.683  0.00  0.00     0.085 C 
ATOM     78  H38 non d ame     -31.941  18.216  27.485  0.00  0.00     0.036 H 
ATOM     79  H39 non d ame     -32.249  19.261  25.943  0.00  0.00     0.036 H 
ATOM     80  N5  non d ame     -33.896  20.086  28.393  0.00  0.00    -0.049 N 
ATOM     81  H40 non d ame     -31.775  19.878  28.419  0.00  0.00     0.075 H 
ATOM     82  H41 non d ame     -32.502  20.857  26.978  0.00  0.00     0.075 H 
ATOM     83  C28 non d ame     -34.848  19.023  27.638  0.00  0.00     0.193 C 
ATOM     84  H42 non d ame     -33.732  19.760  29.334  0.00  0.00     0.280 HD
ATOM     85  H43 non d ame     -34.263  21.014  28.236  0.00  0.00     0.280 HD
ATOM     86  H44 non d ame     -35.619  19.363  26.947  0.00  0.00     0.129 H 
ATOM     87  H37 non d ame     -34.664  18.533  25.925  0.00  0.00     0.046 H 
BRANCH  83  88
ATOM     88  O6  non d ame     -35.525  18.203  28.592  0.00  0.00    -0.369 OA
ATOM     89  H45 non d ame     -35.783  17.376  28.179  0.00  0.00     0.212 HD
ENDBRANCH  83  88
ENDBRANCH  72  75
ENDBRANCH  47  72
ENDBRANCH  45  47
ENDBRANCH   1  43
BRANCH   1  90
ATOM     90  C16 non d ame     -31.393  14.632  22.967  0.00  0.00    -0.035 C 
ATOM     91  H21 non d ame     -32.195  14.023  22.552  0.00  0.00     0.037 H 
ATOM     92  H22 non d ame     -31.522  15.710  23.066  0.00  0.00     0.037 H 
BRANCH  90  93
ATOM     93  C17 non d ame     -30.153  14.418  22.042  0.00  0.00    -0.059 C 
ATOM     94  H23 non d ame     -30.071  13.350  21.841  0.00  0.00     0.038 H 
BRANCH  93  95
ATOM     95  C18 non d ame     -30.309  15.150  20.670  0.00  0.00    -0.073 C 
ATOM     96  H24 non d ame     -29.323  15.369  20.261  0.00  0.00     0.028 H 
ATOM     97  H25 non d ame     -30.856  14.511  19.977  0.00  0.00     0.028 H 
ATOM     98  H26 non d ame     -30.857  16.081  20.815  0.00  0.00     0.028 H 
ENDBRANCH  93  95
BRANCH  93  99
ATOM     99  C19 non d ame     -28.864  14.850  22.746  0.00  0.00    -0.073 C 
ATOM    100  H27 non d ame     -28.806  15.939  22.762  0.00  0.00     0.028 H 
ATOM    101  H28 non d ame     -28.863  14.471  23.768  0.00  0.00     0.028 H 
ATOM    102  H29 non d ame     -28.005  14.448  22.209  0.00  0.00     0.028 H 
ENDBRANCH  93  99
ENDBRANCH  90  93
ENDBRANCH   1  90
TORSDOF 26
ENDMDL
MODEL 4
REMARK VINA RESULT:      -7.0      3.465      7.251
REMARK  26 active torsions:
REMARK  status: ('A' for Active; 'I' for Inactive)
REMARK    1  A    between atoms: C2_2  and  C3_3 
REMARK    2  A    between atoms: C4_6  and  C5_7 
REMARK       I    between atoms: C5_7  and  N2_9 
REMARK    3  A    between atoms: N2_9  and  C6_10 
REMARK    4  A    between atoms: C6_10  and  C7_11 
REMARK    5  A    between atoms: C6_10  and  C8_13 
REMARK       I    between atoms: C7_11  and  N3_14 
REMARK    6  A    between atoms: N3_14  and  C9_15 
REMARK    7  A    between atoms: C9_15  and  C10_16 
REMARK    8  A    between atoms: C9_15  and  C11_18 
REMARK       I    between atoms: C10_16  and  N4_21 
REMARK    9  A    between atoms: C11_18  and  C12_19 
REMARK   10  A    between atoms: C11_18  and  C13_20 
REMARK   11  A    between atoms: N4_21  and  C14_22 
REMARK   12  A    between atoms: C14_22  and  C15_23 
REMARK   13  A    between atoms: C14_22  and  C16_25 
REMARK       I    between atoms: C15_23  and  N6_40 
REMARK   14  A    between atoms: C16_25  and  C17_26 
REMARK   15  A    between atoms: C17_26  and  C18_27 
REMARK   16  A    between atoms: C17_26  and  C19_28 
REMARK   17  A    between atoms: C20_29  and  C21_30 
REMARK   18  A    between atoms: C20_29  and  C24_33 
REMARK   19  A    between atoms: C20_29  and  N6_40 
REMARK   20  A    between atoms: C21_30  and  C22_31 
REMARK   21  A    between atoms: C22_31  and  C23_32 
REMARK   22  A    between atoms: C23_32  and  O8_43 
REMARK   23  A    between atoms: C24_33  and  C25_34 
REMARK   24  A    between atoms: C28_38  and  O6_39 
REMARK   25  A    between atoms: C29_42  and  O8_43 
REMARK   26  A    between atoms: C29_42  and  C35_49 
ROOT
ATOM      1  C14 non d ame     -32.958  10.247  25.428  0.00  0.00     0.089 C 
ATOM      2  H20 non d ame     -33.632  10.323  24.574  0.00  0.00     0.087 H 
ENDROOT
BRANCH   1   3
ATOM      3  N4  non d ame     -32.389   8.907  25.419  0.00  0.00    -0.346 N 
ATOM      4  C10 non d ame     -33.147   7.762  24.798  0.00  0.00     0.241 C 
ATOM      5  O4  non d ame     -34.216   7.941  24.314  0.00  0.00    -0.271 OA
ATOM      6  H19 non d ame     -31.479   8.775  25.838  0.00  0.00     0.163 HD
BRANCH   4   7
ATOM      7  C9  non d ame     -32.540   6.383  24.792  0.00  0.00     0.092 C 
ATOM      8  H11 non d ame     -31.474   6.460  25.007  0.00  0.00     0.088 H 
BRANCH   7   9
ATOM      9  N3  non d ame     -33.141   5.580  25.862  0.00  0.00    -0.346 N 
ATOM     10  C7  non d ame     -32.695   5.745  27.223  0.00  0.00     0.240 C 
ATOM     11  O3  non d ame     -31.854   6.519  27.476  0.00  0.00    -0.271 OA
ATOM     12  H10 non d ame     -33.866   4.907  25.658  0.00  0.00     0.163 HD
BRANCH  10  13
ATOM     13  C6  non d ame     -33.336   4.885  28.357  0.00  0.00     0.086 C 
ATOM     14  H6  non d ame     -32.699   4.806  29.237  0.00  0.00     0.086 H 
BRANCH  13  15
ATOM     15  N2  non d ame     -34.568   5.522  28.792  0.00  0.00    -0.343 N 
ATOM     16  C5  non d ame     -34.917   5.521  30.214  0.00  0.00     0.273 C 
ATOM     17  O2  non d ame     -34.202   5.004  31.000  0.00  0.00    -0.266 OA
ATOM     18  H5  non d ame     -35.175   5.959  28.113  0.00  0.00     0.163 HD
BRANCH  16  19
ATOM     19  C4  non d ame     -36.216   6.192  30.688  0.00  0.00     0.154 A 
ATOM     20  C1  non d ame     -36.506   7.593  30.716  0.00  0.00    -0.017 A 
ATOM     21  C2  non d ame     -37.818   7.683  31.232  0.00  0.00     0.077 A 
ATOM     22  H1  non d ame     -35.862   8.418  30.410  0.00  0.00     0.091 H 
ATOM     23  O1  non d ame     -38.226   6.470  31.467  0.00  0.00    -0.218 OA
ATOM     24  N1  non d ame     -37.308   5.583  31.159  0.00  0.00    -0.123 NA
BRANCH  21  25
ATOM     25  C3  non d ame     -38.609   8.963  31.466  0.00  0.00    -0.029 C 
ATOM     26  H2  non d ame     -39.545   8.725  31.970  0.00  0.00     0.036 H 
ATOM     27  H3  non d ame     -38.025   9.641  32.088  0.00  0.00     0.036 H 
ATOM     28  H4  non d ame     -38.822   9.439  30.509  0.00  0.00     0.036 H 
ENDBRANCH  21  25
ENDBRANCH  16  19
ENDBRANCH  13  15
BRANCH  13  29
ATOM     29  C8  non d ame     -33.626   3.500  27.838  0.00  0.00    -0.049 C 
ATOM     30  H7  non d ame     -33.313   3.430  26.796  0.00  0.00     0.030 H 
ATOM     31  H8  non d ame     -33.078   2.768  28.431  0.00  0.00     0.030 H 
ATOM     32  H9  non d ame     -34.695   3.301  27.911  0.00  0.00     0.030 H 
ENDBRANCH  13  29
ENDBRANCH  10  13
ENDBRANCH   7   9
BRANCH   7  33
ATOM     33  C11 non d ame     -32.814   5.702  23.419  0.00  0.00    -0.033 C 
ATOM     34  H12 non d ame     -33.691   6.179  22.984  0.00  0.00     0.042 H 
BRANCH  33  35
ATOM     35  C12 non d ame     -31.625   5.916  22.431  0.00  0.00    -0.071 C 
ATOM     36  H13 non d ame     -31.172   4.954  22.193  0.00  0.00     0.028 H 
ATOM     37  H14 non d ame     -31.992   6.382  21.517  0.00  0.00     0.028 H 
ATOM     38  H15 non d ame     -30.879   6.562  22.895  0.00  0.00     0.028 H 
ENDBRANCH  33  35
BRANCH  33  39
ATOM     39  C13 non d ame     -33.131   4.183  23.602  0.00  0.00    -0.071 C 
ATOM     40  H16 non d ame     -32.471   3.594  22.964  0.00  0.00     0.028 H 
ATOM     41  H17 non d ame     -32.974   3.901  24.644  0.00  0.00     0.028 H 
ATOM     42  H18 non d ame     -34.168   3.992  23.328  0.00  0.00     0.028 H 
ENDBRANCH  33  39
ENDBRANCH   7  33
ENDBRANCH   4   7
ENDBRANCH   1   3
BRANCH   1  43
ATOM     43  C15 non d ame     -31.797  11.279  25.353  0.00  0.00     0.240 C 
ATOM     44  O5  non d ame     -30.722  10.992  25.773  0.00  0.00    -0.271 OA
ATOM     45  N6  non d ame     -32.022  12.624  24.751  0.00  0.00    -0.355 N 
ATOM     46  H46 non d ame     -32.929  12.878  24.387  0.00  0.00     0.162 HD
BRANCH  45  47
ATOM     47  C20 non d ame     -30.907  13.594  24.687  0.00  0.00     0.013 C 
ATOM     48  H30 non d ame     -30.099  13.218  25.314  0.00  0.00     0.072 H 
BRANCH  47  49
ATOM     49  C21 non d ame     -31.381  14.934  25.202  0.00  0.00    -0.038 C 
ATOM     50  H31 non d ame     -30.597  15.645  24.938  0.00  0.00     0.036 H 
ATOM     51  H32 non d ame     -32.389  15.062  24.806  0.00  0.00     0.036 H 
BRANCH  49  52
ATOM     52  C22 non d ame     -31.507  14.974  26.740  0.00  0.00     0.018 C 
ATOM     53  H33 non d ame     -30.943  14.117  27.105  0.00  0.00     0.048 H 
ATOM     54  H34 non d ame     -31.218  15.984  27.034  0.00  0.00     0.048 H 
BRANCH  52  55
ATOM     55  C23 non d ame     -32.961  14.780  27.254  0.00  0.00     0.259 C 
ATOM     56  O7  non d ame     -33.695  14.017  26.714  0.00  0.00    -0.265 OA
BRANCH  55  57
ATOM     57  O8  non d ame     -33.411  15.533  28.373  0.00  0.00    -0.317 OA
BRANCH  57  58
ATOM     58  C29 non d ame     -34.497  16.418  28.081  0.00  0.00     0.052 C 
ATOM     59  H47 non d ame     -35.114  15.895  27.350  0.00  0.00     0.082 H 
ATOM     60  H48 non d ame     -34.916  16.699  29.046  0.00  0.00     0.082 H 
BRANCH  58  61
ATOM     61  C35 non d ame     -33.912  17.689  27.410  0.00  0.00    -0.034 A 
ATOM     62  C30 non d ame     -32.936  18.435  28.064  0.00  0.00    -0.075 A 
ATOM     63  C31 non d ame     -32.411  19.578  27.462  0.00  0.00    -0.082 A 
ATOM     64  H49 non d ame     -32.584  18.126  29.048  0.00  0.00     0.084 H 
ATOM     65  C32 non d ame     -32.866  19.975  26.202  0.00  0.00    -0.083 A 
ATOM     66  H50 non d ame     -31.645  20.159  27.976  0.00  0.00     0.083 H 
ATOM     67  C33 non d ame     -33.842  19.229  25.555  0.00  0.00    -0.082 A 
ATOM     68  H51 non d ame     -32.461  20.866  25.724  0.00  0.00     0.083 H 
ATOM     69  C34 non d ame     -34.369  18.085  26.152  0.00  0.00    -0.075 A 
ATOM     70  H52 non d ame     -34.197  19.543  24.573  0.00  0.00     0.083 H 
ATOM     71  H53 non d ame     -35.134  17.504  25.637  0.00  0.00     0.084 H 
ENDBRANCH  58  61
ENDBRANCH  57  58
ENDBRANCH  55  57
ENDBRANCH  52  55
ENDBRANCH  49  52
ENDBRANCH  47  49
BRANCH  47  72
ATOM     72  C24 non d ame     -30.434  13.741  23.242  0.00  0.00    -0.039 C 
ATOM     73  H35 non d ame     -29.459  13.254  23.205  0.00  0.00     0.036 H 
ATOM     74  H36 non d ame     -31.253  13.367  22.629  0.00  0.00     0.036 H 
BRANCH  72  75
ATOM     75  C25 non d ame     -30.209  15.277  22.846  0.00  0.00    -0.001 C 
ATOM     76  C26 non d ame     -31.306  15.727  21.706  0.00  0.00    -0.035 C 
ATOM     77  C27 non d ame     -30.648  16.305  20.672  0.00  0.00     0.085 C 
ATOM     78  H38 non d ame     -31.761  14.845  21.257  0.00  0.00     0.036 H 
ATOM     79  H39 non d ame     -31.935  16.531  22.089  0.00  0.00     0.036 H 
ATOM     80  N5  non d ame     -29.182  15.996  20.854  0.00  0.00    -0.049 N 
ATOM     81  H40 non d ame     -31.010  15.799  19.778  0.00  0.00     0.075 H 
ATOM     82  H41 non d ame     -30.803  17.377  20.792  0.00  0.00     0.075 H 
ATOM     83  C28 non d ame     -29.023  15.469  22.371  0.00  0.00     0.193 C 
ATOM     84  H42 non d ame     -28.969  15.235  20.225  0.00  0.00     0.280 HD
ATOM     85  H43 non d ame     -28.692  16.876  20.766  0.00  0.00     0.280 HD
ATOM     86  H44 non d ame     -28.604  16.116  23.142  0.00  0.00     0.129 H 
ATOM     87  H37 non d ame     -30.111  15.919  23.721  0.00  0.00     0.046 H 
BRANCH  83  88
ATOM     88  O6  non d ame     -28.233  14.279  22.399  0.00  0.00    -0.369 OA
ATOM     89  H45 non d ame     -27.354  14.486  22.727  0.00  0.00     0.212 HD
ENDBRANCH  83  88
ENDBRANCH  72  75
ENDBRANCH  47  72
ENDBRANCH  45  47
ENDBRANCH   1  43
BRANCH   1  90
ATOM     90  C16 non d ame     -33.737  10.446  26.718  0.00  0.00    -0.035 C 
ATOM     91  H21 non d ame     -33.924  11.517  26.780  0.00  0.00     0.037 H 
ATOM     92  H22 non d ame     -34.574   9.749  26.660  0.00  0.00     0.037 H 
BRANCH  90  93
ATOM     93  C17 non d ame     -32.933  10.064  28.001  0.00  0.00    -0.059 C 
ATOM     94  H23 non d ame     -32.010   9.581  27.681  0.00  0.00     0.038 H 
BRANCH  93  95
ATOM     95  C18 non d ame     -32.545  11.318  28.849  0.00  0.00    -0.073 C 
ATOM     96  H24 non d ame     -33.412  11.653  29.418  0.00  0.00     0.028 H 
ATOM     97  H25 non d ame     -31.739  11.058  29.534  0.00  0.00     0.028 H 
ATOM     98  H26 non d ame     -32.215  12.116  28.185  0.00  0.00     0.028 H 
ENDBRANCH  93  95
BRANCH  93  99
ATOM     99  C19 non d ame     -33.706   9.051  28.849  0.00  0.00    -0.073 C 
ATOM    100  H27 non d ame     -33.033   8.597  29.578  0.00  0.00     0.028 H 
ATOM    101  H28 non d ame     -34.518   9.557  29.371  0.00  0.00     0.028 H 
ATOM    102  H29 non d ame     -34.118   8.276  28.204  0.00  0.00     0.028 H 
ENDBRANCH  93  99
ENDBRANCH  90  93
ENDBRANCH   1  90
TORSDOF 26
ENDMDL
MODEL 5
REMARK VINA RESULT:      -6.9      1.982      5.616
REMARK  26 active torsions:
REMARK  status: ('A' for Active; 'I' for Inactive)
REMARK    1  A    between atoms: C2_2  and  C3_3 
REMARK    2  A    between atoms: C4_6  and  C5_7 
REMARK       I    between atoms: C5_7  and  N2_9 
REMARK    3  A    between atoms: N2_9  and  C6_10 
REMARK    4  A    between atoms: C6_10  and  C7_11 
REMARK    5  A    between atoms: C6_10  and  C8_13 
REMARK       I    between atoms: C7_11  and  N3_14 
REMARK    6  A    between atoms: N3_14  and  C9_15 
REMARK    7  A    between atoms: C9_15  and  C10_16 
REMARK    8  A    between atoms: C9_15  and  C11_18 
REMARK       I    between atoms: C10_16  and  N4_21 
REMARK    9  A    between atoms: C11_18  and  C12_19 
REMARK   10  A    between atoms: C11_18  and  C13_20 
REMARK   11  A    between atoms: N4_21  and  C14_22 
REMARK   12  A    between atoms: C14_22  and  C15_23 
REMARK   13  A    between atoms: C14_22  and  C16_25 
REMARK       I    between atoms: C15_23  and  N6_40 
REMARK   14  A    between atoms: C16_25  and  C17_26 
REMARK   15  A    between atoms: C17_26  and  C18_27 
REMARK   16  A    between atoms: C17_26  and  C19_28 
REMARK   17  A    between atoms: C20_29  and  C21_30 
REMARK   18  A    between atoms: C20_29  and  C24_33 
REMARK   19  A    between atoms: C20_29  and  N6_40 
REMARK   20  A    between atoms: C21_30  and  C22_31 
REMARK   21  A    between atoms: C22_31  and  C23_32 
REMARK   22  A    between atoms: C23_32  and  O8_43 
REMARK   23  A    between atoms: C24_33  and  C25_34 
REMARK   24  A    between atoms: C28_38  and  O6_39 
REMARK   25  A    between atoms: C29_42  and  O8_43 
REMARK   26  A    between atoms: C29_42  and  C35_49 
ROOT
ATOM      1  C14 non d ame     -30.908  13.987  24.677  0.00  0.00     0.089 C 
ATOM      2  H20 non d ame     -29.945  13.808  25.155  0.00  0.00     0.087 H 
ENDROOT
BRANCH   1   3
ATOM      3  N4  non d ame     -31.393  12.711  24.174  0.00  0.00    -0.346 N 
ATOM      4  C10 non d ame     -31.312  11.473  25.032  0.00  0.00     0.241 C 
ATOM      5  O4  non d ame     -30.850  11.529  26.124  0.00  0.00    -0.271 OA
ATOM      6  H19 non d ame     -31.780  12.684  23.241  0.00  0.00     0.163 HD
BRANCH   4   7
ATOM      7  C9  non d ame     -31.823  10.162  24.497  0.00  0.00     0.092 C 
ATOM      8  H11 non d ame     -31.481   9.353  25.143  0.00  0.00     0.088 H 
BRANCH   7   9
ATOM      9  N3  non d ame     -33.289  10.156  24.535  0.00  0.00    -0.346 N 
ATOM     10  C7  non d ame     -33.980   9.387  25.542  0.00  0.00     0.240 C 
ATOM     11  O3  non d ame     -33.372   8.767  26.327  0.00  0.00    -0.271 OA
ATOM     12  H10 non d ame     -33.826  10.684  23.863  0.00  0.00     0.163 HD
BRANCH  10  13
ATOM     13  C6  non d ame     -35.540   9.383  25.576  0.00  0.00     0.086 C 
ATOM     14  H6  non d ame     -35.940   8.939  26.487  0.00  0.00     0.086 H 
BRANCH  13  15
ATOM     15  N2  non d ame     -36.016  10.755  25.537  0.00  0.00    -0.343 N 
ATOM     16  C5  non d ame     -36.366  11.432  26.788  0.00  0.00     0.273 C 
ATOM     17  O2  non d ame     -36.264  10.864  27.819  0.00  0.00    -0.266 OA
ATOM     18  H5  non d ame     -36.104  11.233  24.651  0.00  0.00     0.163 HD
BRANCH  16  19
ATOM     19  C4  non d ame     -36.870  12.884  26.762  0.00  0.00     0.154 A 
ATOM     20  C1  non d ame     -36.086  14.069  26.591  0.00  0.00    -0.017 A 
ATOM     21  C2  non d ame     -37.015  15.131  26.642  0.00  0.00     0.077 A 
ATOM     22  H1  non d ame     -35.007  14.146  26.451  0.00  0.00     0.091 H 
ATOM     23  O1  non d ame     -38.193  14.607  26.821  0.00  0.00    -0.218 OA
ATOM     24  N1  non d ame     -38.134  13.297  26.894  0.00  0.00    -0.123 NA
BRANCH  21  25
ATOM     25  C3  non d ame     -36.697  16.615  26.512  0.00  0.00    -0.029 C 
ATOM     26  H2  non d ame     -37.612  17.165  26.293  0.00  0.00     0.036 H 
ATOM     27  H3  non d ame     -36.270  16.978  27.446  0.00  0.00     0.036 H 
ATOM     28  H4  non d ame     -35.982  16.763  25.703  0.00  0.00     0.036 H 
ENDBRANCH  21  25
ENDBRANCH  16  19
ENDBRANCH  13  15
BRANCH  13  29
ATOM     29  C8  non d ame     -36.069   8.619  24.388  0.00  0.00    -0.049 C 
ATOM     30  H7  non d ame     -37.154   8.715  24.349  0.00  0.00     0.030 H 
ATOM     31  H8  non d ame     -35.635   9.023  23.474  0.00  0.00     0.030 H 
ATOM     32  H9  non d ame     -35.800   7.566  24.484  0.00  0.00     0.030 H 
ENDBRANCH  13  29
ENDBRANCH  10  13
ENDBRANCH   7   9
BRANCH   7  33
ATOM     33  C11 non d ame     -31.345   9.979  23.027  0.00  0.00    -0.033 C 
ATOM     34  H12 non d ame     -31.599  10.889  22.483  0.00  0.00     0.042 H 
BRANCH  33  35
ATOM     35  C12 non d ame     -29.796   9.804  22.950  0.00  0.00    -0.071 C 
ATOM     36  H13 non d ame     -29.559   8.778  22.671  0.00  0.00     0.028 H 
ATOM     37  H14 non d ame     -29.390  10.487  22.204  0.00  0.00     0.028 H 
ATOM     38  H15 non d ame     -29.357  10.026  23.923  0.00  0.00     0.028 H 
ENDBRANCH  33  35
BRANCH  33  39
ATOM     39  C13 non d ame     -32.084   8.785  22.342  0.00  0.00    -0.071 C 
ATOM     40  H16 non d ame     -31.575   8.527  21.413  0.00  0.00     0.028 H 
ATOM     41  H17 non d ame     -32.080   7.924  23.011  0.00  0.00     0.028 H 
ATOM     42  H18 non d ame     -33.113   9.071  22.125  0.00  0.00     0.028 H 
ENDBRANCH  33  39
ENDBRANCH   7  33
ENDBRANCH   4   7
ENDBRANCH   1   3
BRANCH   1  43
ATOM     43  C15 non d ame     -31.960  14.559  25.671  0.00  0.00     0.240 C 
ATOM     44  O5  non d ame     -32.962  15.045  25.256  0.00  0.00    -0.271 OA
ATOM     45  N6  non d ame     -31.721  14.494  27.141  0.00  0.00    -0.355 N 
ATOM     46  H46 non d ame     -30.875  14.079  27.505  0.00  0.00     0.162 HD
BRANCH  45  47
ATOM     47  C20 non d ame     -32.731  15.041  28.072  0.00  0.00     0.013 C 
ATOM     48  H30 non d ame     -33.704  14.978  27.586  0.00  0.00     0.072 H 
BRANCH  47  49
ATOM     49  C21 non d ame     -32.398  16.483  28.379  0.00  0.00    -0.038 C 
ATOM     50  H31 non d ame     -32.480  16.580  29.462  0.00  0.00     0.036 H 
ATOM     51  H32 non d ame     -31.446  16.677  27.884  0.00  0.00     0.036 H 
BRANCH  49  52
ATOM     52  C22 non d ame     -33.415  17.475  27.774  0.00  0.00     0.018 C 
ATOM     53  H33 non d ame     -33.453  17.246  26.709  0.00  0.00     0.048 H 
ATOM     54  H34 non d ame     -34.315  17.384  28.383  0.00  0.00     0.048 H 
BRANCH  52  55
ATOM     55  C23 non d ame     -32.977  18.962  27.877  0.00  0.00     0.259 C 
ATOM     56  O7  non d ame     -32.377  19.350  28.827  0.00  0.00    -0.265 OA
BRANCH  55  57
ATOM     57  O8  non d ame     -33.313  19.862  26.828  0.00  0.00    -0.317 OA
BRANCH  57  58
ATOM     58  C29 non d ame     -34.079  19.269  25.775  0.00  0.00     0.052 C 
ATOM     59  H47 non d ame     -33.580  19.557  24.850  0.00  0.00     0.082 H 
ATOM     60  H48 non d ame     -34.175  18.215  26.037  0.00  0.00     0.082 H 
BRANCH  58  61
ATOM     61  C35 non d ame     -35.492  19.909  25.791  0.00  0.00    -0.034 A 
ATOM     62  C30 non d ame     -36.326  19.785  24.685  0.00  0.00    -0.075 A 
ATOM     63  C31 non d ame     -37.596  20.360  24.699  0.00  0.00    -0.082 A 
ATOM     64  H49 non d ame     -35.985  19.237  23.806  0.00  0.00     0.084 H 
ATOM     65  C32 non d ame     -38.030  21.065  25.825  0.00  0.00    -0.083 A 
ATOM     66  H50 non d ame     -38.248  20.259  23.831  0.00  0.00     0.083 H 
ATOM     67  C33 non d ame     -37.193  21.190  26.925  0.00  0.00    -0.082 A 
ATOM     68  H51 non d ame     -39.021  21.518  25.845  0.00  0.00     0.083 H 
ATOM     69  C34 non d ame     -35.924  20.614  26.916  0.00  0.00    -0.075 A 
ATOM     70  H52 non d ame     -37.533  21.742  27.801  0.00  0.00     0.083 H 
ATOM     71  H53 non d ame     -35.273  20.716  27.785  0.00  0.00     0.084 H 
ENDBRANCH  58  61
ENDBRANCH  57  58
ENDBRANCH  55  57
ENDBRANCH  52  55
ENDBRANCH  49  52
ENDBRANCH  47  49
BRANCH  47  72
ATOM     72  C24 non d ame     -32.732  14.231  29.367  0.00  0.00    -0.039 C 
ATOM     73  H35 non d ame     -32.145  14.816  30.076  0.00  0.00     0.036 H 
ATOM     74  H36 non d ame     -33.780  14.016  29.574  0.00  0.00     0.036 H 
BRANCH  72  75
ATOM     75  C25 non d ame     -31.987  12.824  29.186  0.00  0.00    -0.001 C 
ATOM     76  C26 non d ame     -33.082  11.598  29.250  0.00  0.00    -0.035 C 
ATOM     77  C27 non d ame     -32.657  10.680  30.151  0.00  0.00     0.085 C 
ATOM     78  H38 non d ame     -34.019  11.957  29.675  0.00  0.00     0.036 H 
ATOM     79  H39 non d ame     -33.084  11.049  28.308  0.00  0.00     0.036 H 
ATOM     80  N5  non d ame     -31.544  11.322  30.944  0.00  0.00    -0.049 N 
ATOM     81  H40 non d ame     -33.507  10.504  30.810  0.00  0.00     0.075 H 
ATOM     82  H41 non d ame     -32.247   9.862  29.561  0.00  0.00     0.075 H 
ATOM     83  C28 non d ame     -31.109  12.637  30.114  0.00  0.00     0.193 C 
ATOM     84  H42 non d ame     -31.949  11.614  31.821  0.00  0.00     0.280 HD
ATOM     85  H43 non d ame     -30.774  10.667  30.936  0.00  0.00     0.280 HD
ATOM     86  H44 non d ame     -30.193  12.641  29.524  0.00  0.00     0.129 H 
ATOM     87  H37 non d ame     -31.296  12.828  28.343  0.00  0.00     0.046 H 
BRANCH  83  88
ATOM     88  O6  non d ame     -31.004  13.760  30.991  0.00  0.00    -0.369 OA
ATOM     89  H45 non d ame     -30.132  14.151  30.907  0.00  0.00     0.212 HD
ENDBRANCH  83  88
ENDBRANCH  72  75
ENDBRANCH  47  72
ENDBRANCH  45  47
ENDBRANCH   1  43
BRANCH   1  90
ATOM     90  C16 non d ame     -30.733  14.946  23.510  0.00  0.00    -0.035 C 
ATOM     91  H21 non d ame     -31.714  15.013  23.041  0.00  0.00     0.037 H 
ATOM     92  H22 non d ame     -30.270  15.837  23.936  0.00  0.00     0.037 H 
BRANCH  90  93
ATOM     93  C17 non d ame     -29.754  14.423  22.411  0.00  0.00    -0.059 C 
ATOM     94  H23 non d ame     -29.718  13.337  22.490  0.00  0.00     0.038 H 
BRANCH  93  95
ATOM     95  C18 non d ame     -30.242  14.780  20.970  0.00  0.00    -0.073 C 
ATOM     96  H24 non d ame     -30.114  15.848  20.797  0.00  0.00     0.028 H 
ATOM     97  H25 non d ame     -29.656  14.222  20.240  0.00  0.00     0.028 H 
ATOM     98  H26 non d ame     -31.294  14.518  20.868  0.00  0.00     0.028 H 
ENDBRANCH  93  95
BRANCH  93  99
ATOM     99  C19 non d ame     -28.335  14.944  22.650  0.00  0.00    -0.073 C 
ATOM    100  H27 non d ame     -27.616  14.265  22.191  0.00  0.00     0.028 H 
ATOM    101  H28 non d ame     -28.231  15.935  22.208  0.00  0.00     0.028 H 
ATOM    102  H29 non d ame     -28.145  15.004  23.722  0.00  0.00     0.028 H 
ENDBRANCH  93  99
ENDBRANCH  90  93
ENDBRANCH   1  90
TORSDOF 26
ENDMDL
MODEL 6
REMARK VINA RESULT:      -6.9      2.453      7.906
REMARK  26 active torsions:
REMARK  status: ('A' for Active; 'I' for Inactive)
REMARK    1  A    between atoms: C2_2  and  C3_3 
REMARK    2  A    between atoms: C4_6  and  C5_7 
REMARK       I    between atoms: C5_7  and  N2_9 
REMARK    3  A    between atoms: N2_9  and  C6_10 
REMARK    4  A    between atoms: C6_10  and  C7_11 
REMARK    5  A    between atoms: C6_10  and  C8_13 
REMARK       I    between atoms: C7_11  and  N3_14 
REMARK    6  A    between atoms: N3_14  and  C9_15 
REMARK    7  A    between atoms: C9_15  and  C10_16 
REMARK    8  A    between atoms: C9_15  and  C11_18 
REMARK       I    between atoms: C10_16  and  N4_21 
REMARK    9  A    between atoms: C11_18  and  C12_19 
REMARK   10  A    between atoms: C11_18  and  C13_20 
REMARK   11  A    between atoms: N4_21  and  C14_22 
REMARK   12  A    between atoms: C14_22  and  C15_23 
REMARK   13  A    between atoms: C14_22  and  C16_25 
REMARK       I    between atoms: C15_23  and  N6_40 
REMARK   14  A    between atoms: C16_25  and  C17_26 
REMARK   15  A    between atoms: C17_26  and  C18_27 
REMARK   16  A    between atoms: C17_26  and  C19_28 
REMARK   17  A    between atoms: C20_29  and  C21_30 
REMARK   18  A    between atoms: C20_29  and  C24_33 
REMARK   19  A    between atoms: C20_29  and  N6_40 
REMARK   20  A    between atoms: C21_30  and  C22_31 
REMARK   21  A    between atoms: C22_31  and  C23_32 
REMARK   22  A    between atoms: C23_32  and  O8_43 
REMARK   23  A    between atoms: C24_33  and  C25_34 
REMARK   24  A    between atoms: C28_38  and  O6_39 
REMARK   25  A    between atoms: C29_42  and  O8_43 
REMARK   26  A    between atoms: C29_42  and  C35_49 
ROOT
ATOM      1  C14 non d ame     -36.515  15.969  26.502  0.00  0.00     0.089 C 
ATOM      2  H20 non d ame     -37.112  16.521  27.228  0.00  0.00     0.087 H 
ENDROOT
BRANCH   1   3
ATOM      3  N4  non d ame     -35.115  16.157  26.853  0.00  0.00    -0.346 N 
ATOM      4  C10 non d ame     -34.722  17.159  27.908  0.00  0.00     0.241 C 
ATOM      5  O4  non d ame     -35.550  17.806  28.460  0.00  0.00    -0.271 OA
ATOM      6  H19 non d ame     -34.425  15.598  26.369  0.00  0.00     0.163 HD
BRANCH   4   7
ATOM      7  C9  non d ame     -33.269  17.337  28.262  0.00  0.00     0.092 C 
ATOM      8  H11 non d ame     -33.193  17.873  29.208  0.00  0.00     0.088 H 
BRANCH   7   9
ATOM      9  N3  non d ame     -32.649  16.023  28.458  0.00  0.00    -0.346 N 
ATOM     10  C7  non d ame     -31.731  15.815  29.551  0.00  0.00     0.240 C 
ATOM     11  O3  non d ame     -31.478  16.695  30.281  0.00  0.00    -0.271 OA
ATOM     12  H10 non d ame     -32.856  15.255  27.836  0.00  0.00     0.163 HD
BRANCH  10  13
ATOM     13  C6  non d ame     -31.072  14.415  29.753  0.00  0.00     0.086 C 
ATOM     14  H6  non d ame     -30.454  14.365  30.650  0.00  0.00     0.086 H 
BRANCH  13  15
ATOM     15  N2  non d ame     -32.119  13.420  29.914  0.00  0.00    -0.343 N 
ATOM     16  C5  non d ame     -31.827  12.173  30.625  0.00  0.00     0.273 C 
ATOM     17  O2  non d ame     -30.745  11.979  31.060  0.00  0.00    -0.266 OA
ATOM     18  H5  non d ame     -33.040  13.593  29.536  0.00  0.00     0.163 HD
BRANCH  16  19
ATOM     19  C4  non d ame     -32.925  11.113  30.804  0.00  0.00     0.154 A 
ATOM     20  C1  non d ame     -33.318  10.108  29.864  0.00  0.00    -0.017 A 
ATOM     21  C2  non d ame     -34.357   9.398  30.505  0.00  0.00     0.077 A 
ATOM     22  H1  non d ame     -32.911   9.922  28.870  0.00  0.00     0.091 H 
ATOM     23  O1  non d ame     -34.532   9.939  31.675  0.00  0.00    -0.218 OA
ATOM     24  N1  non d ame     -33.708  10.942  31.872  0.00  0.00    -0.123 NA
BRANCH  21  25
ATOM     25  C3  non d ame     -35.129   8.217  29.931  0.00  0.00    -0.029 C 
ATOM     26  H2  non d ame     -34.549   7.304  30.065  0.00  0.00     0.036 H 
ATOM     27  H3  non d ame     -36.082   8.120  30.450  0.00  0.00     0.036 H 
ATOM     28  H4  non d ame     -35.309   8.381  28.869  0.00  0.00     0.036 H 
ENDBRANCH  21  25
ENDBRANCH  16  19
ENDBRANCH  13  15
BRANCH  13  29
ATOM     29  C8  non d ame     -30.221  14.080  28.555  0.00  0.00    -0.049 C 
ATOM     30  H7  non d ame     -29.513  13.295  28.821  0.00  0.00     0.030 H 
ATOM     31  H8  non d ame     -30.858  13.733  27.742  0.00  0.00     0.030 H 
ATOM     32  H9  non d ame     -29.675  14.968  28.236  0.00  0.00     0.030 H 
ENDBRANCH  13  29
ENDBRANCH  10  13
ENDBRANCH   7   9
BRANCH   7  33
ATOM     33  C11 non d ame     -32.541  18.083  27.106  0.00  0.00    -0.033 C 
ATOM     34  H12 non d ame     -31.495  18.193  27.393  0.00  0.00     0.042 H 
BRANCH  33  35
ATOM     35  C12 non d ame     -32.579  17.256  25.783  0.00  0.00    -0.071 C 
ATOM     36  H13 non d ame     -32.030  16.325  25.920  0.00  0.00     0.028 H 
ATOM     37  H14 non d ame     -33.614  17.033  25.524  0.00  0.00     0.028 H 
ATOM     38  H15 non d ame     -32.120  17.833  24.980  0.00  0.00     0.028 H 
ENDBRANCH  33  35
BRANCH  33  39
ATOM     39  C13 non d ame     -33.138  19.512  26.899  0.00  0.00    -0.071 C 
ATOM     40  H16 non d ame     -32.332  20.246  26.897  0.00  0.00     0.028 H 
ATOM     41  H17 non d ame     -33.667  19.550  25.946  0.00  0.00     0.028 H 
ATOM     42  H18 non d ame     -33.833  19.736  27.708  0.00  0.00     0.028 H 
ENDBRANCH  33  39
ENDBRANCH   7  33
ENDBRANCH   4   7
ENDBRANCH   1   3
BRANCH   1  43
ATOM     43  C15 non d ame     -36.830  14.445  26.521  0.00  0.00     0.240 C 
ATOM     44  O5  non d ame     -37.888  14.065  26.907  0.00  0.00    -0.271 OA
ATOM     45  N6  non d ame     -35.815  13.460  26.049  0.00  0.00    -0.355 N 
ATOM     46  H46 non d ame     -34.915  13.772  25.714  0.00  0.00     0.162 HD
BRANCH  45  47
ATOM     47  C20 non d ame     -36.131  12.016  26.072  0.00  0.00     0.013 C 
ATOM     48  H30 non d ame     -37.026  11.877  26.677  0.00  0.00     0.072 H 
BRANCH  47  49
ATOM     49  C21 non d ame     -34.972  11.261  26.684  0.00  0.00    -0.038 C 
ATOM     50  H31 non d ame     -34.735  11.785  27.610  0.00  0.00     0.036 H 
ATOM     51  H32 non d ame     -35.284  10.217  26.713  0.00  0.00     0.036 H 
BRANCH  49  52
ATOM     52  C22 non d ame     -33.697  11.312  25.814  0.00  0.00     0.018 C 
ATOM     53  H33 non d ame     -33.203  10.352  25.959  0.00  0.00     0.048 H 
ATOM     54  H34 non d ame     -34.030  11.609  24.819  0.00  0.00     0.048 H 
BRANCH  52  55
ATOM     55  C23 non d ame     -32.675  12.392  26.264  0.00  0.00     0.259 C 
ATOM     56  O7  non d ame     -32.998  13.250  27.021  0.00  0.00    -0.265 OA
BRANCH  55  57
ATOM     57  O8  non d ame     -31.349  12.354  25.751  0.00  0.00    -0.317 OA
BRANCH  57  58
ATOM     58  C29 non d ame     -31.269  11.984  24.371  0.00  0.00     0.052 C 
ATOM     59  H47 non d ame     -30.599  11.126  24.334  0.00  0.00     0.082 H 
ATOM     60  H48 non d ame     -32.300  11.886  24.032  0.00  0.00     0.082 H 
BRANCH  58  61
ATOM     61  C35 non d ame     -30.608  13.157  23.599  0.00  0.00    -0.034 A 
ATOM     62  C30 non d ame     -29.855  12.903  22.457  0.00  0.00    -0.075 A 
ATOM     63  C31 non d ame     -29.261  13.957  21.764  0.00  0.00    -0.082 A 
ATOM     64  H49 non d ame     -29.730  11.879  22.106  0.00  0.00     0.084 H 
ATOM     65  C32 non d ame     -29.420  15.269  22.218  0.00  0.00    -0.083 A 
ATOM     66  H50 non d ame     -28.673  13.754  20.869  0.00  0.00     0.083 H 
ATOM     67  C33 non d ame     -30.170  15.517  23.360  0.00  0.00    -0.082 A 
ATOM     68  H51 non d ame     -28.960  16.098  21.681  0.00  0.00     0.083 H 
ATOM     69  C34 non d ame     -30.767  14.468  24.055  0.00  0.00    -0.075 A 
ATOM     70  H52 non d ame     -30.290  16.542  23.713  0.00  0.00     0.083 H 
ATOM     71  H53 non d ame     -31.355  14.671  24.950  0.00  0.00     0.084 H 
ENDBRANCH  58  61
ENDBRANCH  57  58
ENDBRANCH  55  57
ENDBRANCH  52  55
ENDBRANCH  49  52
ENDBRANCH  47  49
BRANCH  47  72
ATOM     72  C24 non d ame     -36.369  11.517  24.648  0.00  0.00    -0.039 C 
ATOM     73  H35 non d ame     -35.762  12.159  24.010  0.00  0.00     0.036 H 
ATOM     74  H36 non d ame     -36.178  10.444  24.681  0.00  0.00     0.036 H 
BRANCH  72  75
ATOM     75  C25 non d ame     -37.895  11.711  24.200  0.00  0.00    -0.001 C 
ATOM     76  C26 non d ame     -38.449  10.336  23.488  0.00  0.00    -0.035 C 
ATOM     77  C27 non d ame     -39.005  10.656  22.295  0.00  0.00     0.085 C 
ATOM     78  H38 non d ame     -37.613   9.694  23.215  0.00  0.00     0.036 H 
ATOM     79  H39 non d ame     -39.285   9.930  24.058  0.00  0.00     0.036 H 
ATOM     80  N5  non d ame     -38.591  12.073  21.981  0.00  0.00    -0.049 N 
ATOM     81  H40 non d ame     -38.548   9.982  21.571  0.00  0.00     0.075 H 
ATOM     82  H41 non d ame     -40.082  10.630  22.460  0.00  0.00     0.075 H 
ATOM     83  C28 non d ame     -38.015  12.684  23.360  0.00  0.00     0.193 C 
ATOM     84  H42 non d ame     -37.832  12.009  21.316  0.00  0.00     0.280 HD
ATOM     85  H43 non d ame     -39.435  12.570  21.736  0.00  0.00     0.280 HD
ATOM     86  H44 non d ame     -38.612  13.381  23.948  0.00  0.00     0.129 H 
ATOM     87  H37 non d ame     -38.507  12.140  24.994  0.00  0.00     0.046 H 
BRANCH  83  88
ATOM     88  O6  non d ame     -36.773  13.349  23.124  0.00  0.00    -0.369 OA
ATOM     89  H45 non d ame     -36.918  14.298  23.095  0.00  0.00     0.212 HD
ENDBRANCH  83  88
ENDBRANCH  72  75
ENDBRANCH  47  72
ENDBRANCH  45  47
ENDBRANCH   1  43
BRANCH   1  90
ATOM     90  C16 non d ame     -36.756  16.523  25.108  0.00  0.00    -0.035 C 
ATOM     91  H21 non d ame     -35.765  16.652  24.673  0.00  0.00     0.037 H 
ATOM     92  H22 non d ame     -37.470  15.842  24.645  0.00  0.00     0.037 H 
BRANCH  90  93
ATOM     93  C17 non d ame     -37.426  17.934  25.102  0.00  0.00    -0.059 C 
ATOM     94  H23 non d ame     -38.032  18.009  24.199  0.00  0.00     0.038 H 
BRANCH  93  95
ATOM     95  C18 non d ame     -38.371  18.143  26.328  0.00  0.00    -0.073 C 
ATOM     96  H24 non d ame     -39.347  18.482  25.982  0.00  0.00     0.028 H 
ATOM     97  H25 non d ame     -38.484  17.202  26.865  0.00  0.00     0.028 H 
ATOM     98  H26 non d ame     -37.942  18.892  26.994  0.00  0.00     0.028 H 
ENDBRANCH  93  95
BRANCH  93  99
ATOM     99  C19 non d ame     -36.370  19.041  25.033  0.00  0.00    -0.073 C 
ATOM    100  H27 non d ame     -35.708  18.965  25.897  0.00  0.00     0.028 H 
ATOM    101  H28 non d ame     -35.787  18.931  24.119  0.00  0.00     0.028 H 
ATOM    102  H29 non d ame     -36.861  20.013  25.036  0.00  0.00     0.028 H 
ENDBRANCH  93  99
ENDBRANCH  90  93
ENDBRANCH   1  90
TORSDOF 26
ENDMDL
MODEL 7
REMARK VINA RESULT:      -6.8      2.388      5.511
REMARK  26 active torsions:
REMARK  status: ('A' for Active; 'I' for Inactive)
REMARK    1  A    between atoms: C2_2  and  C3_3 
REMARK    2  A    between atoms: C4_6  and  C5_7 
REMARK       I    between atoms: C5_7  and  N2_9 
REMARK    3  A    between atoms: N2_9  and  C6_10 
REMARK    4  A    between atoms: C6_10  and  C7_11 
REMARK    5  A    between atoms: C6_10  and  C8_13 
REMARK       I    between atoms: C7_11  and  N3_14 
REMARK    6  A    between atoms: N3_14  and  C9_15 
REMARK    7  A    between atoms: C9_15  and  C10_16 
REMARK    8  A    between atoms: C9_15  and  C11_18 
REMARK       I    between atoms: C10_16  and  N4_21 
REMARK    9  A    between atoms: C11_18  and  C12_19 
REMARK   10  A    between atoms: C11_18  and  C13_20 
REMARK   11  A    between atoms: N4_21  and  C14_22 
REMARK   12  A    between atoms: C14_22  and  C15_23 
REMARK   13  A    between atoms: C14_22  and  C16_25 
REMARK       I    between atoms: C15_23  and  N6_40 
REMARK   14  A    between atoms: C16_25  and  C17_26 
REMARK   15  A    between atoms: C17_26  and  C18_27 
REMARK   16  A    between atoms: C17_26  and  C19_28 
REMARK   17  A    between atoms: C20_29  and  C21_30 
REMARK   18  A    between atoms: C20_29  and  C24_33 
REMARK   19  A    between atoms: C20_29  and  N6_40 
REMARK   20  A    between atoms: C21_30  and  C22_31 
REMARK   21  A    between atoms: C22_31  and  C23_32 
REMARK   22  A    between atoms: C23_32  and  O8_43 
REMARK   23  A    between atoms: C24_33  and  C25_34 
REMARK   24  A    between atoms: C28_38  and  O6_39 
REMARK   25  A    between atoms: C29_42  and  O8_43 
REMARK   26  A    between atoms: C29_42  and  C35_49 
ROOT
ATOM      1  C14 non d ame     -33.049  10.334  26.232  0.00  0.00     0.089 C 
ATOM      2  H20 non d ame     -33.770  10.694  25.497  0.00  0.00     0.087 H 
ENDROOT
BRANCH   1   3
ATOM      3  N4  non d ame     -32.315   9.235  25.623  0.00  0.00    -0.346 N 
ATOM      4  C10 non d ame     -33.018   8.263  24.710  0.00  0.00     0.241 C 
ATOM      5  O4  non d ame     -34.177   8.384  24.482  0.00  0.00    -0.271 OA
ATOM      6  H19 non d ame     -31.330   9.147  25.832  0.00  0.00     0.163 HD
BRANCH   4   7
ATOM      7  C9  non d ame     -32.242   7.134  24.084  0.00  0.00     0.092 C 
ATOM      8  H11 non d ame     -32.769   6.786  23.195  0.00  0.00     0.088 H 
BRANCH   7   9
ATOM      9  N3  non d ame     -30.932   7.625  23.646  0.00  0.00    -0.346 N 
ATOM     10  C7  non d ame     -30.741   8.049  22.281  0.00  0.00     0.240 C 
ATOM     11  O3  non d ame     -31.630   8.000  21.521  0.00  0.00    -0.271 OA
ATOM     12  H10 non d ame     -30.155   7.671  24.290  0.00  0.00     0.163 HD
BRANCH  10  13
ATOM     13  C6  non d ame     -29.344   8.567  21.820  0.00  0.00     0.086 C 
ATOM     14  H6  non d ame     -29.041   8.162  20.855  0.00  0.00     0.086 H 
BRANCH  13  15
ATOM     15  N2  non d ame     -29.405  10.011  21.663  0.00  0.00    -0.343 N 
ATOM     16  C5  non d ame     -29.887  10.837  22.773  0.00  0.00     0.273 C 
ATOM     17  O2  non d ame     -30.227  10.330  23.785  0.00  0.00    -0.266 OA
ATOM     18  H5  non d ame     -29.115  10.436  20.794  0.00  0.00     0.163 HD
BRANCH  16  19
ATOM     19  C4  non d ame     -29.956  12.365  22.622  0.00  0.00     0.154 A 
ATOM     20  C1  non d ame     -30.725  13.278  23.411  0.00  0.00    -0.017 A 
ATOM     21  C2  non d ame     -30.440  14.553  22.873  0.00  0.00     0.077 A 
ATOM     22  H1  non d ame     -31.388  13.050  24.246  0.00  0.00     0.091 H 
ATOM     23  O1  non d ame     -29.603  14.381  21.892  0.00  0.00    -0.218 OA
ATOM     24  N1  non d ame     -29.306  13.112  21.726  0.00  0.00    -0.123 NA
BRANCH  21  25
ATOM     25  C3  non d ame     -31.007  15.882  23.354  0.00  0.00    -0.029 C 
ATOM     26  H2  non d ame     -30.208  16.481  23.790  0.00  0.00     0.036 H 
ATOM     27  H3  non d ame     -31.443  16.417  22.511  0.00  0.00     0.036 H 
ATOM     28  H4  non d ame     -31.775  15.698  24.105  0.00  0.00     0.036 H 
ENDBRANCH  21  25
ENDBRANCH  16  19
ENDBRANCH  13  15
BRANCH  13  29
ATOM     29  C8  non d ame     -28.305   8.203  22.849  0.00  0.00    -0.049 C 
ATOM     30  H7  non d ame     -27.875   9.112  23.270  0.00  0.00     0.030 H 
ATOM     31  H8  non d ame     -28.770   7.620  23.644  0.00  0.00     0.030 H 
ATOM     32  H9  non d ame     -27.517   7.614  22.379  0.00  0.00     0.030 H 
ENDBRANCH  13  29
ENDBRANCH  10  13
ENDBRANCH   7   9
BRANCH   7  33
ATOM     33  C11 non d ame     -32.044   5.998  25.130  0.00  0.00    -0.033 C 
ATOM     34  H12 non d ame     -31.019   5.639  25.035  0.00  0.00     0.042 H 
BRANCH  33  35
ATOM     35  C12 non d ame     -32.223   6.529  26.586  0.00  0.00    -0.071 C 
ATOM     36  H13 non d ame     -31.356   6.247  27.185  0.00  0.00     0.028 H 
ATOM     37  H14 non d ame     -32.314   7.615  26.568  0.00  0.00     0.028 H 
ATOM     38  H15 non d ame     -33.122   6.096  27.024  0.00  0.00     0.028 H 
ENDBRANCH  33  35
BRANCH  33  39
ATOM     39  C13 non d ame     -33.005   4.799  24.843  0.00  0.00    -0.071 C 
ATOM     40  H16 non d ame     -32.929   4.072  25.651  0.00  0.00     0.028 H 
ATOM     41  H17 non d ame     -34.030   5.164  24.776  0.00  0.00     0.028 H 
ATOM     42  H18 non d ame     -32.725   4.328  23.901  0.00  0.00     0.028 H 
ENDBRANCH  33  39
ENDBRANCH   7  33
ENDBRANCH   4   7
ENDBRANCH   1   3
BRANCH   1  43
ATOM     43  C15 non d ame     -32.033  11.437  26.647  0.00  0.00     0.240 C 
ATOM     44  O5  non d ame     -30.870  11.266  26.472  0.00  0.00    -0.271 OA
ATOM     45  N6  non d ame     -32.512  12.711  27.256  0.00  0.00    -0.355 N 
ATOM     46  H46 non d ame     -33.498  12.870  27.405  0.00  0.00     0.162 HD
BRANCH  45  47
ATOM     47  C20 non d ame     -31.534  13.750  27.644  0.00  0.00     0.013 C 
ATOM     48  H30 non d ame     -30.590  13.524  27.150  0.00  0.00     0.072 H 
BRANCH  47  49
ATOM     49  C21 non d ame     -31.351  13.728  29.145  0.00  0.00    -0.038 C 
ATOM     50  H31 non d ame     -30.407  13.210  29.319  0.00  0.00     0.036 H 
ATOM     51  H32 non d ame     -31.475  14.761  29.472  0.00  0.00     0.036 H 
BRANCH  49  52
ATOM     52  C22 non d ame     -32.439  12.907  29.870  0.00  0.00     0.018 C 
ATOM     53  H33 non d ame     -32.874  13.580  30.608  0.00  0.00     0.048 H 
ATOM     54  H34 non d ame     -33.064  12.485  29.082  0.00  0.00     0.048 H 
BRANCH  52  55
ATOM     55  C23 non d ame     -31.882  11.697  30.669  0.00  0.00     0.259 C 
ATOM     56  O7  non d ame     -30.731  11.643  30.959  0.00  0.00    -0.265 OA
BRANCH  55  57
ATOM     57  O8  non d ame     -32.762  10.643  31.042  0.00  0.00    -0.317 OA
BRANCH  57  58
ATOM     58  C29 non d ame     -34.050  11.087  31.478  0.00  0.00     0.052 C 
ATOM     59  H47 non d ame     -33.923  11.384  32.519  0.00  0.00     0.082 H 
ATOM     60  H48 non d ame     -34.377  11.818  30.739  0.00  0.00     0.082 H 
BRANCH  58  61
ATOM     61  C35 non d ame     -35.017   9.874  31.428  0.00  0.00    -0.034 A 
ATOM     62  C30 non d ame     -34.519   8.595  31.202  0.00  0.00    -0.075 A 
ATOM     63  C31 non d ame     -35.388   7.505  31.157  0.00  0.00    -0.082 A 
ATOM     64  H49 non d ame     -33.449   8.446  31.059  0.00  0.00     0.084 H 
ATOM     65  C32 non d ame     -36.760   7.699  31.337  0.00  0.00    -0.083 A 
ATOM     66  H50 non d ame     -34.994   6.504  30.981  0.00  0.00     0.083 H 
ATOM     67  C33 non d ame     -37.253   8.977  31.560  0.00  0.00    -0.082 A 
ATOM     68  H51 non d ame     -37.446   6.852  31.304  0.00  0.00     0.083 H 
ATOM     69  C34 non d ame     -36.388  10.069  31.607  0.00  0.00    -0.075 A 
ATOM     70  H52 non d ame     -38.324   9.125  31.697  0.00  0.00     0.083 H 
ATOM     71  H53 non d ame     -36.783  11.070  31.783  0.00  0.00     0.084 H 
ENDBRANCH  58  61
ENDBRANCH  57  58
ENDBRANCH  55  57
ENDBRANCH  52  55
ENDBRANCH  49  52
ENDBRANCH  47  49
BRANCH  47  72
ATOM     72  C24 non d ame     -32.043  15.125  27.213  0.00  0.00    -0.039 C 
ATOM     73  H35 non d ame     -31.779  15.800  28.028  0.00  0.00     0.036 H 
ATOM     74  H36 non d ame     -31.631  15.287  26.217  0.00  0.00     0.036 H 
BRANCH  72  75
ATOM     75  C25 non d ame     -33.638  15.150  27.075  0.00  0.00    -0.001 C 
ATOM     76  C26 non d ame     -34.061  15.520  25.530  0.00  0.00    -0.035 C 
ATOM     77  C27 non d ame     -34.953  16.540  25.554  0.00  0.00     0.085 C 
ATOM     78  H38 non d ame     -33.207  15.941  25.000  0.00  0.00     0.036 H 
ATOM     79  H39 non d ame     -34.626  14.699  25.089  0.00  0.00     0.036 H 
ATOM     80  N5  non d ame     -34.929  17.115  26.950  0.00  0.00    -0.049 N 
ATOM     81  H40 non d ame     -34.565  17.282  24.857  0.00  0.00     0.075 H 
ATOM     82  H41 non d ame     -35.925  16.081  25.376  0.00  0.00     0.075 H 
ATOM     83  C28 non d ame     -34.162  16.027  27.864  0.00  0.00     0.193 C 
ATOM     84  H42 non d ame     -34.365  17.952  26.905  0.00  0.00     0.280 HD
ATOM     85  H43 non d ame     -35.891  17.169  27.253  0.00  0.00     0.280 HD
ATOM     86  H44 non d ame     -34.721  15.379  28.539  0.00  0.00     0.129 H 
ATOM     87  H37 non d ame     -34.105  14.271  27.520  0.00  0.00     0.046 H 
BRANCH  83  88
ATOM     88  O6  non d ame     -33.182  16.672  28.679  0.00  0.00    -0.369 OA
ATOM     89  H45 non d ame     -33.123  17.600  28.436  0.00  0.00     0.212 HD
ENDBRANCH  83  88
ENDBRANCH  72  75
ENDBRANCH  47  72
ENDBRANCH  45  47
ENDBRANCH   1  43
BRANCH   1  90
ATOM     90  C16 non d ame     -33.779   9.822  27.463  0.00  0.00    -0.035 C 
ATOM     91  H21 non d ame     -33.461   8.786  27.577  0.00  0.00     0.037 H 
ATOM     92  H22 non d ame     -33.565  10.547  28.248  0.00  0.00     0.037 H 
BRANCH  90  93
ATOM     93  C17 non d ame     -35.332   9.791  27.302  0.00  0.00    -0.059 C 
ATOM     94  H23 non d ame     -35.559   9.953  26.248  0.00  0.00     0.038 H 
BRANCH  93  95
ATOM     95  C18 non d ame     -35.940   8.411  27.713  0.00  0.00    -0.073 C 
ATOM     96  H24 non d ame     -35.408   7.612  27.198  0.00  0.00     0.028 H 
ATOM     97  H25 non d ame     -35.841   8.278  28.790  0.00  0.00     0.028 H 
ATOM     98  H26 non d ame     -36.994   8.383  27.439  0.00  0.00     0.028 H 
ENDBRANCH  93  95
BRANCH  93  99
ATOM     99  C19 non d ame     -35.986  10.930  28.088  0.00  0.00    -0.073 C 
ATOM    100  H27 non d ame     -37.015  10.661  28.330  0.00  0.00     0.028 H 
ATOM    101  H28 non d ame     -35.430  11.103  29.009  0.00  0.00     0.028 H 
ATOM    102  H29 non d ame     -35.980  11.838  27.485  0.00  0.00     0.028 H 
ENDBRANCH  93  99
ENDBRANCH  90  93
ENDBRANCH   1  90
TORSDOF 26
ENDMDL
MODEL 8
REMARK VINA RESULT:      -6.8      2.561      6.490
REMARK  26 active torsions:
REMARK  status: ('A' for Active; 'I' for Inactive)
REMARK    1  A    between atoms: C2_2  and  C3_3 
REMARK    2  A    between atoms: C4_6  and  C5_7 
REMARK       I    between atoms: C5_7  and  N2_9 
REMARK    3  A    between atoms: N2_9  and  C6_10 
REMARK    4  A    between atoms: C6_10  and  C7_11 
REMARK    5  A    between atoms: C6_10  and  C8_13 
REMARK       I    between atoms: C7_11  and  N3_14 
REMARK    6  A    between atoms: N3_14  and  C9_15 
REMARK    7  A    between atoms: C9_15  and  C10_16 
REMARK    8  A    between atoms: C9_15  and  C11_18 
REMARK       I    between atoms: C10_16  and  N4_21 
REMARK    9  A    between atoms: C11_18  and  C12_19 
REMARK   10  A    between atoms: C11_18  and  C13_20 
REMARK   11  A    between atoms: N4_21  and  C14_22 
REMARK   12  A    between atoms: C14_22  and  C15_23 
REMARK   13  A    between atoms: C14_22  and  C16_25 
REMARK       I    between atoms: C15_23  and  N6_40 
REMARK   14  A    between atoms: C16_25  and  C17_26 
REMARK   15  A    between atoms: C17_26  and  C18_27 
REMARK   16  A    between atoms: C17_26  and  C19_28 
REMARK   17  A    between atoms: C20_29  and  C21_30 
REMARK   18  A    between atoms: C20_29  and  C24_33 
REMARK   19  A    between atoms: C20_29  and  N6_40 
REMARK   20  A    between atoms: C21_30  and  C22_31 
REMARK   21  A    between atoms: C22_31  and  C23_32 
REMARK   22  A    between atoms: C23_32  and  O8_43 
REMARK   23  A    between atoms: C24_33  and  C25_34 
REMARK   24  A    between atoms: C28_38  and  O6_39 
REMARK   25  A    between atoms: C29_42  and  O8_43 
REMARK   26  A    between atoms: C29_42  and  C35_49 
ROOT
ATOM      1  C14 non d ame     -31.092  13.794  24.681  0.00  0.00     0.089 C 
ATOM      2  H20 non d ame     -30.102  13.706  25.129  0.00  0.00     0.087 H 
ENDROOT
BRANCH   1   3
ATOM      3  N4  non d ame     -31.486  12.470  24.224  0.00  0.00    -0.346 N 
ATOM      4  C10 non d ame     -31.285  11.267  25.111  0.00  0.00     0.241 C 
ATOM      5  O4  non d ame     -30.802  11.389  26.188  0.00  0.00    -0.271 OA
ATOM      6  H19 non d ame     -31.893  12.387  23.303  0.00  0.00     0.163 HD
BRANCH   4   7
ATOM      7  C9  non d ame     -31.704   9.904  24.623  0.00  0.00     0.092 C 
ATOM      8  H11 non d ame     -31.049   9.151  25.061  0.00  0.00     0.088 H 
BRANCH   7   9
ATOM      9  N3  non d ame     -33.065   9.617  25.084  0.00  0.00    -0.346 N 
ATOM     10  C7  non d ame     -33.309   8.491  25.952  0.00  0.00     0.240 C 
ATOM     11  O3  non d ame     -32.422   7.805  26.287  0.00  0.00    -0.271 OA
ATOM     12  H10 non d ame     -33.841  10.199  24.802  0.00  0.00     0.163 HD
BRANCH  10  13
ATOM     13  C6  non d ame     -34.761   8.188  26.437  0.00  0.00     0.086 C 
ATOM     14  H6  non d ame     -34.963   7.120  26.522  0.00  0.00     0.086 H 
BRANCH  13  15
ATOM     15  N2  non d ame     -34.942   8.753  27.764  0.00  0.00    -0.343 N 
ATOM     16  C5  non d ame     -34.749   7.904  28.941  0.00  0.00     0.273 C 
ATOM     17  O2  non d ame     -34.451   6.768  28.811  0.00  0.00    -0.266 OA
ATOM     18  H5  non d ame     -35.200   9.724  27.866  0.00  0.00     0.163 HD
BRANCH  16  19
ATOM     19  C4  non d ame     -34.936   8.488  30.350  0.00  0.00     0.154 A 
ATOM     20  C1  non d ame     -35.325   9.823  30.688  0.00  0.00    -0.017 A 
ATOM     21  C2  non d ame     -35.351   9.848  32.101  0.00  0.00     0.077 A 
ATOM     22  H1  non d ame     -35.553  10.648  30.012  0.00  0.00     0.091 H 
ATOM     23  O1  non d ame     -35.016   8.661  32.515  0.00  0.00    -0.218 OA
ATOM     24  N1  non d ame     -34.769   7.850  31.512  0.00  0.00    -0.123 NA
BRANCH  21  25
ATOM     25  C3  non d ame     -35.707  11.043  32.975  0.00  0.00    -0.029 C 
ATOM     26  H2  non d ame     -34.793  11.536  33.306  0.00  0.00     0.036 H 
ATOM     27  H3  non d ame     -36.311  11.745  32.402  0.00  0.00     0.036 H 
ATOM     28  H4  non d ame     -36.271  10.703  33.843  0.00  0.00     0.036 H 
ENDBRANCH  21  25
ENDBRANCH  16  19
ENDBRANCH  13  15
BRANCH  13  29
ATOM     29  C8  non d ame     -35.752   8.796  25.477  0.00  0.00    -0.049 C 
ATOM     30  H7  non d ame     -36.159   8.017  24.833  0.00  0.00     0.030 H 
ATOM     31  H8  non d ame     -36.561   9.263  26.037  0.00  0.00     0.030 H 
ATOM     32  H9  non d ame     -35.251   9.548  24.866  0.00  0.00     0.030 H 
ENDBRANCH  13  29
ENDBRANCH  10  13
ENDBRANCH   7   9
BRANCH   7  33
ATOM     33  C11 non d ame     -31.669   9.877  23.067  0.00  0.00    -0.033 C 
ATOM     34  H12 non d ame     -32.055  10.833  22.713  0.00  0.00     0.042 H 
BRANCH  33  35
ATOM     35  C12 non d ame     -30.210   9.733  22.533  0.00  0.00    -0.071 C 
ATOM     36  H13 non d ame     -30.224   9.695  21.444  0.00  0.00     0.028 H 
ATOM     37  H14 non d ame     -29.618  10.588  22.859  0.00  0.00     0.028 H 
ATOM     38  H15 non d ame     -29.769   8.816  22.923  0.00  0.00     0.028 H 
ENDBRANCH  33  35
BRANCH  33  39
ATOM     39  C13 non d ame     -32.591   8.747  22.507  0.00  0.00    -0.071 C 
ATOM     40  H16 non d ame     -32.372   7.811  23.022  0.00  0.00     0.028 H 
ATOM     41  H17 non d ame     -33.636   9.016  22.670  0.00  0.00     0.028 H 
ATOM     42  H18 non d ame     -32.410   8.626  21.439  0.00  0.00     0.028 H 
ENDBRANCH  33  39
ENDBRANCH   7  33
ENDBRANCH   4   7
ENDBRANCH   1   3
BRANCH   1  43
ATOM     43  C15 non d ame     -32.154  14.303  25.698  0.00  0.00     0.240 C 
ATOM     44  O5  non d ame     -33.291  14.399  25.366  0.00  0.00    -0.271 OA
ATOM     45  N6  non d ame     -31.754  14.662  27.088  0.00  0.00    -0.355 N 
ATOM     46  H46 non d ame     -30.792  14.580  27.383  0.00  0.00     0.162 HD
BRANCH  45  47
ATOM     47  C20 non d ame     -32.776  15.143  28.043  0.00  0.00     0.013 C 
ATOM     48  H30 non d ame     -33.757  14.968  27.602  0.00  0.00     0.072 H 
BRANCH  47  49
ATOM     49  C21 non d ame     -32.576  16.622  28.287  0.00  0.00    -0.038 C 
ATOM     50  H31 non d ame     -32.737  16.769  29.355  0.00  0.00     0.036 H 
ATOM     51  H32 non d ame     -31.610  16.865  27.842  0.00  0.00     0.036 H 
BRANCH  49  52
ATOM     52  C22 non d ame     -33.623  17.496  27.562  0.00  0.00     0.018 C 
ATOM     53  H33 non d ame     -34.399  16.809  27.226  0.00  0.00     0.048 H 
ATOM     54  H34 non d ame     -33.869  18.299  28.257  0.00  0.00     0.048 H 
BRANCH  52  55
ATOM     55  C23 non d ame     -33.081  18.189  26.281  0.00  0.00     0.259 C 
ATOM     56  O7  non d ame     -32.282  17.644  25.592  0.00  0.00    -0.265 OA
BRANCH  55  57
ATOM     57  O8  non d ame     -33.543  19.492  25.947  0.00  0.00    -0.317 OA
BRANCH  57  58
ATOM     58  C29 non d ame     -34.296  20.127  26.983  0.00  0.00     0.052 C 
ATOM     59  H47 non d ame     -34.313  19.419  27.812  0.00  0.00     0.082 H 
ATOM     60  H48 non d ame     -33.846  21.110  27.116  0.00  0.00     0.082 H 
BRANCH  58  61
ATOM     61  C35 non d ame     -35.749  20.319  26.471  0.00  0.00    -0.034 A 
ATOM     62  C30 non d ame     -36.147  19.736  25.272  0.00  0.00    -0.075 A 
ATOM     63  C31 non d ame     -37.452  19.908  24.812  0.00  0.00    -0.082 A 
ATOM     64  H49 non d ame     -35.437  19.145  24.693  0.00  0.00     0.084 H 
ATOM     65  C32 non d ame     -38.359  20.669  25.554  0.00  0.00    -0.083 A 
ATOM     66  H50 non d ame     -37.761  19.449  23.872  0.00  0.00     0.083 H 
ATOM     67  C33 non d ame     -37.956  21.251  26.748  0.00  0.00    -0.082 A 
ATOM     68  H51 non d ame     -39.381  20.807  25.202  0.00  0.00     0.083 H 
ATOM     69  C34 non d ame     -36.654  21.080  27.213  0.00  0.00    -0.075 A 
ATOM     70  H52 non d ame     -38.666  21.846  27.324  0.00  0.00     0.083 H 
ATOM     71  H53 non d ame     -36.345  21.539  28.153  0.00  0.00     0.084 H 
ENDBRANCH  58  61
ENDBRANCH  57  58
ENDBRANCH  55  57
ENDBRANCH  52  55
ENDBRANCH  49  52
ENDBRANCH  47  49
BRANCH  47  72
ATOM     72  C24 non d ame     -32.645  14.387  29.363  0.00  0.00    -0.039 C 
ATOM     73  H35 non d ame     -32.108  15.060  30.032  0.00  0.00     0.036 H 
ATOM     74  H36 non d ame     -33.656  14.063  29.614  0.00  0.00     0.036 H 
BRANCH  72  75
ATOM     75  C25 non d ame     -31.753  13.066  29.204  0.00  0.00    -0.001 C 
ATOM     76  C26 non d ame     -32.697  11.729  29.361  0.00  0.00    -0.035 C 
ATOM     77  C27 non d ame     -32.136  10.904  30.277  0.00  0.00     0.085 C 
ATOM     78  H38 non d ame     -33.652  11.997  29.812  0.00  0.00     0.036 H 
ATOM     79  H39 non d ame     -32.673  11.144  28.442  0.00  0.00     0.036 H 
ATOM     80  N5  non d ame     -31.074  11.699  30.996  0.00  0.00    -0.049 N 
ATOM     81  H40 non d ame     -32.934  10.661  30.978  0.00  0.00     0.075 H 
ATOM     82  H41 non d ame     -31.658  10.112  29.701  0.00  0.00     0.075 H 
ATOM     83  C28 non d ame     -30.824  13.019  30.100  0.00  0.00     0.193 C 
ATOM     84  H42 non d ame     -31.475  11.981  31.879  0.00  0.00     0.280 HD
ATOM     85  H43 non d ame     -30.235  11.136  30.980  0.00  0.00     0.280 HD
ATOM     86  H44 non d ame     -29.937  13.101  29.471  0.00  0.00     0.129 H 
ATOM     87  H37 non d ame     -31.099  13.112  28.333  0.00  0.00     0.046 H 
BRANCH  83  88
ATOM     88  O6  non d ame     -30.815  14.182  30.929  0.00  0.00    -0.369 OA
ATOM     89  H45 non d ame     -30.474  14.928  30.429  0.00  0.00     0.212 HD
ENDBRANCH  83  88
ENDBRANCH  72  75
ENDBRANCH  47  72
ENDBRANCH  45  47
ENDBRANCH   1  43
BRANCH   1  90
ATOM     90  C16 non d ame     -31.035  14.734  23.488  0.00  0.00    -0.035 C 
ATOM     91  H21 non d ame     -32.020  14.674  23.025  0.00  0.00     0.037 H 
ATOM     92  H22 non d ame     -30.678  15.684  23.886  0.00  0.00     0.037 H 
BRANCH  90  93
ATOM     93  C17 non d ame     -30.008  14.299  22.395  0.00  0.00    -0.059 C 
ATOM     94  H23 non d ame     -29.970  13.209  22.392  0.00  0.00     0.038 H 
BRANCH  93  95
ATOM     95  C18 non d ame     -30.434  14.765  20.966  0.00  0.00    -0.073 C 
ATOM     96  H24 non d ame     -31.376  15.309  21.027  0.00  0.00     0.028 H 
ATOM     97  H25 non d ame     -29.665  15.416  20.552  0.00  0.00     0.028 H 
ATOM     98  H26 non d ame     -30.558  13.894  20.322  0.00  0.00     0.028 H 
ENDBRANCH  93  95
BRANCH  93  99
ATOM     99  C19 non d ame     -28.602  14.801  22.735  0.00  0.00    -0.073 C 
ATOM    100  H27 non d ame     -27.917  13.955  22.792  0.00  0.00     0.028 H 
ATOM    101  H28 non d ame     -28.265  15.490  21.961  0.00  0.00     0.028 H 
ATOM    102  H29 non d ame     -28.623  15.317  23.695  0.00  0.00     0.028 H 
ENDBRANCH  93  99
ENDBRANCH  90  93
ENDBRANCH   1  90
TORSDOF 26
ENDMDL
MODEL 9
REMARK VINA RESULT:      -6.8      2.076      5.750
REMARK  26 active torsions:
REMARK  status: ('A' for Active; 'I' for Inactive)
REMARK    1  A    between atoms: C2_2  and  C3_3 
REMARK    2  A    between atoms: C4_6  and  C5_7 
REMARK       I    between atoms: C5_7  and  N2_9 
REMARK    3  A    between atoms: N2_9  and  C6_10 
REMARK    4  A    between atoms: C6_10  and  C7_11 
REMARK    5  A    between atoms: C6_10  and  C8_13 
REMARK       I    between atoms: C7_11  and  N3_14 
REMARK    6  A    between atoms: N3_14  and  C9_15 
REMARK    7  A    between atoms: C9_15  and  C10_16 
REMARK    8  A    between atoms: C9_15  and  C11_18 
REMARK       I    between atoms: C10_16  and  N4_21 
REMARK    9  A    between atoms: C11_18  and  C12_19 
REMARK   10  A    between atoms: C11_18  and  C13_20 
REMARK   11  A    between atoms: N4_21  and  C14_22 
REMARK   12  A    between atoms: C14_22  and  C15_23 
REMARK   13  A    between atoms: C14_22  and  C16_25 
REMARK       I    between atoms: C15_23  and  N6_40 
REMARK   14  A    between atoms: C16_25  and  C17_26 
REMARK   15  A    between atoms: C17_26  and  C18_27 
REMARK   16  A    between atoms: C17_26  and  C19_28 
REMARK   17  A    between atoms: C20_29  and  C21_30 
REMARK   18  A    between atoms: C20_29  and  C24_33 
REMARK   19  A    between atoms: C20_29  and  N6_40 
REMARK   20  A    between atoms: C21_30  and  C22_31 
REMARK   21  A    between atoms: C22_31  and  C23_32 
REMARK   22  A    between atoms: C23_32  and  O8_43 
REMARK   23  A    between atoms: C24_33  and  C25_34 
REMARK   24  A    between atoms: C28_38  and  O6_39 
REMARK   25  A    between atoms: C29_42  and  O8_43 
REMARK   26  A    between atoms: C29_42  and  C35_49 
ROOT
ATOM      1  C14 non d ame     -31.218  14.433  24.252  0.00  0.00     0.089 C 
ATOM      2  H20 non d ame     -30.245  14.529  24.733  0.00  0.00     0.087 H 
ENDROOT
BRANCH   1   3
ATOM      3  N4  non d ame     -31.441  13.019  23.990  0.00  0.00    -0.346 N 
ATOM      4  C10 non d ame     -31.251  12.002  25.088  0.00  0.00     0.241 C 
ATOM      5  O4  non d ame     -30.915  12.346  26.173  0.00  0.00    -0.271 OA
ATOM      6  H19 non d ame     -31.724  12.746  23.060  0.00  0.00     0.163 HD
BRANCH   4   7
ATOM      7  C9  non d ame     -31.491  10.543  24.801  0.00  0.00     0.092 C 
ATOM      8  H11 non d ame     -30.834   9.941  25.429  0.00  0.00     0.088 H 
BRANCH   7   9
ATOM      9  N3  non d ame     -32.870  10.195  25.157  0.00  0.00    -0.346 N 
ATOM     10  C7  non d ame     -33.126   9.329  26.282  0.00  0.00     0.240 C 
ATOM     11  O3  non d ame     -32.235   8.903  26.910  0.00  0.00    -0.271 OA
ATOM     12  H10 non d ame     -33.648  10.554  24.624  0.00  0.00     0.163 HD
BRANCH  10  13
ATOM     13  C6  non d ame     -34.596   8.960  26.655  0.00  0.00     0.086 C 
ATOM     14  H6  non d ame     -34.720   8.741  27.715  0.00  0.00     0.086 H 
BRANCH  13  15
ATOM     15  N2  non d ame     -35.456  10.094  26.361  0.00  0.00    -0.343 N 
ATOM     16  C5  non d ame     -35.648  11.135  27.374  0.00  0.00     0.273 C 
ATOM     17  O2  non d ame     -35.108  11.049  28.422  0.00  0.00    -0.266 OA
ATOM     18  H5  non d ame     -35.915  10.159  25.464  0.00  0.00     0.163 HD
BRANCH  16  19
ATOM     19  C4  non d ame     -36.553  12.341  27.076  0.00  0.00     0.154 A 
ATOM     20  C1  non d ame     -36.159  13.604  26.532  0.00  0.00    -0.017 A 
ATOM     21  C2  non d ame     -37.354  14.355  26.455  0.00  0.00     0.077 A 
ATOM     22  H1  non d ame     -35.161  13.926  26.237  0.00  0.00     0.091 H 
ATOM     23  O1  non d ame     -38.314  13.602  26.905  0.00  0.00    -0.218 OA
ATOM     24  N1  non d ame     -37.872  12.422  27.274  0.00  0.00    -0.123 NA
BRANCH  21  25
ATOM     25  C3  non d ame     -37.490  15.782  25.941  0.00  0.00    -0.029 C 
ATOM     26  H2  non d ame     -36.576  16.335  26.157  0.00  0.00     0.036 H 
ATOM     27  H3  non d ame     -37.659  15.765  24.865  0.00  0.00     0.036 H 
ATOM     28  H4  non d ame     -38.333  16.267  26.433  0.00  0.00     0.036 H 
ENDBRANCH  21  25
ENDBRANCH  16  19
ENDBRANCH  13  15
BRANCH  13  29
ATOM     29  C8  non d ame     -35.034   7.759  25.855  0.00  0.00    -0.049 C 
ATOM     30  H7  non d ame     -35.446   8.089  24.901  0.00  0.00     0.030 H 
ATOM     31  H8  non d ame     -34.177   7.111  25.675  0.00  0.00     0.030 H 
ATOM     32  H9  non d ame     -35.795   7.211  26.410  0.00  0.00     0.030 H 
ENDBRANCH  13  29
ENDBRANCH  10  13
ENDBRANCH   7   9
BRANCH   7  33
ATOM     33  C11 non d ame     -31.265  10.268  23.285  0.00  0.00    -0.033 C 
ATOM     34  H12 non d ame     -31.508  11.184  22.746  0.00  0.00     0.042 H 
BRANCH  33  35
ATOM     35  C12 non d ame     -29.771   9.929  22.985  0.00  0.00    -0.071 C 
ATOM     36  H13 non d ame     -29.525   8.960  23.418  0.00  0.00     0.028 H 
ATOM     37  H14 non d ame     -29.616   9.897  21.908  0.00  0.00     0.028 H 
ATOM     38  H15 non d ame     -29.130  10.695  23.423  0.00  0.00     0.028 H 
ENDBRANCH  33  35
BRANCH  33  39
ATOM     39  C13 non d ame     -32.216   9.139  22.774  0.00  0.00    -0.071 C 
ATOM     40  H16 non d ame     -33.252   9.449  22.906  0.00  0.00     0.028 H 
ATOM     41  H17 non d ame     -32.023   8.953  21.716  0.00  0.00     0.028 H 
ATOM     42  H18 non d ame     -32.034   8.226  23.341  0.00  0.00     0.028 H 
ENDBRANCH  33  39
ENDBRANCH   7  33
ENDBRANCH   4   7
ENDBRANCH   1   3
BRANCH   1  43
ATOM     43  C15 non d ame     -32.373  14.958  25.153  0.00  0.00     0.240 C 
ATOM     44  O5  non d ame     -33.487  14.967  24.740  0.00  0.00    -0.271 OA
ATOM     45  N6  non d ame     -32.090  15.441  26.534  0.00  0.00    -0.355 N 
ATOM     46  H46 non d ame     -31.148  15.434  26.898  0.00  0.00     0.162 HD
BRANCH  45  47
ATOM     47  C20 non d ame     -33.198  15.936  27.379  0.00  0.00     0.013 C 
ATOM     48  H30 non d ame     -34.136  15.632  26.914  0.00  0.00     0.072 H 
BRANCH  47  49
ATOM     49  C21 non d ame     -33.128  17.444  27.463  0.00  0.00    -0.038 C 
ATOM     50  H31 non d ame     -33.647  17.712  28.384  0.00  0.00     0.036 H 
ATOM     51  H32 non d ame     -32.075  17.696  27.337  0.00  0.00     0.036 H 
BRANCH  49  52
ATOM     52  C22 non d ame     -33.886  18.144  26.315  0.00  0.00     0.018 C 
ATOM     53  H33 non d ame     -33.272  18.002  25.426  0.00  0.00     0.048 H 
ATOM     54  H34 non d ame     -34.901  17.747  26.345  0.00  0.00     0.048 H 
BRANCH  52  55
ATOM     55  C23 non d ame     -34.022  19.681  26.500  0.00  0.00     0.259 C 
ATOM     56  O7  non d ame     -33.056  20.360  26.636  0.00  0.00    -0.265 OA
BRANCH  55  57
ATOM     57  O8  non d ame     -35.317  20.269  26.517  0.00  0.00    -0.317 OA
BRANCH  57  58
ATOM     58  C29 non d ame     -36.384  19.333  26.340  0.00  0.00     0.052 C 
ATOM     59  H47 non d ame     -35.905  18.364  26.196  0.00  0.00     0.082 H 
ATOM     60  H48 non d ame     -37.056  19.488  27.183  0.00  0.00     0.082 H 
BRANCH  58  61
ATOM     61  C35 non d ame     -37.137  19.706  25.035  0.00  0.00    -0.034 A 
ATOM     62  C30 non d ame     -37.847  20.900  24.958  0.00  0.00    -0.075 A 
ATOM     63  C31 non d ame     -38.524  21.236  23.787  0.00  0.00    -0.082 A 
ATOM     64  H49 non d ame     -37.873  21.573  25.816  0.00  0.00     0.084 H 
ATOM     65  C32 non d ame     -38.492  20.371  22.690  0.00  0.00    -0.083 A 
ATOM     66  H50 non d ame     -39.078  22.174  23.729  0.00  0.00     0.083 H 
ATOM     67  C33 non d ame     -37.785  19.179  22.773  0.00  0.00    -0.082 A 
ATOM     68  H51 non d ame     -39.018  20.626  21.770  0.00  0.00     0.083 H 
ATOM     69  C34 non d ame     -37.105  18.840  23.941  0.00  0.00    -0.075 A 
ATOM     70  H52 non d ame     -37.764  18.505  21.916  0.00  0.00     0.083 H 
ATOM     71  H53 non d ame     -36.552  17.903  23.997  0.00  0.00     0.084 H 
ENDBRANCH  58  61
ENDBRANCH  57  58
ENDBRANCH  55  57
ENDBRANCH  52  55
ENDBRANCH  49  52
ENDBRANCH  47  49
BRANCH  47  72
ATOM     72  C24 non d ame     -33.084  15.341  28.781  0.00  0.00    -0.039 C 
ATOM     73  H35 non d ame     -32.978  16.195  29.451  0.00  0.00     0.036 H 
ATOM     74  H36 non d ame     -33.939  14.672  28.883  0.00  0.00     0.036 H 
BRANCH  72  75
ATOM     75  C25 non d ame     -31.764  14.448  28.941  0.00  0.00    -0.001 C 
ATOM     76  C26 non d ame     -32.174  12.913  29.367  0.00  0.00    -0.035 C 
ATOM     77  C27 non d ame     -31.453  12.556  30.456  0.00  0.00     0.085 C 
ATOM     78  H38 non d ame     -33.203  12.887  29.723  0.00  0.00     0.036 H 
ATOM     79  H39 non d ame     -31.844  12.211  28.601  0.00  0.00     0.036 H 
ATOM     80  N5  non d ame     -30.831  13.816  31.007  0.00  0.00    -0.049 N 
ATOM     81  H40 non d ame     -32.179  12.174  31.174  0.00  0.00     0.075 H 
ATOM     82  H41 non d ame     -30.663  11.905  30.082  0.00  0.00     0.075 H 
ATOM     83  C28 non d ame     -30.981  14.929  29.847  0.00  0.00     0.193 C 
ATOM     84  H42 non d ame     -31.398  14.094  31.795  0.00  0.00     0.280 HD
ATOM     85  H43 non d ame     -29.849  13.617  31.137  0.00  0.00     0.280 HD
ATOM     86  H44 non d ame     -30.123  15.212  29.238  0.00  0.00     0.129 H 
ATOM     87  H37 non d ame     -31.083  14.563  28.097  0.00  0.00     0.046 H 
BRANCH  83  88
ATOM     88  O6  non d ame     -31.479  16.150  30.397  0.00  0.00    -0.369 OA
ATOM     89  H45 non d ame     -31.758  16.731  29.686  0.00  0.00     0.212 HD
ENDBRANCH  83  88
ENDBRANCH  72  75
ENDBRANCH  47  72
ENDBRANCH  45  47
ENDBRANCH   1  43
BRANCH   1  90
ATOM     90  C16 non d ame     -31.217  15.187  22.932  0.00  0.00    -0.035 C 
ATOM     91  H21 non d ame     -32.196  14.999  22.491  0.00  0.00     0.037 H 
ATOM     92  H22 non d ame     -30.918  16.205  23.181  0.00  0.00     0.037 H 
BRANCH  90  93
ATOM     93  C17 non d ame     -30.163  14.657  21.908  0.00  0.00    -0.059 C 
ATOM     94  H23 non d ame     -30.243  13.570  21.885  0.00  0.00     0.038 H 
BRANCH  93  95
ATOM     95  C18 non d ame     -30.430  15.184  20.462  0.00  0.00    -0.073 C 
ATOM     96  H24 non d ame     -31.201  15.953  20.491  0.00  0.00     0.028 H 
ATOM     97  H25 non d ame     -29.512  15.607  20.054  0.00  0.00     0.028 H 
ATOM     98  H26 non d ame     -30.761  14.360  19.830  0.00  0.00     0.028 H 
ENDBRANCH  93  95
BRANCH  93  99
ATOM     99  C19 non d ame     -28.742  14.999  22.360  0.00  0.00    -0.073 C 
ATOM    100  H27 non d ame     -28.287  15.683  21.642  0.00  0.00     0.028 H 
ATOM    101  H28 non d ame     -28.776  15.473  23.341  0.00  0.00     0.028 H 
ATOM    102  H29 non d ame     -28.149  14.087  22.418  0.00  0.00     0.028 H 
ENDBRANCH  93  99
ENDBRANCH  90  93
ENDBRANCH   1  90
TORSDOF 26
ENDMDL
MODEL 10
REMARK VINA RESULT:      -6.8      3.639      8.195
REMARK  26 active torsions:
REMARK  status: ('A' for Active; 'I' for Inactive)
REMARK    1  A    between atoms: C2_2  and  C3_3 
REMARK    2  A    between atoms: C4_6  and  C5_7 
REMARK       I    between atoms: C5_7  and  N2_9 
REMARK    3  A    between atoms: N2_9  and  C6_10 
REMARK    4  A    between atoms: C6_10  and  C7_11 
REMARK    5  A    between atoms: C6_10  and  C8_13 
REMARK       I    between atoms: C7_11  and  N3_14 
REMARK    6  A    between atoms: N3_14  and  C9_15 
REMARK    7  A    between atoms: C9_15  and  C10_16 
REMARK    8  A    between atoms: C9_15  and  C11_18 
REMARK       I    between atoms: C10_16  and  N4_21 
REMARK    9  A    between atoms: C11_18  and  C12_19 
REMARK   10  A    between atoms: C11_18  and  C13_20 
REMARK   11  A    between atoms: N4_21  and  C14_22 
REMARK   12  A    between atoms: C14_22  and  C15_23 
REMARK   13  A    between atoms: C14_22  and  C16_25 
REMARK       I    between atoms: C15_23  and  N6_40 
REMARK   14  A    between atoms: C16_25  and  C17_26 
REMARK   15  A    between atoms: C17_26  and  C18_27 
REMARK   16  A    between atoms: C17_26  and  C19_28 
REMARK   17  A    between atoms: C20_29  and  C21_30 
REMARK   18  A    between atoms: C20_29  and  C24_33 
REMARK   19  A    between atoms: C20_29  and  N6_40 
REMARK   20  A    between atoms: C21_30  and  C22_31 
REMARK   21  A    between atoms: C22_31  and  C23_32 
REMARK   22  A    between atoms: C23_32  and  O8_43 
REMARK   23  A    between atoms: C24_33  and  C25_34 
REMARK   24  A    between atoms: C28_38  and  O6_39 
REMARK   25  A    between atoms: C29_42  and  O8_43 
REMARK   26  A    between atoms: C29_42  and  C35_49 
ROOT
ATOM      1  C14 non d ame     -32.877  12.975  28.014  0.00  0.00     0.089 C 
ATOM      2  H20 non d ame     -33.958  13.060  27.906  0.00  0.00     0.087 H 
ENDROOT
BRANCH   1   3
ATOM      3  N4  non d ame     -32.485  11.675  27.490  0.00  0.00    -0.346 N 
ATOM      4  C10 non d ame     -33.051  11.179  26.183  0.00  0.00     0.241 C 
ATOM      5  O4  non d ame     -33.822  11.843  25.572  0.00  0.00    -0.271 OA
ATOM      6  H19 non d ame     -31.829  11.124  28.026  0.00  0.00     0.163 HD
BRANCH   4   7
ATOM      7  C9  non d ame     -32.630   9.834  25.652  0.00  0.00     0.092 C 
ATOM      8  H11 non d ame     -31.685   9.547  26.112  0.00  0.00     0.088 H 
BRANCH   7   9
ATOM      9  N3  non d ame     -33.623   8.825  26.035  0.00  0.00    -0.346 N 
ATOM     10  C7  non d ame     -33.278   7.803  26.993  0.00  0.00     0.240 C 
ATOM     11  O3  non d ame     -32.207   7.777  27.463  0.00  0.00    -0.271 OA
ATOM     12  H10 non d ame     -34.550   8.834  25.636  0.00  0.00     0.163 HD
BRANCH  10  13
ATOM     13  C6  non d ame     -34.337   6.730  27.394  0.00  0.00     0.086 C 
ATOM     14  H6  non d ame     -34.353   5.878  26.714  0.00  0.00     0.086 H 
BRANCH  13  15
ATOM     15  N2  non d ame     -34.004   6.207  28.709  0.00  0.00    -0.343 N 
ATOM     16  C5  non d ame     -33.563   4.817  28.841  0.00  0.00     0.273 C 
ATOM     17  O2  non d ame     -33.483   4.127  27.885  0.00  0.00    -0.266 OA
ATOM     18  H5  non d ame     -34.078   6.803  29.521  0.00  0.00     0.163 HD
BRANCH  16  19
ATOM     19  C4  non d ame     -33.206   4.251  30.225  0.00  0.00     0.154 A 
ATOM     20  C1  non d ame     -32.194   3.286  30.529  0.00  0.00    -0.017 A 
ATOM     21  C2  non d ame     -32.271   3.109  31.929  0.00  0.00     0.077 A 
ATOM     22  H1  non d ame     -31.510   2.790  29.841  0.00  0.00     0.091 H 
ATOM     23  O1  non d ame     -33.217   3.886  32.367  0.00  0.00    -0.218 OA
ATOM     24  N1  non d ame     -33.778   4.563  31.391  0.00  0.00    -0.123 NA
BRANCH  21  25
ATOM     25  C3  non d ame     -31.404   2.180  32.768  0.00  0.00    -0.029 C 
ATOM     26  H2  non d ame     -31.305   1.219  32.263  0.00  0.00     0.036 H 
ATOM     27  H3  non d ame     -30.418   2.624  32.900  0.00  0.00     0.036 H 
ATOM     28  H4  non d ame     -31.868   2.032  33.743  0.00  0.00     0.036 H 
ENDBRANCH  21  25
ENDBRANCH  16  19
ENDBRANCH  13  15
BRANCH  13  29
ATOM     29  C8  non d ame     -35.708   7.358  27.420  0.00  0.00    -0.049 C 
ATOM     30  H7  non d ame     -35.609   8.443  27.451  0.00  0.00     0.030 H 
ATOM     31  H8  non d ame     -36.257   7.068  26.525  0.00  0.00     0.030 H 
ATOM     32  H9  non d ame     -36.247   7.017  28.304  0.00  0.00     0.030 H 
ENDBRANCH  13  29
ENDBRANCH  10  13
ENDBRANCH   7   9
BRANCH   7  33
ATOM     33  C11 non d ame     -32.531   9.897  24.100  0.00  0.00    -0.033 C 
ATOM     34  H12 non d ame     -32.897  10.875  23.786  0.00  0.00     0.042 H 
BRANCH  33  35
ATOM     35  C12 non d ame     -31.052   9.773  23.619  0.00  0.00    -0.071 C 
ATOM     36  H13 non d ame     -30.990  10.030  22.561  0.00  0.00     0.028 H 
ATOM     37  H14 non d ame     -30.425  10.453  24.195  0.00  0.00     0.028 H 
ATOM     38  H15 non d ame     -30.707   8.749  23.764  0.00  0.00     0.028 H 
ENDBRANCH  33  35
BRANCH  33  39
ATOM     39  C13 non d ame     -33.435   8.808  23.437  0.00  0.00    -0.071 C 
ATOM     40  H16 non d ame     -34.247   9.291  22.893  0.00  0.00     0.028 H 
ATOM     41  H17 non d ame     -32.838   8.212  22.745  0.00  0.00     0.028 H 
ATOM     42  H18 non d ame     -33.849   8.160  24.209  0.00  0.00     0.028 H 
ENDBRANCH  33  39
ENDBRANCH   7  33
ENDBRANCH   4   7
ENDBRANCH   1   3
BRANCH   1  43
ATOM     43  C15 non d ame     -32.118  14.078  27.222  0.00  0.00     0.240 C 
ATOM     44  O5  non d ame     -30.964  14.267  27.430  0.00  0.00    -0.271 OA
ATOM     45  N6  non d ame     -32.829  14.892  26.195  0.00  0.00    -0.355 N 
ATOM     46  H46 non d ame     -33.809  14.737  26.006  0.00  0.00     0.162 HD
BRANCH  45  47
ATOM     47  C20 non d ame     -32.094  15.936  25.449  0.00  0.00     0.013 C 
ATOM     48  H30 non d ame     -31.092  16.009  25.873  0.00  0.00     0.072 H 
BRANCH  47  49
ATOM     49  C21 non d ame     -32.814  17.257  25.596  0.00  0.00    -0.038 C 
ATOM     50  H31 non d ame     -32.358  17.924  24.865  0.00  0.00     0.036 H 
ATOM     51  H32 non d ame     -33.877  17.021  25.532  0.00  0.00     0.036 H 
BRANCH  49  52
ATOM     52  C22 non d ame     -32.595  17.909  26.979  0.00  0.00     0.018 C 
ATOM     53  H33 non d ame     -31.764  17.368  27.431  0.00  0.00     0.048 H 
ATOM     54  H34 non d ame     -32.511  18.979  26.791  0.00  0.00     0.048 H 
BRANCH  52  55
ATOM     55  C23 non d ame     -33.796  17.737  27.950  0.00  0.00     0.259 C 
ATOM     56  O7  non d ame     -34.092  16.662  28.359  0.00  0.00    -0.265 OA
BRANCH  55  57
ATOM     57  O8  non d ame     -34.548  18.881  28.336  0.00  0.00    -0.317 OA
BRANCH  57  58
ATOM     58  C29 non d ame     -34.325  20.030  27.514  0.00  0.00     0.052 C 
ATOM     59  H47 non d ame     -34.262  20.875  28.199  0.00  0.00     0.082 H 
ATOM     60  H48 non d ame     -33.475  19.778  26.880  0.00  0.00     0.082 H 
BRANCH  58  61
ATOM     61  C35 non d ame     -35.572  20.222  26.610  0.00  0.00    -0.034 A 
ATOM     62  C30 non d ame     -36.651  20.975  27.062  0.00  0.00    -0.075 A 
ATOM     63  C31 non d ame     -37.771  21.147  26.251  0.00  0.00    -0.082 A 
ATOM     64  H49 non d ame     -36.619  21.430  28.053  0.00  0.00     0.084 H 
ATOM     65  C32 non d ame     -37.811  20.561  24.983  0.00  0.00    -0.083 A 
ATOM     66  H50 non d ame     -38.614  21.739  26.607  0.00  0.00     0.083 H 
ATOM     67  C33 non d ame     -36.733  19.807  24.537  0.00  0.00    -0.082 A 
ATOM     68  H51 non d ame     -38.683  20.691  24.342  0.00  0.00     0.083 H 
ATOM     69  C34 non d ame     -35.611  19.634  25.344  0.00  0.00    -0.075 A 
ATOM     70  H52 non d ame     -36.769  19.349  23.549  0.00  0.00     0.083 H 
ATOM     71  H53 non d ame     -34.768  19.042  24.987  0.00  0.00     0.084 H 
ENDBRANCH  58  61
ENDBRANCH  57  58
ENDBRANCH  55  57
ENDBRANCH  52  55
ENDBRANCH  49  52
ENDBRANCH  47  49
BRANCH  47  72
ATOM     72  C24 non d ame     -32.018  15.558  23.971  0.00  0.00    -0.039 C 
ATOM     73  H35 non d ame     -32.594  14.637  23.877  0.00  0.00     0.036 H 
ATOM     74  H36 non d ame     -32.326  16.451  23.428  0.00  0.00     0.036 H 
BRANCH  72  75
ATOM     75  C25 non d ame     -30.517  15.225  23.521  0.00  0.00    -0.001 C 
ATOM     76  C26 non d ame     -30.224  15.863  22.034  0.00  0.00    -0.035 C 
ATOM     77  C27 non d ame     -29.716  14.893  21.236  0.00  0.00     0.085 C 
ATOM     78  H38 non d ame     -31.163  16.126  21.549  0.00  0.00     0.036 H 
ATOM     79  H39 non d ame     -29.417  16.593  22.093  0.00  0.00     0.036 H 
ATOM     80  N5  non d ame     -29.941  13.578  21.941  0.00  0.00    -0.049 N 
ATOM     81  H40 non d ame     -30.319  14.918  20.328  0.00  0.00     0.075 H 
ATOM     82  H41 non d ame     -28.645  15.090  21.185  0.00  0.00     0.075 H 
ATOM     83  C28 non d ame     -30.318  13.950  23.466  0.00  0.00     0.193 C 
ATOM     84  H42 non d ame     -30.747  13.153  21.505  0.00  0.00     0.280 HD
ATOM     85  H43 non d ame     -29.053  13.096  21.937  0.00  0.00     0.280 HD
ATOM     86  H44 non d ame     -29.584  13.829  24.263  0.00  0.00     0.129 H 
ATOM     87  H37 non d ame     -29.793  15.442  24.306  0.00  0.00     0.046 H 
BRANCH  83  88
ATOM     88  O6  non d ame     -31.464  13.207  23.886  0.00  0.00    -0.369 OA
ATOM     89  H45 non d ame     -31.469  13.140  24.844  0.00  0.00     0.212 HD
ENDBRANCH  83  88
ENDBRANCH  72  75
ENDBRANCH  47  72
ENDBRANCH  45  47
ENDBRANCH   1  43
BRANCH   1  90
ATOM     90  C16 non d ame     -32.499  13.051  29.485  0.00  0.00    -0.035 C 
ATOM     91  H21 non d ame     -31.636  13.715  29.527  0.00  0.00     0.037 H 
ATOM     92  H22 non d ame     -33.418  13.318  30.006  0.00  0.00     0.037 H 
BRANCH  90  93
ATOM     93  C17 non d ame     -32.033  11.685  30.083  0.00  0.00    -0.059 C 
ATOM     94  H23 non d ame     -31.914  10.985  29.256  0.00  0.00     0.038 H 
BRANCH  93  95
ATOM     95  C18 non d ame     -30.655  11.800  30.811  0.00  0.00    -0.073 C 
ATOM     96  H24 non d ame     -30.690  11.241  31.745  0.00  0.00     0.028 H 
ATOM     97  H25 non d ame     -29.872  11.393  30.173  0.00  0.00     0.028 H 
ATOM     98  H26 non d ame     -30.443  12.848  31.023  0.00  0.00     0.028 H 
ENDBRANCH  93  95
BRANCH  93  99
ATOM     99  C19 non d ame     -33.097  11.107  31.019  0.00  0.00    -0.073 C 
ATOM    100  H27 non d ame     -33.543  10.223  30.562  0.00  0.00     0.028 H 
ATOM    101  H28 non d ame     -32.636  10.831  31.968  0.00  0.00     0.028 H 
ATOM    102  H29 non d ame     -33.870  11.854  31.196  0.00  0.00     0.028 H 
ENDBRANCH  93  99
ENDBRANCH  90  93
ENDBRANCH   1  90
TORSDOF 26
ENDMDL
MODEL 11
REMARK VINA RESULT:      -6.8      2.167      5.698
REMARK  26 active torsions:
REMARK  status: ('A' for Active; 'I' for Inactive)
REMARK    1  A    between atoms: C2_2  and  C3_3 
REMARK    2  A    between atoms: C4_6  and  C5_7 
REMARK       I    between atoms: C5_7  and  N2_9 
REMARK    3  A    between atoms: N2_9  and  C6_10 
REMARK    4  A    between atoms: C6_10  and  C7_11 
REMARK    5  A    between atoms: C6_10  and  C8_13 
REMARK       I    between atoms: C7_11  and  N3_14 
REMARK    6  A    between atoms: N3_14  and  C9_15 
REMARK    7  A    between atoms: C9_15  and  C10_16 
REMARK    8  A    between atoms: C9_15  and  C11_18 
REMARK       I    between atoms: C10_16  and  N4_21 
REMARK    9  A    between atoms: C11_18  and  C12_19 
REMARK   10  A    between atoms: C11_18  and  C13_20 
REMARK   11  A    between atoms: N4_21  and  C14_22 
REMARK   12  A    between atoms: C14_22  and  C15_23 
REMARK   13  A    between atoms: C14_22  and  C16_25 
REMARK       I    between atoms: C15_23  and  N6_40 
REMARK   14  A    between atoms: C16_25  and  C17_26 
REMARK   15  A    between atoms: C17_26  and  C18_27 
REMARK   16  A    between atoms: C17_26  and  C19_28 
REMARK   17  A    between atoms: C20_29  and  C21_30 
REMARK   18  A    between atoms: C20_29  and  C24_33 
REMARK   19  A    between atoms: C20_29  and  N6_40 
REMARK   20  A    between atoms: C21_30  and  C22_31 
REMARK   21  A    between atoms: C22_31  and  C23_32 
REMARK   22  A    between atoms: C23_32  and  O8_43 
REMARK   23  A    between atoms: C24_33  and  C25_34 
REMARK   24  A    between atoms: C28_38  and  O6_39 
REMARK   25  A    between atoms: C29_42  and  O8_43 
REMARK   26  A    between atoms: C29_42  and  C35_49 
ROOT
ATOM      1  C14 non d ame     -31.153  14.483  23.899  0.00  0.00     0.089 C 
ATOM      2  H20 non d ame     -30.104  14.687  24.116  0.00  0.00     0.087 H 
ENDROOT
BRANCH   1   3
ATOM      3  N4  non d ame     -31.394  13.076  24.183  0.00  0.00    -0.346 N 
ATOM      4  C10 non d ame     -30.596  12.009  23.476  0.00  0.00     0.241 C 
ATOM      5  O4  non d ame     -29.767  12.308  22.681  0.00  0.00    -0.271 OA
ATOM      6  H19 non d ame     -32.105  12.843  24.862  0.00  0.00     0.163 HD
BRANCH   4   7
ATOM      7  C9  non d ame     -30.853  10.558  23.787  0.00  0.00     0.092 C 
ATOM      8  H11 non d ame     -30.171  10.233  24.572  0.00  0.00     0.088 H 
BRANCH   7   9
ATOM      9  N3  non d ame     -32.216  10.404  24.305  0.00  0.00    -0.346 N 
ATOM     10  C7  non d ame     -32.457  10.465  25.726  0.00  0.00     0.240 C 
ATOM     11  O3  non d ame     -31.567  10.637  26.466  0.00  0.00    -0.271 OA
ATOM     12  H10 non d ame     -32.994  10.253  23.679  0.00  0.00     0.163 HD
BRANCH  10  13
ATOM     13  C6  non d ame     -33.909  10.297  26.272  0.00  0.00     0.086 C 
ATOM     14  H6  non d ame     -34.524   9.655  25.643  0.00  0.00     0.086 H 
BRANCH  13  15
ATOM     15  N2  non d ame     -33.850   9.665  27.580  0.00  0.00    -0.343 N 
ATOM     16  C5  non d ame     -34.904   8.729  27.976  0.00  0.00     0.273 C 
ATOM     17  O2  non d ame     -35.797   8.493  27.238  0.00  0.00    -0.266 OA
ATOM     18  H5  non d ame     -33.086   9.874  28.206  0.00  0.00     0.163 HD
BRANCH  16  19
ATOM     19  C4  non d ame     -34.854   8.052  29.355  0.00  0.00     0.154 A 
ATOM     20  C1  non d ame     -35.004   6.658  29.640  0.00  0.00    -0.017 A 
ATOM     21  C2  non d ame     -34.877   6.558  31.044  0.00  0.00     0.077 A 
ATOM     22  H1  non d ame     -35.178   5.844  28.936  0.00  0.00     0.091 H 
ATOM     23  O1  non d ame     -34.677   7.759  31.501  0.00  0.00    -0.218 OA
ATOM     24  N1  non d ame     -34.660   8.648  30.535  0.00  0.00    -0.123 NA
BRANCH  21  25
ATOM     25  C3  non d ame     -34.959   5.280  31.867  0.00  0.00    -0.029 C 
ATOM     26  H2  non d ame     -34.091   4.655  31.657  0.00  0.00     0.036 H 
ATOM     27  H3  non d ame     -34.977   5.531  32.927  0.00  0.00     0.036 H 
ATOM     28  H4  non d ame     -35.868   4.737  31.608  0.00  0.00     0.036 H 
ENDBRANCH  21  25
ENDBRANCH  16  19
ENDBRANCH  13  15
BRANCH  13  29
ATOM     29  C8  non d ame     -34.568  11.649  26.381  0.00  0.00    -0.049 C 
ATOM     30  H7  non d ame     -34.443  12.033  27.393  0.00  0.00     0.030 H 
ATOM     31  H8  non d ame     -34.107  12.335  25.672  0.00  0.00     0.030 H 
ATOM     32  H9  non d ame     -35.631  11.554  26.157  0.00  0.00     0.030 H 
ENDBRANCH  13  29
ENDBRANCH  10  13
ENDBRANCH   7   9
BRANCH   7  33
ATOM     33  C11 non d ame     -30.697   9.715  22.488  0.00  0.00    -0.033 C 
ATOM     34  H12 non d ame     -30.694  10.406  21.645  0.00  0.00     0.042 H 
BRANCH  33  35
ATOM     35  C12 non d ame     -29.339   8.947  22.469  0.00  0.00    -0.071 C 
ATOM     36  H13 non d ame     -28.524   9.653  22.305  0.00  0.00     0.028 H 
ATOM     37  H14 non d ame     -29.194   8.440  23.423  0.00  0.00     0.028 H 
ATOM     38  H15 non d ame     -29.348   8.211  21.664  0.00  0.00     0.028 H 
ENDBRANCH  33  35
BRANCH  33  39
ATOM     39  C13 non d ame     -31.903   8.737  22.307  0.00  0.00    -0.071 C 
ATOM     40  H16 non d ame     -32.584   8.841  23.151  0.00  0.00     0.028 H 
ATOM     41  H17 non d ame     -32.430   8.977  21.383  0.00  0.00     0.028 H 
ATOM     42  H18 non d ame     -31.536   7.712  22.259  0.00  0.00     0.028 H 
ENDBRANCH  33  39
ENDBRANCH   7  33
ENDBRANCH   4   7
ENDBRANCH   1   3
BRANCH   1  43
ATOM     43  C15 non d ame     -32.112  15.336  24.779  0.00  0.00     0.240 C 
ATOM     44  O5  non d ame     -33.125  15.752  24.317  0.00  0.00    -0.271 OA
ATOM     45  N6  non d ame     -31.770  15.628  26.200  0.00  0.00    -0.355 N 
ATOM     46  H46 non d ame     -30.914  15.276  26.605  0.00  0.00     0.162 HD
BRANCH  45  47
ATOM     47  C20 non d ame     -32.692  16.440  27.024  0.00  0.00     0.013 C 
ATOM     48  H30 non d ame     -33.686  16.370  26.582  0.00  0.00     0.072 H 
BRANCH  47  49
ATOM     49  C21 non d ame     -32.226  17.878  27.025  0.00  0.00    -0.038 C 
ATOM     50  H31 non d ame     -32.535  18.287  27.987  0.00  0.00     0.036 H 
ATOM     51  H32 non d ame     -31.169  17.845  26.760  0.00  0.00     0.036 H 
BRANCH  49  52
ATOM     52  C22 non d ame     -32.921  18.733  25.943  0.00  0.00     0.018 C 
ATOM     53  H33 non d ame     -32.118  19.237  25.405  0.00  0.00     0.048 H 
ATOM     54  H34 non d ame     -33.589  18.054  25.414  0.00  0.00     0.048 H 
BRANCH  52  55
ATOM     55  C23 non d ame     -33.823  19.860  26.519  0.00  0.00     0.259 C 
ATOM     56  O7  non d ame     -33.343  20.782  27.095  0.00  0.00    -0.265 OA
BRANCH  55  57
ATOM     57  O8  non d ame     -35.234  19.772  26.361  0.00  0.00    -0.317 OA
BRANCH  57  58
ATOM     58  C29 non d ame     -35.872  18.907  27.305  0.00  0.00     0.052 C 
ATOM     59  H47 non d ame     -35.134  18.728  28.087  0.00  0.00     0.082 H 
ATOM     60  H48 non d ame     -36.820  19.386  27.550  0.00  0.00     0.082 H 
BRANCH  58  61
ATOM     61  C35 non d ame     -36.172  17.561  26.595  0.00  0.00    -0.034 A 
ATOM     62  C30 non d ame     -36.393  17.531  25.221  0.00  0.00    -0.075 A 
ATOM     63  C31 non d ame     -36.663  16.321  24.583  0.00  0.00    -0.082 A 
ATOM     64  H49 non d ame     -36.355  18.456  24.645  0.00  0.00     0.084 H 
ATOM     65  C32 non d ame     -36.714  15.138  25.324  0.00  0.00    -0.083 A 
ATOM     66  H50 non d ame     -36.833  16.301  23.507  0.00  0.00     0.083 H 
ATOM     67  C33 non d ame     -36.496  15.172  26.695  0.00  0.00    -0.082 A 
ATOM     68  H51 non d ame     -36.923  14.187  24.833  0.00  0.00     0.083 H 
ATOM     69  C34 non d ame     -36.224  16.379  27.337  0.00  0.00    -0.075 A 
ATOM     70  H52 non d ame     -36.539  14.247  27.271  0.00  0.00     0.083 H 
ATOM     71  H53 non d ame     -36.054  16.398  28.413  0.00  0.00     0.084 H 
ENDBRANCH  58  61
ENDBRANCH  57  58
ENDBRANCH  55  57
ENDBRANCH  52  55
ENDBRANCH  49  52
ENDBRANCH  47  49
BRANCH  47  72
ATOM     72  C24 non d ame     -32.709  15.908  28.456  0.00  0.00    -0.039 C 
ATOM     73  H35 non d ame     -32.484  16.768  29.087  0.00  0.00     0.036 H 
ATOM     74  H36 non d ame     -33.662  15.390  28.561  0.00  0.00     0.036 H 
BRANCH  72  75
ATOM     75  C25 non d ame     -31.553  14.826  28.700  0.00  0.00    -0.001 C 
ATOM     76  C26 non d ame     -32.210  13.324  28.828  0.00  0.00    -0.035 C 
ATOM     77  C27 non d ame     -31.746  12.740  29.959  0.00  0.00     0.085 C 
ATOM     78  H38 non d ame     -33.283  13.399  29.002  0.00  0.00     0.036 H 
ATOM     79  H39 non d ame     -31.830  12.681  28.035  0.00  0.00     0.036 H 
ATOM     80  N5  non d ame     -31.092  13.825  30.780  0.00  0.00    -0.049 N 
ATOM     81  H40 non d ame     -32.630  12.380  30.484  0.00  0.00     0.075 H 
ATOM     82  H41 non d ame     -30.983  12.035  29.630  0.00  0.00     0.075 H 
ATOM     83  C28 non d ame     -30.897  15.080  29.783  0.00  0.00     0.193 C 
ATOM     84  H42 non d ame     -31.756  14.082  31.496  0.00  0.00     0.280 HD
ATOM     85  H43 non d ame     -30.180  13.475  31.040  0.00  0.00     0.280 HD
ATOM     86  H44 non d ame     -29.915  15.312  29.371  0.00  0.00     0.129 H 
ATOM     87  H37 non d ame     -30.722  14.946  28.006  0.00  0.00     0.046 H 
BRANCH  83  88
ATOM     88  O6  non d ame     -31.341  16.283  30.413  0.00  0.00    -0.369 OA
ATOM     89  H45 non d ame     -30.633  16.931  30.400  0.00  0.00     0.212 HD
ENDBRANCH  83  88
ENDBRANCH  72  75
ENDBRANCH  47  72
ENDBRANCH  45  47
ENDBRANCH   1  43
BRANCH   1  90
ATOM     90  C16 non d ame     -31.437  14.748  22.429  0.00  0.00    -0.035 C 
ATOM     91  H21 non d ame     -31.311  13.786  21.933  0.00  0.00     0.037 H 
ATOM     92  H22 non d ame     -32.405  15.250  22.408  0.00  0.00     0.037 H 
BRANCH  90  93
ATOM     93  C17 non d ame     -30.418  15.725  21.761  0.00  0.00    -0.059 C 
ATOM     94  H23 non d ame     -30.682  16.738  22.065  0.00  0.00     0.038 H 
BRANCH  93  95
ATOM     95  C18 non d ame     -28.951  15.455  22.225  0.00  0.00    -0.073 C 
ATOM     96  H24 non d ame     -28.806  15.859  23.227  0.00  0.00     0.028 H 
ATOM     97  H25 non d ame     -28.765  14.381  22.237  0.00  0.00     0.028 H 
ATOM     98  H26 non d ame     -28.257  15.935  21.536  0.00  0.00     0.028 H 
ENDBRANCH  93  95
BRANCH  93  99
ATOM     99  C19 non d ame     -30.526  15.667  20.235  0.00  0.00    -0.073 C 
ATOM    100  H27 non d ame     -31.546  15.407  19.952  0.00  0.00     0.028 H 
ATOM    101  H28 non d ame     -30.268  16.639  19.815  0.00  0.00     0.028 H 
ATOM    102  H29 non d ame     -29.839  14.913  19.851  0.00  0.00     0.028 H 
ENDBRANCH  93  99
ENDBRANCH  90  93
ENDBRANCH   1  90
TORSDOF 26
ENDMDL
MODEL 12
REMARK VINA RESULT:      -6.7      2.745      7.394
REMARK  26 active torsions:
REMARK  status: ('A' for Active; 'I' for Inactive)
REMARK    1  A    between atoms: C2_2  and  C3_3 
REMARK    2  A    between atoms: C4_6  and  C5_7 
REMARK       I    between atoms: C5_7  and  N2_9 
REMARK    3  A    between atoms: N2_9  and  C6_10 
REMARK    4  A    between atoms: C6_10  and  C7_11 
REMARK    5  A    between atoms: C6_10  and  C8_13 
REMARK       I    between atoms: C7_11  and  N3_14 
REMARK    6  A    between atoms: N3_14  and  C9_15 
REMARK    7  A    between atoms: C9_15  and  C10_16 
REMARK    8  A    between atoms: C9_15  and  C11_18 
REMARK       I    between atoms: C10_16  and  N4_21 
REMARK    9  A    between atoms: C11_18  and  C12_19 
REMARK   10  A    between atoms: C11_18  and  C13_20 
REMARK   11  A    between atoms: N4_21  and  C14_22 
REMARK   12  A    between atoms: C14_22  and  C15_23 
REMARK   13  A    between atoms: C14_22  and  C16_25 
REMARK       I    between atoms: C15_23  and  N6_40 
REMARK   14  A    between atoms: C16_25  and  C17_26 
REMARK   15  A    between atoms: C17_26  and  C18_27 
REMARK   16  A    between atoms: C17_26  and  C19_28 
REMARK   17  A    between atoms: C20_29  and  C21_30 
REMARK   18  A    between atoms: C20_29  and  C24_33 
REMARK   19  A    between atoms: C20_29  and  N6_40 
REMARK   20  A    between atoms: C21_30  and  C22_31 
REMARK   21  A    between atoms: C22_31  and  C23_32 
REMARK   22  A    between atoms: C23_32  and  O8_43 
REMARK   23  A    between atoms: C24_33  and  C25_34 
REMARK   24  A    between atoms: C28_38  and  O6_39 
REMARK   25  A    between atoms: C29_42  and  O8_43 
REMARK   26  A    between atoms: C29_42  and  C35_49 
ROOT
ATOM      1  C14 non d ame     -36.320  13.613  26.494  0.00  0.00     0.089 C 
ATOM      2  H20 non d ame     -36.617  14.111  27.418  0.00  0.00     0.087 H 
ENDROOT
BRANCH   1   3
ATOM      3  N4  non d ame     -35.336  14.460  25.837  0.00  0.00    -0.346 N 
ATOM      4  C10 non d ame     -34.383  15.296  26.654  0.00  0.00     0.241 C 
ATOM      5  O4  non d ame     -34.430  15.273  27.840  0.00  0.00    -0.271 OA
ATOM      6  H19 non d ame     -35.314  14.467  24.827  0.00  0.00     0.163 HD
BRANCH   4   7
ATOM      7  C9  non d ame     -33.367  16.162  25.958  0.00  0.00     0.092 C 
ATOM      8  H11 non d ame     -32.545  16.372  26.642  0.00  0.00     0.088 H 
BRANCH   7   9
ATOM      9  N3  non d ame     -32.805  15.435  24.815  0.00  0.00    -0.346 N 
ATOM     10  C7  non d ame     -31.406  15.568  24.494  0.00  0.00     0.240 C 
ATOM     11  O3  non d ame     -30.717  16.258  25.143  0.00  0.00    -0.271 OA
ATOM     12  H10 non d ame     -33.387  14.838  24.245  0.00  0.00     0.163 HD
BRANCH  10  13
ATOM     13  C6  non d ame     -30.814  14.794  23.275  0.00  0.00     0.086 C 
ATOM     14  H6  non d ame     -29.734  14.909  23.187  0.00  0.00     0.086 H 
BRANCH  13  15
ATOM     15  N2  non d ame     -31.068  13.374  23.451  0.00  0.00    -0.343 N 
ATOM     16  C5  non d ame     -30.229  12.399  22.751  0.00  0.00     0.273 C 
ATOM     17  O2  non d ame     -29.354  12.768  22.047  0.00  0.00    -0.266 OA
ATOM     18  H5  non d ame     -31.820  13.068  24.052  0.00  0.00     0.163 HD
BRANCH  16  19
ATOM     19  C4  non d ame     -30.485  10.894  22.928  0.00  0.00     0.154 A 
ATOM     20  C1  non d ame     -29.670   9.817  22.457  0.00  0.00    -0.017 A 
ATOM     21  C2  non d ame     -30.338   8.645  22.876  0.00  0.00     0.077 A 
ATOM     22  H1  non d ame     -28.737   9.876  21.897  0.00  0.00     0.091 H 
ATOM     23  O1  non d ame     -31.410   9.017  23.514  0.00  0.00    -0.218 OA
ATOM     24  N1  non d ame     -31.517  10.325  23.557  0.00  0.00    -0.123 NA
BRANCH  21  25
ATOM     25  C3  non d ame     -29.887   7.212  22.628  0.00  0.00    -0.029 C 
ATOM     26  H2  non d ame     -30.213   6.580  23.454  0.00  0.00     0.036 H 
ATOM     27  H3  non d ame     -30.324   6.849  21.698  0.00  0.00     0.036 H 
ATOM     28  H4  non d ame     -28.800   7.181  22.555  0.00  0.00     0.036 H 
ENDBRANCH  21  25
ENDBRANCH  16  19
ENDBRANCH  13  15
BRANCH  13  29
ATOM     29  C8  non d ame     -31.462  15.282  22.004  0.00  0.00    -0.049 C 
ATOM     30  H7  non d ame     -30.721  15.306  21.205  0.00  0.00     0.030 H 
ATOM     31  H8  non d ame     -32.272  14.607  21.728  0.00  0.00     0.030 H 
ATOM     32  H9  non d ame     -31.861  16.284  22.161  0.00  0.00     0.030 H 
ENDBRANCH  13  29
ENDBRANCH  10  13
ENDBRANCH   7   9
BRANCH   7  33
ATOM     33  C11 non d ame     -34.055  17.464  25.452  0.00  0.00    -0.033 C 
ATOM     34  H12 non d ame     -34.021  17.452  24.363  0.00  0.00     0.042 H 
BRANCH  33  35
ATOM     35  C12 non d ame     -35.556  17.515  25.875  0.00  0.00    -0.071 C 
ATOM     36  H13 non d ame     -36.144  17.966  25.076  0.00  0.00     0.028 H 
ATOM     37  H14 non d ame     -35.915  16.504  26.064  0.00  0.00     0.028 H 
ATOM     38  H15 non d ame     -35.658  18.113  26.781  0.00  0.00     0.028 H 
ENDBRANCH  33  35
BRANCH  33  39
ATOM     39  C13 non d ame     -33.284  18.731  25.945  0.00  0.00    -0.071 C 
ATOM     40  H16 non d ame     -33.069  19.379  25.095  0.00  0.00     0.028 H 
ATOM     41  H17 non d ame     -33.897  19.271  26.668  0.00  0.00     0.028 H 
ATOM     42  H18 non d ame     -32.350  18.427  26.418  0.00  0.00     0.028 H 
ENDBRANCH  33  39
ENDBRANCH   7  33
ENDBRANCH   4   7
ENDBRANCH   1   3
BRANCH   1  43
ATOM     43  C15 non d ame     -35.679  12.220  26.757  0.00  0.00     0.240 C 
ATOM     44  O5  non d ame     -35.810  11.349  25.960  0.00  0.00    -0.271 OA
ATOM     45  N6  non d ame     -34.894  11.976  28.001  0.00  0.00    -0.355 N 
ATOM     46  H46 non d ame     -34.771  12.709  28.683  0.00  0.00     0.162 HD
BRANCH  45  47
ATOM     47  C20 non d ame     -34.289  10.646  28.236  0.00  0.00     0.013 C 
ATOM     48  H30 non d ame     -34.122  10.178  27.266  0.00  0.00     0.072 H 
BRANCH  47  49
ATOM     49  C21 non d ame     -35.237   9.805  29.060  0.00  0.00    -0.038 C 
ATOM     50  H31 non d ame     -35.453  10.393  29.952  0.00  0.00     0.036 H 
ATOM     51  H32 non d ame     -36.045   9.523  28.384  0.00  0.00     0.036 H 
BRANCH  49  52
ATOM     52  C22 non d ame     -34.598   8.487  29.549  0.00  0.00     0.018 C 
ATOM     53  H33 non d ame     -35.099   7.693  28.997  0.00  0.00     0.048 H 
ATOM     54  H34 non d ame     -33.521   8.626  29.448  0.00  0.00     0.048 H 
BRANCH  52  55
ATOM     55  C23 non d ame     -34.852   8.189  31.053  0.00  0.00     0.259 C 
ATOM     56  O7  non d ame     -34.398   8.896  31.893  0.00  0.00    -0.265 OA
BRANCH  55  57
ATOM     57  O8  non d ame     -35.623   7.050  31.417  0.00  0.00    -0.317 OA
BRANCH  57  58
ATOM     58  C29 non d ame     -35.735   6.068  30.383  0.00  0.00     0.052 C 
ATOM     59  H47 non d ame     -36.627   5.489  30.622  0.00  0.00     0.082 H 
ATOM     60  H48 non d ame     -35.679   6.620  29.445  0.00  0.00     0.082 H 
BRANCH  58  61
ATOM     61  C35 non d ame     -34.501   5.132  30.477  0.00  0.00    -0.034 A 
ATOM     62  C30 non d ame     -33.815   4.766  29.323  0.00  0.00    -0.075 A 
ATOM     63  C31 non d ame     -32.707   3.925  29.406  0.00  0.00    -0.082 A 
ATOM     64  H49 non d ame     -34.146   5.138  28.353  0.00  0.00     0.084 H 
ATOM     65  C32 non d ame     -32.286   3.447  30.650  0.00  0.00    -0.083 A 
ATOM     66  H50 non d ame     -32.170   3.641  28.500  0.00  0.00     0.083 H 
ATOM     67  C33 non d ame     -32.975   3.812  31.798  0.00  0.00    -0.082 A 
ATOM     68  H51 non d ame     -31.419   2.789  30.725  0.00  0.00     0.083 H 
ATOM     69  C34 non d ame     -34.082   4.654  31.720  0.00  0.00    -0.075 A 
ATOM     70  H52 non d ame     -32.645   3.435  32.767  0.00  0.00     0.083 H 
ATOM     71  H53 non d ame     -34.618   4.937  32.626  0.00  0.00     0.084 H 
ENDBRANCH  58  61
ENDBRANCH  57  58
ENDBRANCH  55  57
ENDBRANCH  52  55
ENDBRANCH  49  52
ENDBRANCH  47  49
BRANCH  47  72
ATOM     72  C24 non d ame     -32.967  10.805  28.983  0.00  0.00    -0.039 C 
ATOM     73  H35 non d ame     -32.996  10.066  29.784  0.00  0.00     0.036 H 
ATOM     74  H36 non d ame     -32.193  10.749  28.218  0.00  0.00     0.036 H 
BRANCH  72  75
ATOM     75  C25 non d ame     -32.845  12.246  29.673  0.00  0.00    -0.001 C 
ATOM     76  C26 non d ame     -31.714  13.147  28.892  0.00  0.00    -0.035 C 
ATOM     77  C27 non d ame     -30.842  13.640  29.804  0.00  0.00     0.085 C 
ATOM     78  H38 non d ame     -31.093  12.507  28.266  0.00  0.00     0.036 H 
ATOM     79  H39 non d ame     -32.174  14.041  28.470  0.00  0.00     0.036 H 
ATOM     80  N5  non d ame     -31.083  12.892  31.093  0.00  0.00    -0.049 N 
ATOM     81  H40 non d ame     -29.852  13.387  29.426  0.00  0.00     0.075 H 
ATOM     82  H41 non d ame     -31.123  14.683  29.942  0.00  0.00     0.075 H 
ATOM     83  C28 non d ame     -32.501  12.142  30.913  0.00  0.00     0.193 C 
ATOM     84  H42 non d ame     -30.356  12.194  31.160  0.00  0.00     0.280 HD
ATOM     85  H43 non d ame     -31.178  13.592  31.816  0.00  0.00     0.280 HD
ATOM     86  H44 non d ame     -33.397  12.527  31.401  0.00  0.00     0.129 H 
ATOM     87  H37 non d ame     -33.819  12.707  29.840  0.00  0.00     0.046 H 
BRANCH  83  88
ATOM     88  O6  non d ame     -32.395  10.780  31.332  0.00  0.00    -0.369 OA
ATOM     89  H45 non d ame     -31.716  10.704  32.006  0.00  0.00     0.212 HD
ENDBRANCH  83  88
ENDBRANCH  72  75
ENDBRANCH  47  72
ENDBRANCH  45  47
ENDBRANCH   1  43
BRANCH   1  90
ATOM     90  C16 non d ame     -37.527  13.456  25.583  0.00  0.00    -0.035 C 
ATOM     91  H21 non d ame     -37.545  12.402  25.307  0.00  0.00     0.037 H 
ATOM     92  H22 non d ame     -38.362  13.891  26.133  0.00  0.00     0.037 H 
BRANCH  90  93
ATOM     93  C17 non d ame     -37.413  14.259  24.248  0.00  0.00    -0.059 C 
ATOM     94  H23 non d ame     -36.423  14.714  24.219  0.00  0.00     0.038 H 
BRANCH  93  95
ATOM     95  C18 non d ame     -37.551  13.339  22.993  0.00  0.00    -0.073 C 
ATOM     96  H24 non d ame     -38.102  12.438  23.262  0.00  0.00     0.028 H 
ATOM     97  H25 non d ame     -38.087  13.872  22.208  0.00  0.00     0.028 H 
ATOM     98  H26 non d ame     -36.559  13.064  22.634  0.00  0.00     0.028 H 
ENDBRANCH  93  95
BRANCH  93  99
ATOM     99  C19 non d ame     -38.437  15.396  24.205  0.00  0.00    -0.073 C 
ATOM    100  H27 non d ame     -39.444  14.978  24.191  0.00  0.00     0.028 H 
ATOM    101  H28 non d ame     -38.317  16.027  25.086  0.00  0.00     0.028 H 
ATOM    102  H29 non d ame     -38.278  15.994  23.307  0.00  0.00     0.028 H 
ENDBRANCH  93  99
ENDBRANCH  90  93
ENDBRANCH   1  90
TORSDOF 26
ENDMDL
MODEL 13
REMARK VINA RESULT:      -6.7      3.593      7.878
REMARK  26 active torsions:
REMARK  status: ('A' for Active; 'I' for Inactive)
REMARK    1  A    between atoms: C2_2  and  C3_3 
REMARK    2  A    between atoms: C4_6  and  C5_7 
REMARK       I    between atoms: C5_7  and  N2_9 
REMARK    3  A    between atoms: N2_9  and  C6_10 
REMARK    4  A    between atoms: C6_10  and  C7_11 
REMARK    5  A    between atoms: C6_10  and  C8_13 
REMARK       I    between atoms: C7_11  and  N3_14 
REMARK    6  A    between atoms: N3_14  and  C9_15 
REMARK    7  A    between atoms: C9_15  and  C10_16 
REMARK    8  A    between atoms: C9_15  and  C11_18 
REMARK       I    between atoms: C10_16  and  N4_21 
REMARK    9  A    between atoms: C11_18  and  C12_19 
REMARK   10  A    between atoms: C11_18  and  C13_20 
REMARK   11  A    between atoms: N4_21  and  C14_22 
REMARK   12  A    between atoms: C14_22  and  C15_23 
REMARK   13  A    between atoms: C14_22  and  C16_25 
REMARK       I    between atoms: C15_23  and  N6_40 
REMARK   14  A    between atoms: C16_25  and  C17_26 
REMARK   15  A    between atoms: C17_26  and  C18_27 
REMARK   16  A    between atoms: C17_26  and  C19_28 
REMARK   17  A    between atoms: C20_29  and  C21_30 
REMARK   18  A    between atoms: C20_29  and  C24_33 
REMARK   19  A    between atoms: C20_29  and  N6_40 
REMARK   20  A    between atoms: C21_30  and  C22_31 
REMARK   21  A    between atoms: C22_31  and  C23_32 
REMARK   22  A    between atoms: C23_32  and  O8_43 
REMARK   23  A    between atoms: C24_33  and  C25_34 
REMARK   24  A    between atoms: C28_38  and  O6_39 
REMARK   25  A    between atoms: C29_42  and  O8_43 
REMARK   26  A    between atoms: C29_42  and  C35_49 
ROOT
ATOM      1  C14 non d ame     -31.540   7.025  23.456  0.00  0.00     0.089 C 
ATOM      2  H20 non d ame     -30.571   6.872  23.932  0.00  0.00     0.087 H 
ENDROOT
BRANCH   1   3
ATOM      3  N4  non d ame     -32.444   6.003  23.963  0.00  0.00    -0.346 N 
ATOM      4  C10 non d ame     -32.450   5.652  25.430  0.00  0.00     0.241 C 
ATOM      5  O4  non d ame     -31.717   6.204  26.182  0.00  0.00    -0.271 OA
ATOM      6  H19 non d ame     -33.058   5.544  23.306  0.00  0.00     0.163 HD
BRANCH   4   7
ATOM      7  C9  non d ame     -33.396   4.596  25.938  0.00  0.00     0.092 C 
ATOM      8  H11 non d ame     -32.825   3.812  26.435  0.00  0.00     0.088 H 
BRANCH   7   9
ATOM      9  N3  non d ame     -34.290   5.182  26.941  0.00  0.00    -0.346 N 
ATOM     10  C7  non d ame     -34.084   4.902  28.341  0.00  0.00     0.240 C 
ATOM     11  O3  non d ame     -33.206   4.206  28.678  0.00  0.00    -0.271 OA
ATOM     12  H10 non d ame     -35.054   5.783  26.666  0.00  0.00     0.163 HD
BRANCH  10  13
ATOM     13  C6  non d ame     -35.041   5.527  29.404  0.00  0.00     0.086 C 
ATOM     14  H6  non d ame     -34.967   5.039  30.376  0.00  0.00     0.086 H 
BRANCH  13  15
ATOM     15  N2  non d ame     -34.675   6.918  29.608  0.00  0.00    -0.343 N 
ATOM     16  C5  non d ame     -34.782   7.503  30.946  0.00  0.00     0.273 C 
ATOM     17  O2  non d ame     -35.166   6.847  31.851  0.00  0.00    -0.266 OA
ATOM     18  H5  non d ame     -34.350   7.473  28.829  0.00  0.00     0.163 HD
BRANCH  16  19
ATOM     19  C4  non d ame     -34.396   8.973  31.177  0.00  0.00     0.154 A 
ATOM     20  C1  non d ame     -33.624   9.811  30.311  0.00  0.00    -0.017 A 
ATOM     21  C2  non d ame     -33.558  11.056  30.974  0.00  0.00     0.077 A 
ATOM     22  H1  non d ame     -33.181   9.554  29.349  0.00  0.00     0.091 H 
ATOM     23  O1  non d ame     -34.218  10.937  32.089  0.00  0.00    -0.218 OA
ATOM     24  N1  non d ame     -34.716   9.731  32.230  0.00  0.00    -0.123 NA
BRANCH  21  25
ATOM     25  C3  non d ame     -32.845  12.306  30.476  0.00  0.00    -0.029 C 
ATOM     26  H2  non d ame     -33.523  13.158  30.532  0.00  0.00     0.036 H 
ATOM     27  H3  non d ame     -31.970  12.497  31.096  0.00  0.00     0.036 H 
ATOM     28  H4  non d ame     -32.532  12.159  29.442  0.00  0.00     0.036 H 
ENDBRANCH  21  25
ENDBRANCH  16  19
ENDBRANCH  13  15
BRANCH  13  29
ATOM     29  C8  non d ame     -36.465   5.433  28.919  0.00  0.00    -0.049 C 
ATOM     30  H7  non d ame     -36.597   6.081  28.052  0.00  0.00     0.030 H 
ATOM     31  H8  non d ame     -36.687   4.403  28.640  0.00  0.00     0.030 H 
ATOM     32  H9  non d ame     -37.142   5.748  29.714  0.00  0.00     0.030 H 
ENDBRANCH  13  29
ENDBRANCH  10  13
ENDBRANCH   7   9
BRANCH   7  33
ATOM     33  C11 non d ame     -34.242   4.044  24.753  0.00  0.00    -0.033 C 
ATOM     34  H12 non d ame     -34.026   4.660  23.880  0.00  0.00     0.042 H 
BRANCH  33  35
ATOM     35  C12 non d ame     -33.841   2.577  24.404  0.00  0.00    -0.071 C 
ATOM     36  H13 non d ame     -34.649   1.902  24.686  0.00  0.00     0.028 H 
ATOM     37  H14 non d ame     -33.656   2.496  23.333  0.00  0.00     0.028 H 
ATOM     38  H15 non d ame     -32.936   2.308  24.950  0.00  0.00     0.028 H 
ENDBRANCH  33  35
BRANCH  33  39
ATOM     39  C13 non d ame     -35.771   4.156  25.057  0.00  0.00    -0.071 C 
ATOM     40  H16 non d ame     -36.053   5.207  25.119  0.00  0.00     0.028 H 
ATOM     41  H17 non d ame     -36.336   3.673  24.260  0.00  0.00     0.028 H 
ATOM     42  H18 non d ame     -35.990   3.664  26.005  0.00  0.00     0.028 H 
ENDBRANCH  33  39
ENDBRANCH   7  33
ENDBRANCH   4   7
ENDBRANCH   1   3
BRANCH   1  43
ATOM     43  C15 non d ame     -32.139   8.423  23.783  0.00  0.00     0.240 C 
ATOM     44  O5  non d ame     -32.906   8.928  23.028  0.00  0.00    -0.271 OA
ATOM     45  N6  non d ame     -31.764   9.129  25.041  0.00  0.00    -0.355 N 
ATOM     46  H46 non d ame     -31.117   8.707  25.692  0.00  0.00     0.162 HD
BRANCH  45  47
ATOM     47  C20 non d ame     -32.344  10.456  25.337  0.00  0.00     0.013 C 
ATOM     48  H30 non d ame     -32.991  10.733  24.505  0.00  0.00     0.072 H 
BRANCH  47  49
ATOM     49  C21 non d ame     -31.229  11.467  25.483  0.00  0.00    -0.038 C 
ATOM     50  H31 non d ame     -30.306  10.887  25.503  0.00  0.00     0.036 H 
ATOM     51  H32 non d ame     -31.394  12.203  24.696  0.00  0.00     0.036 H 
BRANCH  49  52
ATOM     52  C22 non d ame     -31.289  12.237  26.820  0.00  0.00     0.018 C 
ATOM     53  H33 non d ame     -32.251  11.982  27.265  0.00  0.00     0.048 H 
ATOM     54  H34 non d ame     -30.365  11.993  27.344  0.00  0.00     0.048 H 
BRANCH  52  55
ATOM     55  C23 non d ame     -31.292  13.782  26.653  0.00  0.00     0.259 C 
ATOM     56  O7  non d ame     -30.830  14.481  27.497  0.00  0.00    -0.265 OA
BRANCH  55  57
ATOM     57  O8  non d ame     -31.864  14.356  25.485  0.00  0.00    -0.317 OA
BRANCH  57  58
ATOM     58  C29 non d ame     -31.189  15.528  25.020  0.00  0.00     0.052 C 
ATOM     59  H47 non d ame     -31.926  16.330  25.064  0.00  0.00     0.082 H 
ATOM     60  H48 non d ame     -30.275  15.596  25.610  0.00  0.00     0.082 H 
BRANCH  58  61
ATOM     61  C35 non d ame     -30.799  15.300  23.536  0.00  0.00    -0.034 A 
ATOM     62  C30 non d ame     -31.229  16.191  22.557  0.00  0.00    -0.075 A 
ATOM     63  C31 non d ame     -30.878  15.986  21.224  0.00  0.00    -0.082 A 
ATOM     64  H49 non d ame     -31.840  17.050  22.836  0.00  0.00     0.084 H 
ATOM     65  C32 non d ame     -30.097  14.883  20.869  0.00  0.00    -0.083 A 
ATOM     66  H50 non d ame     -31.216  16.687  20.460  0.00  0.00     0.083 H 
ATOM     67  C33 non d ame     -29.674  13.995  21.848  0.00  0.00    -0.082 A 
ATOM     68  H51 non d ame     -29.818  14.716  19.829  0.00  0.00     0.083 H 
ATOM     69  C34 non d ame     -30.019  14.197  23.183  0.00  0.00    -0.075 A 
ATOM     70  H52 non d ame     -29.066  13.134  21.568  0.00  0.00     0.083 H 
ATOM     71  H53 non d ame     -29.682  13.495  23.946  0.00  0.00     0.084 H 
ENDBRANCH  58  61
ENDBRANCH  57  58
ENDBRANCH  55  57
ENDBRANCH  52  55
ENDBRANCH  49  52
ENDBRANCH  47  49
BRANCH  47  72
ATOM     72  C24 non d ame     -33.146  10.391  26.635  0.00  0.00    -0.039 C 
ATOM     73  H35 non d ame     -32.845   9.461  27.116  0.00  0.00     0.036 H 
ATOM     74  H36 non d ame     -32.969  11.344  27.134  0.00  0.00     0.036 H 
BRANCH  72  75
ATOM     75  C25 non d ame     -34.720  10.290  26.354  0.00  0.00    -0.001 C 
ATOM     76  C26 non d ame     -35.528  11.367  27.299  0.00  0.00    -0.035 C 
ATOM     77  C27 non d ame     -36.521  10.715  27.951  0.00  0.00     0.085 C 
ATOM     78  H38 non d ame     -34.882  11.716  28.103  0.00  0.00     0.036 H 
ATOM     79  H39 non d ame     -36.061  12.085  26.676  0.00  0.00     0.036 H 
ATOM     80  N5  non d ame     -36.260   9.237  27.790  0.00  0.00    -0.049 N 
ATOM     81  H40 non d ame     -36.405  10.985  29.001  0.00  0.00     0.075 H 
ATOM     82  H41 non d ame     -37.436  10.974  27.420  0.00  0.00     0.075 H 
ATOM     83  C28 non d ame     -35.166   9.106  26.610  0.00  0.00     0.193 C 
ATOM     84  H42 non d ame     -35.840   8.925  28.654  0.00  0.00     0.280 HD
ATOM     85  H43 non d ame     -37.126   8.827  27.473  0.00  0.00     0.280 HD
ATOM     86  H44 non d ame     -35.464   8.786  25.612  0.00  0.00     0.129 H 
ATOM     87  H37 non d ame     -34.951  10.295  25.289  0.00  0.00     0.046 H 
BRANCH  83  88
ATOM     88  O6  non d ame     -34.123   8.211  27.003  0.00  0.00    -0.369 OA
ATOM     89  H45 non d ame     -34.293   7.892  27.892  0.00  0.00     0.212 HD
ENDBRANCH  83  88
ENDBRANCH  72  75
ENDBRANCH  47  72
ENDBRANCH  45  47
ENDBRANCH   1  43
BRANCH   1  90
ATOM     90  C16 non d ame     -31.405   6.865  21.950  0.00  0.00    -0.035 C 
ATOM     91  H21 non d ame     -31.626   7.848  21.535  0.00  0.00     0.037 H 
ATOM     92  H22 non d ame     -30.424   6.416  21.794  0.00  0.00     0.037 H 
BRANCH  90  93
ATOM     93  C17 non d ame     -32.446   5.880  21.329  0.00  0.00    -0.059 C 
ATOM     94  H23 non d ame     -33.153   5.609  22.113  0.00  0.00     0.038 H 
BRANCH  93  95
ATOM     95  C18 non d ame     -33.255   6.535  20.164  0.00  0.00    -0.073 C 
ATOM     96  H24 non d ame     -33.597   5.760  19.478  0.00  0.00     0.028 H 
ATOM     97  H25 non d ame     -34.115   7.065  20.571  0.00  0.00     0.028 H 
ATOM     98  H26 non d ame     -32.616   7.237  19.628  0.00  0.00     0.028 H 
ENDBRANCH  93  95
BRANCH  93  99
ATOM     99  C19 non d ame     -31.767   4.590  20.863  0.00  0.00    -0.073 C 
ATOM    100  H27 non d ame     -32.181   4.288  19.901  0.00  0.00     0.028 H 
ATOM    101  H28 non d ame     -30.695   4.760  20.760  0.00  0.00     0.028 H 
ATOM    102  H29 non d ame     -31.940   3.803  21.597  0.00  0.00     0.028 H 
ENDBRANCH  93  99
ENDBRANCH  90  93
ENDBRANCH   1  90
TORSDOF 26
ENDMDL
MODEL 14
REMARK VINA RESULT:      -6.7      1.847      5.597
REMARK  26 active torsions:
REMARK  status: ('A' for Active; 'I' for Inactive)
REMARK    1  A    between atoms: C2_2  and  C3_3 
REMARK    2  A    between atoms: C4_6  and  C5_7 
REMARK       I    between atoms: C5_7  and  N2_9 
REMARK    3  A    between atoms: N2_9  and  C6_10 
REMARK    4  A    between atoms: C6_10  and  C7_11 
REMARK    5  A    between atoms: C6_10  and  C8_13 
REMARK       I    between atoms: C7_11  and  N3_14 
REMARK    6  A    between atoms: N3_14  and  C9_15 
REMARK    7  A    between atoms: C9_15  and  C10_16 
REMARK    8  A    between atoms: C9_15  and  C11_18 
REMARK       I    between atoms: C10_16  and  N4_21 
REMARK    9  A    between atoms: C11_18  and  C12_19 
REMARK   10  A    between atoms: C11_18  and  C13_20 
REMARK   11  A    between atoms: N4_21  and  C14_22 
REMARK   12  A    between atoms: C14_22  and  C15_23 
REMARK   13  A    between atoms: C14_22  and  C16_25 
REMARK       I    between atoms: C15_23  and  N6_40 
REMARK   14  A    between atoms: C16_25  and  C17_26 
REMARK   15  A    between atoms: C17_26  and  C18_27 
REMARK   16  A    between atoms: C17_26  and  C19_28 
REMARK   17  A    between atoms: C20_29  and  C21_30 
REMARK   18  A    between atoms: C20_29  and  C24_33 
REMARK   19  A    between atoms: C20_29  and  N6_40 
REMARK   20  A    between atoms: C21_30  and  C22_31 
REMARK   21  A    between atoms: C22_31  and  C23_32 
REMARK   22  A    between atoms: C23_32  and  O8_43 
REMARK   23  A    between atoms: C24_33  and  C25_34 
REMARK   24  A    between atoms: C28_38  and  O6_39 
REMARK   25  A    between atoms: C29_42  and  O8_43 
REMARK   26  A    between atoms: C29_42  and  C35_49 
ROOT
ATOM      1  C14 non d ame     -32.523   9.918  24.693  0.00  0.00     0.089 C 
ATOM      2  H20 non d ame     -32.324   9.095  25.381  0.00  0.00     0.087 H 
ENDROOT
BRANCH   1   3
ATOM      3  N4  non d ame     -33.895  10.352  24.913  0.00  0.00    -0.346 N 
ATOM      4  C10 non d ame     -34.624   9.962  26.174  0.00  0.00     0.241 C 
ATOM      5  O4  non d ame     -34.087   9.296  26.997  0.00  0.00    -0.271 OA
ATOM      6  H19 non d ame     -34.335  10.916  24.200  0.00  0.00     0.163 HD
BRANCH   4   7
ATOM      7  C9  non d ame     -36.041  10.424  26.388  0.00  0.00     0.092 C 
ATOM      8  H11 non d ame     -36.190  10.648  27.444  0.00  0.00     0.088 H 
BRANCH   7   9
ATOM      9  N3  non d ame     -36.268  11.667  25.644  0.00  0.00    -0.346 N 
ATOM     10  C7  non d ame     -37.029  12.736  26.243  0.00  0.00     0.240 C 
ATOM     11  O3  non d ame     -37.468  12.612  27.321  0.00  0.00    -0.271 OA
ATOM     12  H10 non d ame     -35.897  11.788  24.713  0.00  0.00     0.163 HD
BRANCH  10  13
ATOM     13  C6  non d ame     -37.269  14.056  25.446  0.00  0.00     0.086 C 
ATOM     14  H6  non d ame     -38.241  14.502  25.653  0.00  0.00     0.086 H 
BRANCH  13  15
ATOM     15  N2  non d ame     -36.270  15.034  25.841  0.00  0.00    -0.343 N 
ATOM     16  C5  non d ame     -36.626  16.082  26.801  0.00  0.00     0.273 C 
ATOM     17  O2  non d ame     -37.719  16.131  27.246  0.00  0.00    -0.266 OA
ATOM     18  H5  non d ame     -35.338  14.986  25.454  0.00  0.00     0.163 HD
BRANCH  16  19
ATOM     19  C4  non d ame     -35.578  17.122  27.229  0.00  0.00     0.154 A 
ATOM     20  C1  non d ame     -34.538  17.683  26.423  0.00  0.00    -0.017 A 
ATOM     21  C2  non d ame     -33.859  18.579  27.279  0.00  0.00     0.077 A 
ATOM     22  H1  non d ame     -34.310  17.473  25.378  0.00  0.00     0.091 H 
ATOM     23  O1  non d ame     -34.449  18.531  28.437  0.00  0.00    -0.218 OA
ATOM     24  N1  non d ame     -35.455  17.687  28.433  0.00  0.00    -0.123 NA
BRANCH  21  25
ATOM     25  C3  non d ame     -32.659  19.442  26.912  0.00  0.00    -0.029 C 
ATOM     26  H2  non d ame     -32.130  18.991  26.073  0.00  0.00     0.036 H 
ATOM     27  H3  non d ame     -33.000  20.438  26.632  0.00  0.00     0.036 H 
ATOM     28  H4  non d ame     -31.988  19.515  27.768  0.00  0.00     0.036 H 
ENDBRANCH  21  25
ENDBRANCH  16  19
ENDBRANCH  13  15
BRANCH  13  29
ATOM     29  C8  non d ame     -37.165  13.779  23.968  0.00  0.00    -0.049 C 
ATOM     30  H7  non d ame     -38.126  13.426  23.595  0.00  0.00     0.030 H 
ATOM     31  H8  non d ame     -36.888  14.695  23.446  0.00  0.00     0.030 H 
ATOM     32  H9  non d ame     -36.405  13.017  23.793  0.00  0.00     0.030 H 
ENDBRANCH  13  29
ENDBRANCH  10  13
ENDBRANCH   7   9
BRANCH   7  33
ATOM     33  C11 non d ame     -37.026   9.331  25.877  0.00  0.00    -0.033 C 
ATOM     34  H12 non d ame     -36.501   8.376  25.906  0.00  0.00     0.042 H 
BRANCH  33  35
ATOM     35  C12 non d ame     -38.273   9.210  26.807  0.00  0.00    -0.071 C 
ATOM     36  H13 non d ame     -38.052   8.521  27.623  0.00  0.00     0.028 H 
ATOM     37  H14 non d ame     -38.519  10.190  27.214  0.00  0.00     0.028 H 
ATOM     38  H15 non d ame     -39.119   8.832  26.233  0.00  0.00     0.028 H 
ENDBRANCH  33  35
BRANCH  33  39
ATOM     39  C13 non d ame     -37.447   9.605  24.397  0.00  0.00    -0.071 C 
ATOM     40  H16 non d ame     -37.166  10.622  24.122  0.00  0.00     0.028 H 
ATOM     41  H17 non d ame     -36.943   8.897  23.739  0.00  0.00     0.028 H 
ATOM     42  H18 non d ame     -38.526   9.486  24.299  0.00  0.00     0.028 H 
ENDBRANCH  33  39
ENDBRANCH   7  33
ENDBRANCH   4   7
ENDBRANCH   1   3
BRANCH   1  43
ATOM     43  C15 non d ame     -31.576  11.128  24.938  0.00  0.00     0.240 C 
ATOM     44  O5  non d ame     -30.850  11.130  25.879  0.00  0.00    -0.271 OA
ATOM     45  N6  non d ame     -31.568  12.281  23.993  0.00  0.00    -0.355 N 
ATOM     46  H46 non d ame     -32.176  12.289  23.187  0.00  0.00     0.162 HD
BRANCH  45  47
ATOM     47  C20 non d ame     -30.661  13.423  24.238  0.00  0.00     0.013 C 
ATOM     48  H30 non d ame     -29.972  13.140  25.034  0.00  0.00     0.072 H 
BRANCH  47  49
ATOM     49  C21 non d ame     -31.474  14.625  24.663  0.00  0.00    -0.038 C 
ATOM     50  H31 non d ame     -30.847  15.493  24.458  0.00  0.00     0.036 H 
ATOM     51  H32 non d ame     -32.438  14.519  24.164  0.00  0.00     0.036 H 
BRANCH  49  52
ATOM     52  C22 non d ame     -31.767  14.645  26.179  0.00  0.00     0.018 C 
ATOM     53  H33 non d ame     -31.049  13.959  26.627  0.00  0.00     0.048 H 
ATOM     54  H34 non d ame     -31.768  15.697  26.465  0.00  0.00     0.048 H 
BRANCH  52  55
ATOM     55  C23 non d ame     -33.172  14.098  26.553  0.00  0.00     0.259 C 
ATOM     56  O7  non d ame     -33.762  13.388  25.804  0.00  0.00    -0.265 OA
BRANCH  55  57
ATOM     57  O8  non d ame     -33.755  14.465  27.797  0.00  0.00    -0.317 OA
BRANCH  57  58
ATOM     58  C29 non d ame     -32.811  14.926  28.768  0.00  0.00     0.052 C 
ATOM     59  H47 non d ame     -31.986  15.354  28.198  0.00  0.00     0.082 H 
ATOM     60  H48 non d ame     -33.378  15.551  29.458  0.00  0.00     0.082 H 
BRANCH  58  61
ATOM     61  C35 non d ame     -32.283  13.691  29.546  0.00  0.00    -0.034 A 
ATOM     62  C30 non d ame     -33.154  12.667  29.901  0.00  0.00    -0.075 A 
ATOM     63  C31 non d ame     -32.680  11.558  30.600  0.00  0.00    -0.082 A 
ATOM     64  H49 non d ame     -34.209  12.733  29.633  0.00  0.00     0.084 H 
ATOM     65  C32 non d ame     -31.328  11.476  30.946  0.00  0.00    -0.083 A 
ATOM     66  H50 non d ame     -33.365  10.755  30.876  0.00  0.00     0.083 H 
ATOM     67  C33 non d ame     -30.463  12.503  30.592  0.00  0.00    -0.082 A 
ATOM     68  H51 non d ame     -30.949  10.612  31.491  0.00  0.00     0.083 H 
ATOM     69  C34 non d ame     -30.932  13.612  29.892  0.00  0.00    -0.075 A 
ATOM     70  H52 non d ame     -29.409  12.437  30.865  0.00  0.00     0.083 H 
ATOM     71  H53 non d ame     -30.246  14.414  29.616  0.00  0.00     0.084 H 
ENDBRANCH  58  61
ENDBRANCH  57  58
ENDBRANCH  55  57
ENDBRANCH  52  55
ENDBRANCH  49  52
ENDBRANCH  47  49
BRANCH  47  72
ATOM     72  C24 non d ame     -29.890  13.754  22.962  0.00  0.00    -0.039 C 
ATOM     73  H35 non d ame     -28.859  13.915  23.279  0.00  0.00     0.036 H 
ATOM     74  H36 non d ame     -30.127  12.951  22.264  0.00  0.00     0.036 H 
BRANCH  72  75
ATOM     75  C25 non d ame     -30.399  15.121  22.300  0.00  0.00    -0.001 C 
ATOM     76  C26 non d ame     -31.096  14.812  20.843  0.00  0.00    -0.035 C 
ATOM     77  C27 non d ame     -30.541  15.626  19.912  0.00  0.00     0.085 C 
ATOM     78  H38 non d ame     -30.824  13.813  20.503  0.00  0.00     0.036 H 
ATOM     79  H39 non d ame     -32.142  15.118  20.856  0.00  0.00     0.036 H 
ATOM     80  N5  non d ame     -29.305  16.229  20.534  0.00  0.00    -0.049 N 
ATOM     81  H40 non d ame     -30.244  14.971  19.093  0.00  0.00     0.075 H 
ATOM     82  H41 non d ame     -31.273  16.414  19.741  0.00  0.00     0.075 H 
ATOM     83  C28 non d ame     -29.422  15.946  22.119  0.00  0.00     0.193 C 
ATOM     84  H42 non d ame     -28.519  15.708  20.172  0.00  0.00     0.280 HD
ATOM     85  H43 non d ame     -29.365  17.225  20.380  0.00  0.00     0.280 HD
ATOM     86  H44 non d ame     -29.707  16.744  22.805  0.00  0.00     0.129 H 
ATOM     87  H37 non d ame     -30.967  15.734  23.001  0.00  0.00     0.046 H 
BRANCH  83  88
ATOM     88  O6  non d ame     -28.186  15.434  22.621  0.00  0.00    -0.369 OA
ATOM     89  H45 non d ame     -27.820  16.051  23.260  0.00  0.00     0.212 HD
ENDBRANCH  83  88
ENDBRANCH  72  75
ENDBRANCH  47  72
ENDBRANCH  45  47
ENDBRANCH   1  43
BRANCH   1  90
ATOM     90  C16 non d ame     -32.378   9.438  23.258  0.00  0.00    -0.035 C 
ATOM     91  H21 non d ame     -33.239   8.794  23.082  0.00  0.00     0.037 H 
ATOM     92  H22 non d ame     -32.242  10.341  22.664  0.00  0.00     0.037 H 
BRANCH  90  93
ATOM     93  C17 non d ame     -31.112   8.555  23.018  0.00  0.00    -0.059 C 
ATOM     94  H23 non d ame     -30.662   8.351  23.989  0.00  0.00     0.038 H 
BRANCH  93  95
ATOM     95  C18 non d ame     -31.466   7.183  22.359  0.00  0.00    -0.073 C 
ATOM     96  H24 non d ame     -31.173   6.373  23.027  0.00  0.00     0.028 H 
ATOM     97  H25 non d ame     -32.539   7.133  22.178  0.00  0.00     0.028 H 
ATOM     98  H26 non d ame     -30.933   7.086  21.414  0.00  0.00     0.028 H 
ENDBRANCH  93  95
BRANCH  93  99
ATOM     99  C19 non d ame     -30.072   9.307  22.184  0.00  0.00    -0.073 C 
ATOM    100  H27 non d ame     -29.402   8.592  21.706  0.00  0.00     0.028 H 
ATOM    101  H28 non d ame     -30.577   9.898  21.419  0.00  0.00     0.028 H 
ATOM    102  H29 non d ame     -29.496   9.968  22.831  0.00  0.00     0.028 H 
ENDBRANCH  93  99
ENDBRANCH  90  93
ENDBRANCH   1  90
TORSDOF 26
ENDMDL
MODEL 15
REMARK VINA RESULT:      -6.7      2.514      6.755
REMARK  26 active torsions:
REMARK  status: ('A' for Active; 'I' for Inactive)
REMARK    1  A    between atoms: C2_2  and  C3_3 
REMARK    2  A    between atoms: C4_6  and  C5_7 
REMARK       I    between atoms: C5_7  and  N2_9 
REMARK    3  A    between atoms: N2_9  and  C6_10 
REMARK    4  A    between atoms: C6_10  and  C7_11 
REMARK    5  A    between atoms: C6_10  and  C8_13 
REMARK       I    between atoms: C7_11  and  N3_14 
REMARK    6  A    between atoms: N3_14  and  C9_15 
REMARK    7  A    between atoms: C9_15  and  C10_16 
REMARK    8  A    between atoms: C9_15  and  C11_18 
REMARK       I    between atoms: C10_16  and  N4_21 
REMARK    9  A    between atoms: C11_18  and  C12_19 
REMARK   10  A    between atoms: C11_18  and  C13_20 
REMARK   11  A    between atoms: N4_21  and  C14_22 
REMARK   12  A    between atoms: C14_22  and  C15_23 
REMARK   13  A    between atoms: C14_22  and  C16_25 
REMARK       I    between atoms: C15_23  and  N6_40 
REMARK   14  A    between atoms: C16_25  and  C17_26 
REMARK   15  A    between atoms: C17_26  and  C18_27 
REMARK   16  A    between atoms: C17_26  and  C19_28 
REMARK   17  A    between atoms: C20_29  and  C21_30 
REMARK   18  A    between atoms: C20_29  and  C24_33 
REMARK   19  A    between atoms: C20_29  and  N6_40 
REMARK   20  A    between atoms: C21_30  and  C22_31 
REMARK   21  A    between atoms: C22_31  and  C23_32 
REMARK   22  A    between atoms: C23_32  and  O8_43 
REMARK   23  A    between atoms: C24_33  and  C25_34 
REMARK   24  A    between atoms: C28_38  and  O6_39 
REMARK   25  A    between atoms: C29_42  and  O8_43 
REMARK   26  A    between atoms: C29_42  and  C35_49 
ROOT
ATOM      1  C14 non d ame     -31.875   9.136  23.614  0.00  0.00     0.089 C 
ATOM      2  H20 non d ame     -31.569   8.336  24.290  0.00  0.00     0.087 H 
ENDROOT
BRANCH   1   3
ATOM      3  N4  non d ame     -33.240   9.503  23.961  0.00  0.00    -0.346 N 
ATOM      4  C10 non d ame     -33.976   8.762  25.049  0.00  0.00     0.241 C 
ATOM      5  O4  non d ame     -33.449   7.870  25.629  0.00  0.00    -0.271 OA
ATOM      6  H19 non d ame     -33.671  10.263  23.454  0.00  0.00     0.163 HD
BRANCH   4   7
ATOM      7  C9  non d ame     -35.386   9.159  25.398  0.00  0.00     0.092 C 
ATOM      8  H11 non d ame     -36.001   8.263  25.481  0.00  0.00     0.088 H 
BRANCH   7   9
ATOM      9  N3  non d ame     -35.398   9.815  26.709  0.00  0.00    -0.346 N 
ATOM     10  C7  non d ame     -35.867   9.098  27.869  0.00  0.00     0.240 C 
ATOM     11  O3  non d ame     -36.239   7.993  27.766  0.00  0.00    -0.271 OA
ATOM     12  H10 non d ame     -35.082  10.769  26.814  0.00  0.00     0.163 HD
BRANCH  10  13
ATOM     13  C6  non d ame     -35.881   9.803  29.261  0.00  0.00     0.086 C 
ATOM     14  H6  non d ame     -35.693   9.114  30.085  0.00  0.00     0.086 H 
BRANCH  13  15
ATOM     15  N2  non d ame     -34.818  10.794  29.298  0.00  0.00    -0.343 N 
ATOM     16  C5  non d ame     -33.731  10.651  30.269  0.00  0.00     0.273 C 
ATOM     17  O2  non d ame     -33.722   9.736  31.018  0.00  0.00    -0.266 OA
ATOM     18  H5  non d ame     -34.835  11.574  28.657  0.00  0.00     0.163 HD
BRANCH  16  19
ATOM     19  C4  non d ame     -32.601  11.690  30.318  0.00  0.00     0.154 A 
ATOM     20  C1  non d ame     -32.635  13.029  29.813  0.00  0.00    -0.017 A 
ATOM     21  C2  non d ame     -31.358  13.560  30.106  0.00  0.00     0.077 A 
ATOM     22  H1  non d ame     -33.458  13.537  29.311  0.00  0.00     0.091 H 
ATOM     23  O1  non d ame     -30.680  12.628  30.709  0.00  0.00    -0.218 OA
ATOM     24  N1  non d ame     -31.384  11.528  30.845  0.00  0.00    -0.123 NA
BRANCH  21  25
ATOM     25  C3  non d ame     -30.869  14.964  29.776  0.00  0.00    -0.029 C 
ATOM     26  H2  non d ame     -30.639  15.495  30.699  0.00  0.00     0.036 H 
ATOM     27  H3  non d ame     -29.972  14.900  29.161  0.00  0.00     0.036 H 
ATOM     28  H4  non d ame     -31.645  15.501  29.231  0.00  0.00     0.036 H 
ENDBRANCH  21  25
ENDBRANCH  16  19
ENDBRANCH  13  15
BRANCH  13  29
ATOM     29  C8  non d ame     -37.216  10.468  29.478  0.00  0.00    -0.049 C 
ATOM     30  H7  non d ame     -37.087  11.551  29.476  0.00  0.00     0.030 H 
ATOM     31  H8  non d ame     -37.898  10.182  28.678  0.00  0.00     0.030 H 
ATOM     32  H9  non d ame     -37.628  10.153  30.437  0.00  0.00     0.030 H 
ENDBRANCH  13  29
ENDBRANCH  10  13
ENDBRANCH   7   9
BRANCH   7  33
ATOM     33  C11 non d ame     -35.928  10.145  24.323  0.00  0.00    -0.033 C 
ATOM     34  H12 non d ame     -35.070  10.571  23.804  0.00  0.00     0.042 H 
BRANCH  33  35
ATOM     35  C12 non d ame     -36.799   9.405  23.260  0.00  0.00    -0.071 C 
ATOM     36  H13 non d ame     -36.934  10.046  22.389  0.00  0.00     0.028 H 
ATOM     37  H14 non d ame     -36.300   8.484  22.959  0.00  0.00     0.028 H 
ATOM     38  H15 non d ame     -37.772   9.167  23.690  0.00  0.00     0.028 H 
ENDBRANCH  33  35
BRANCH  33  39
ATOM     39  C13 non d ame     -36.721  11.317  24.987  0.00  0.00    -0.071 C 
ATOM     40  H16 non d ame     -36.019  12.032  25.417  0.00  0.00     0.028 H 
ATOM     41  H17 non d ame     -37.332  11.815  24.234  0.00  0.00     0.028 H 
ATOM     42  H18 non d ame     -37.364  10.921  25.772  0.00  0.00     0.028 H 
ENDBRANCH  33  39
ENDBRANCH   7  33
ENDBRANCH   4   7
ENDBRANCH   1   3
BRANCH   1  43
ATOM     43  C15 non d ame     -30.974  10.396  23.748  0.00  0.00     0.240 C 
ATOM     44  O5  non d ame     -29.798  10.300  23.604  0.00  0.00    -0.271 OA
ATOM     45  N6  non d ame     -31.577  11.726  24.049  0.00  0.00    -0.355 N 
ATOM     46  H46 non d ame     -32.575  11.821  24.169  0.00  0.00     0.162 HD
BRANCH  45  47
ATOM     47  C20 non d ame     -30.706  12.915  24.172  0.00  0.00     0.013 C 
ATOM     48  H30 non d ame     -29.843  12.637  24.777  0.00  0.00     0.072 H 
BRANCH  47  49
ATOM     49  C21 non d ame     -31.474  14.029  24.847  0.00  0.00    -0.038 C 
ATOM     50  H31 non d ame     -30.768  14.853  24.950  0.00  0.00     0.036 H 
ATOM     51  H32 non d ame     -32.382  14.159  24.258  0.00  0.00     0.036 H 
BRANCH  49  52
ATOM     52  C22 non d ame     -31.929  13.662  26.276  0.00  0.00     0.018 C 
ATOM     53  H33 non d ame     -31.542  12.661  26.462  0.00  0.00     0.048 H 
ATOM     54  H34 non d ame     -31.615  14.494  26.908  0.00  0.00     0.048 H 
BRANCH  52  55
ATOM     55  C23 non d ame     -33.471  13.561  26.436  0.00  0.00     0.259 C 
ATOM     56  O7  non d ame     -33.984  12.520  26.690  0.00  0.00    -0.265 OA
BRANCH  55  57
ATOM     57  O8  non d ame     -34.267  14.727  26.263  0.00  0.00    -0.317 OA
BRANCH  57  58
ATOM     58  C29 non d ame     -34.384  15.533  27.439  0.00  0.00     0.052 C 
ATOM     59  H47 non d ame     -35.452  15.605  27.643  0.00  0.00     0.082 H 
ATOM     60  H48 non d ame     -33.719  15.080  28.174  0.00  0.00     0.082 H 
BRANCH  58  61
ATOM     61  C35 non d ame     -33.850  16.951  27.103  0.00  0.00    -0.034 A 
ATOM     62  C30 non d ame     -32.942  17.573  27.954  0.00  0.00    -0.075 A 
ATOM     63  C31 non d ame     -32.463  18.847  27.652  0.00  0.00    -0.082 A 
ATOM     64  H49 non d ame     -32.606  17.063  28.857  0.00  0.00     0.084 H 
ATOM     65  C32 non d ame     -32.897  19.500  26.495  0.00  0.00    -0.083 A 
ATOM     66  H50 non d ame     -31.750  19.331  28.320  0.00  0.00     0.083 H 
ATOM     67  C33 non d ame     -33.806  18.876  25.652  0.00  0.00    -0.082 A 
ATOM     68  H51 non d ame     -32.527  20.496  26.252  0.00  0.00     0.083 H 
ATOM     69  C34 non d ame     -34.286  17.603  25.948  0.00  0.00    -0.075 A 
ATOM     70  H52 non d ame     -34.145  19.390  24.751  0.00  0.00     0.083 H 
ATOM     71  H53 non d ame     -34.999  17.119  25.280  0.00  0.00     0.084 H 
ENDBRANCH  58  61
ENDBRANCH  57  58
ENDBRANCH  55  57
ENDBRANCH  52  55
ENDBRANCH  49  52
ENDBRANCH  47  49
BRANCH  47  72
ATOM     72  C24 non d ame     -30.258  13.372  22.785  0.00  0.00    -0.039 C 
ATOM     73  H35 non d ame     -29.223  13.040  22.691  0.00  0.00     0.036 H 
ATOM     74  H36 non d ame     -31.015  12.997  22.097  0.00  0.00     0.036 H 
BRANCH  72  75
ATOM     75  C25 non d ame     -30.255  14.969  22.660  0.00  0.00    -0.001 C 
ATOM     76  C26 non d ame     -31.211  15.434  21.405  0.00  0.00    -0.035 C 
ATOM     77  C27 non d ame     -30.508  16.275  20.610  0.00  0.00     0.085 C 
ATOM     78  H38 non d ame     -31.417  14.583  20.757  0.00  0.00     0.036 H 
ATOM     79  H39 non d ame     -32.031  16.053  21.769  0.00  0.00     0.036 H 
ATOM     80  N5  non d ame     -29.060  16.170  21.025  0.00  0.00    -0.049 N 
ATOM     81  H40 non d ame     -30.618  15.881  19.600  0.00  0.00     0.075 H 
ATOM     82  H41 non d ame     -30.874  17.274  20.847  0.00  0.00     0.075 H 
ATOM     83  C28 non d ame     -29.062  15.420  22.455  0.00  0.00     0.193 C 
ATOM     84  H42 non d ame     -28.611  15.570  20.348  0.00  0.00     0.280 HD
ATOM     85  H43 non d ame     -28.732  17.116  21.159  0.00  0.00     0.280 HD
ATOM     86  H44 non d ame     -28.902  15.982  23.375  0.00  0.00     0.129 H 
ATOM     87  H37 non d ame     -30.423  15.459  23.619  0.00  0.00     0.046 H 
BRANCH  83  88
ATOM     88  O6  non d ame     -28.083  14.379  22.467  0.00  0.00    -0.369 OA
ATOM     89  H45 non d ame     -28.311  13.733  23.140  0.00  0.00     0.212 HD
ENDBRANCH  83  88
ENDBRANCH  72  75
ENDBRANCH  47  72
ENDBRANCH  45  47
ENDBRANCH   1  43
BRANCH   1  90
ATOM     90  C16 non d ame     -31.846   8.636  22.179  0.00  0.00    -0.035 C 
ATOM     91  H21 non d ame     -32.420   9.365  21.607  0.00  0.00     0.037 H 
ATOM     92  H22 non d ame     -30.792   8.473  21.951  0.00  0.00     0.037 H 
BRANCH  90  93
ATOM     93  C17 non d ame     -32.558   7.261  21.979  0.00  0.00    -0.059 C 
ATOM     94  H23 non d ame     -33.580   7.361  22.344  0.00  0.00     0.038 H 
BRANCH  93  95
ATOM     95  C18 non d ame     -32.629   6.847  20.474  0.00  0.00    -0.073 C 
ATOM     96  H24 non d ame     -31.922   6.039  20.286  0.00  0.00     0.028 H 
ATOM     97  H25 non d ame     -33.637   6.509  20.237  0.00  0.00     0.028 H 
ATOM     98  H26 non d ame     -32.376   7.703  19.849  0.00  0.00     0.028 H 
ENDBRANCH  93  95
BRANCH  93  99
ATOM     99  C19 non d ame     -31.883   6.169  22.813  0.00  0.00    -0.073 C 
ATOM    100  H27 non d ame     -30.844   6.444  23.000  0.00  0.00     0.028 H 
ATOM    101  H28 non d ame     -32.406   6.061  23.763  0.00  0.00     0.028 H 
ATOM    102  H29 non d ame     -31.917   5.224  22.271  0.00  0.00     0.028 H 
ENDBRANCH  93  99
ENDBRANCH  90  93
ENDBRANCH   1  90
TORSDOF 26
ENDMDL
MODEL 16
REMARK VINA RESULT:      -6.6      3.162      6.788
REMARK  26 active torsions:
REMARK  status: ('A' for Active; 'I' for Inactive)
REMARK    1  A    between atoms: C2_2  and  C3_3 
REMARK    2  A    between atoms: C4_6  and  C5_7 
REMARK       I    between atoms: C5_7  and  N2_9 
REMARK    3  A    between atoms: N2_9  and  C6_10 
REMARK    4  A    between atoms: C6_10  and  C7_11 
REMARK    5  A    between atoms: C6_10  and  C8_13 
REMARK       I    between atoms: C7_11  and  N3_14 
REMARK    6  A    between atoms: N3_14  and  C9_15 
REMARK    7  A    between atoms: C9_15  and  C10_16 
REMARK    8  A    between atoms: C9_15  and  C11_18 
REMARK       I    between atoms: C10_16  and  N4_21 
REMARK    9  A    between atoms: C11_18  and  C12_19 
REMARK   10  A    between atoms: C11_18  and  C13_20 
REMARK   11  A    between atoms: N4_21  and  C14_22 
REMARK   12  A    between atoms: C14_22  and  C15_23 
REMARK   13  A    between atoms: C14_22  and  C16_25 
REMARK       I    between atoms: C15_23  and  N6_40 
REMARK   14  A    between atoms: C16_25  and  C17_26 
REMARK   15  A    between atoms: C17_26  and  C18_27 
REMARK   16  A    between atoms: C17_26  and  C19_28 
REMARK   17  A    between atoms: C20_29  and  C21_30 
REMARK   18  A    between atoms: C20_29  and  C24_33 
REMARK   19  A    between atoms: C20_29  and  N6_40 
REMARK   20  A    between atoms: C21_30  and  C22_31 
REMARK   21  A    between atoms: C22_31  and  C23_32 
REMARK   22  A    between atoms: C23_32  and  O8_43 
REMARK   23  A    between atoms: C24_33  and  C25_34 
REMARK   24  A    between atoms: C28_38  and  O6_39 
REMARK   25  A    between atoms: C29_42  and  O8_43 
REMARK   26  A    between atoms: C29_42  and  C35_49 
ROOT
ATOM      1  C14 non d ame     -31.087  13.610  24.564  0.00  0.00     0.089 C 
ATOM      2  H20 non d ame     -30.074  13.573  24.967  0.00  0.00     0.087 H 
ENDROOT
BRANCH   1   3
ATOM      3  N4  non d ame     -31.444  12.260  24.153  0.00  0.00    -0.346 N 
ATOM      4  C10 non d ame     -31.351  11.116  25.131  0.00  0.00     0.241 C 
ATOM      5  O4  non d ame     -30.983  11.306  26.244  0.00  0.00    -0.271 OA
ATOM      6  H19 non d ame     -31.753  12.120  23.202  0.00  0.00     0.163 HD
BRANCH   4   7
ATOM      7  C9  non d ame     -31.731   9.727  24.690  0.00  0.00     0.092 C 
ATOM      8  H11 non d ame     -31.010   9.014  25.091  0.00  0.00     0.088 H 
BRANCH   7   9
ATOM      9  N3  non d ame     -33.041   9.378  25.248  0.00  0.00    -0.346 N 
ATOM     10  C7  non d ame     -33.132   8.445  26.344  0.00  0.00     0.240 C 
ATOM     11  O3  non d ame     -32.162   7.966  26.789  0.00  0.00    -0.271 OA
ATOM     12  H10 non d ame     -33.887   9.783  24.873  0.00  0.00     0.163 HD
BRANCH  10  13
ATOM     13  C6  non d ame     -34.530   8.075  26.931  0.00  0.00     0.086 C 
ATOM     14  H6  non d ame     -35.042   7.309  26.350  0.00  0.00     0.086 H 
BRANCH  13  15
ATOM     15  N2  non d ame     -34.351   7.532  28.268  0.00  0.00    -0.343 N 
ATOM     16  C5  non d ame     -34.739   6.147  28.541  0.00  0.00     0.273 C 
ATOM     17  O2  non d ame     -35.197   5.479  27.680  0.00  0.00    -0.266 OA
ATOM     18  H5  non d ame     -33.961   8.111  28.998  0.00  0.00     0.163 HD
BRANCH  16  19
ATOM     19  C4  non d ame     -34.554   5.559  29.949  0.00  0.00     0.154 A 
ATOM     20  C1  non d ame     -33.610   4.563  30.353  0.00  0.00    -0.017 A 
ATOM     21  C2  non d ame     -33.847   4.376  31.733  0.00  0.00     0.077 A 
ATOM     22  H1  non d ame     -32.866   4.054  29.739  0.00  0.00     0.091 H 
ATOM     23  O1  non d ame     -34.814   5.176  32.072  0.00  0.00    -0.218 OA
ATOM     24  N1  non d ame     -35.244   5.877  31.048  0.00  0.00    -0.123 NA
BRANCH  21  25
ATOM     25  C3  non d ame     -33.105   3.415  32.653  0.00  0.00    -0.029 C 
ATOM     26  H2  non d ame     -33.794   2.652  33.013  0.00  0.00     0.036 H 
ATOM     27  H3  non d ame     -32.293   2.940  32.103  0.00  0.00     0.036 H 
ATOM     28  H4  non d ame     -32.696   3.965  33.500  0.00  0.00     0.036 H 
ENDBRANCH  21  25
ENDBRANCH  16  19
ENDBRANCH  13  15
BRANCH  13  29
ATOM     29  C8  non d ame     -35.397   9.307  26.986  0.00  0.00    -0.049 C 
ATOM     30  H7  non d ame     -35.936   9.414  26.045  0.00  0.00     0.030 H 
ATOM     31  H8  non d ame     -36.110   9.213  27.805  0.00  0.00     0.030 H 
ATOM     32  H9  non d ame     -34.771  10.185  27.149  0.00  0.00     0.030 H 
ENDBRANCH  13  29
ENDBRANCH  10  13
ENDBRANCH   7   9
BRANCH   7  33
ATOM     33  C11 non d ame     -31.802   9.678  23.136  0.00  0.00    -0.033 C 
ATOM     34  H12 non d ame     -31.977  10.694  22.782  0.00  0.00     0.042 H 
BRANCH  33  35
ATOM     35  C12 non d ame     -30.452   9.193  22.521  0.00  0.00    -0.071 C 
ATOM     36  H13 non d ame     -30.313   9.653  21.542  0.00  0.00     0.028 H 
ATOM     37  H14 non d ame     -29.630   9.479  23.177  0.00  0.00     0.028 H 
ATOM     38  H15 non d ame     -30.471   8.109  22.412  0.00  0.00     0.028 H 
ENDBRANCH  33  35
BRANCH  33  39
ATOM     39  C13 non d ame     -32.994   8.788  22.659  0.00  0.00    -0.071 C 
ATOM     40  H16 non d ame     -32.757   8.353  21.687  0.00  0.00     0.028 H 
ATOM     41  H17 non d ame     -33.164   7.990  23.382  0.00  0.00     0.028 H 
ATOM     42  H18 non d ame     -33.893   9.398  22.574  0.00  0.00     0.028 H 
ENDBRANCH  33  39
ENDBRANCH   7  33
ENDBRANCH   4   7
ENDBRANCH   1   3
BRANCH   1  43
ATOM     43  C15 non d ame     -32.121  14.097  25.619  0.00  0.00     0.240 C 
ATOM     44  O5  non d ame     -33.283  14.037  25.378  0.00  0.00    -0.271 OA
ATOM     45  N6  non d ame     -31.662  14.630  26.934  0.00  0.00    -0.355 N 
ATOM     46  H46 non d ame     -30.678  14.681  27.152  0.00  0.00     0.162 HD
BRANCH  45  47
ATOM     47  C20 non d ame     -32.658  15.088  27.927  0.00  0.00     0.013 C 
ATOM     48  H30 non d ame     -33.639  14.736  27.605  0.00  0.00     0.072 H 
BRANCH  47  49
ATOM     49  C21 non d ame     -32.645  16.598  27.987  0.00  0.00    -0.038 C 
ATOM     50  H31 non d ame     -33.594  16.883  28.444  0.00  0.00     0.036 H 
ATOM     51  H32 non d ame     -31.705  16.865  28.470  0.00  0.00     0.036 H 
BRANCH  49  52
ATOM     52  C22 non d ame     -32.620  17.254  26.589  0.00  0.00     0.018 C 
ATOM     53  H33 non d ame     -31.666  16.967  26.146  0.00  0.00     0.048 H 
ATOM     54  H34 non d ame     -33.554  16.962  26.109  0.00  0.00     0.048 H 
BRANCH  52  55
ATOM     55  C23 non d ame     -32.624  18.807  26.626  0.00  0.00     0.259 C 
ATOM     56  O7  non d ame     -31.819  19.398  27.270  0.00  0.00    -0.265 OA
BRANCH  55  57
ATOM     57  O8  non d ame     -33.612  19.519  25.890  0.00  0.00    -0.317 OA
BRANCH  57  58
ATOM     58  C29 non d ame     -34.674  20.041  26.694  0.00  0.00     0.052 C 
ATOM     59  H47 non d ame     -34.233  20.241  27.670  0.00  0.00     0.082 H 
ATOM     60  H48 non d ame     -35.109  20.855  26.115  0.00  0.00     0.082 H 
BRANCH  58  61
ATOM     61  C35 non d ame     -35.743  18.928  26.856  0.00  0.00    -0.034 A 
ATOM     62  C30 non d ame     -36.098  18.483  28.126  0.00  0.00    -0.075 A 
ATOM     63  C31 non d ame     -37.059  17.483  28.272  0.00  0.00    -0.082 A 
ATOM     64  H49 non d ame     -35.624  18.918  29.006  0.00  0.00     0.084 H 
ATOM     65  C32 non d ame     -37.663  16.926  27.142  0.00  0.00    -0.083 A 
ATOM     66  H50 non d ame     -37.336  17.138  29.269  0.00  0.00     0.083 H 
ATOM     67  C33 non d ame     -37.303  17.370  25.877  0.00  0.00    -0.082 A 
ATOM     68  H51 non d ame     -38.415  16.144  27.248  0.00  0.00     0.083 H 
ATOM     69  C34 non d ame     -36.345  18.371  25.727  0.00  0.00    -0.075 A 
ATOM     70  H52 non d ame     -37.775  16.931  24.998  0.00  0.00     0.083 H 
ATOM     71  H53 non d ame     -36.068  18.715  24.730  0.00  0.00     0.084 H 
ENDBRANCH  58  61
ENDBRANCH  57  58
ENDBRANCH  55  57
ENDBRANCH  52  55
ENDBRANCH  49  52
ENDBRANCH  47  49
BRANCH  47  72
ATOM     72  C24 non d ame     -32.316  14.519  29.302  0.00  0.00    -0.039 C 
ATOM     73  H35 non d ame     -31.537  15.171  29.699  0.00  0.00     0.036 H 
ATOM     74  H36 non d ame     -33.268  14.428  29.824  0.00  0.00     0.036 H 
BRANCH  72  75
ATOM     75  C25 non d ame     -31.692  13.047  29.196  0.00  0.00    -0.001 C 
ATOM     76  C26 non d ame     -32.898  11.932  29.124  0.00  0.00    -0.035 C 
ATOM     77  C27 non d ame     -32.668  10.980  30.060  0.00  0.00     0.085 C 
ATOM     78  H38 non d ame     -33.840  12.379  29.441  0.00  0.00     0.036 H 
ATOM     79  H39 non d ame     -32.844  11.383  28.184  0.00  0.00     0.036 H 
ATOM     80  N5  non d ame     -31.598  11.515  30.980  0.00  0.00    -0.049 N 
ATOM     81  H40 non d ame     -33.601  10.887  30.615  0.00  0.00     0.075 H 
ATOM     82  H41 non d ame     -32.272  10.124  29.514  0.00  0.00     0.075 H 
ATOM     83  C28 non d ame     -30.948  12.780  30.218  0.00  0.00     0.193 C 
ATOM     84  H42 non d ame     -32.072  11.846  31.808  0.00  0.00     0.280 HD
ATOM     85  H43 non d ame     -30.898  10.790  31.055  0.00  0.00     0.280 HD
ATOM     86  H44 non d ame     -29.973  12.696  29.736  0.00  0.00     0.129 H 
ATOM     87  H37 non d ame     -30.911  12.983  28.438  0.00  0.00     0.046 H 
BRANCH  83  88
ATOM     88  O6  non d ame     -30.839  13.891  31.110  0.00  0.00    -0.369 OA
ATOM     89  H45 non d ame     -29.937  14.221  31.102  0.00  0.00     0.212 HD
ENDBRANCH  83  88
ENDBRANCH  72  75
ENDBRANCH  47  72
ENDBRANCH  45  47
ENDBRANCH   1  43
BRANCH   1  90
ATOM     90  C16 non d ame     -31.125  14.525  23.351  0.00  0.00    -0.035 C 
ATOM     91  H21 non d ame     -32.065  14.299  22.849  0.00  0.00     0.037 H 
ATOM     92  H22 non d ame     -30.941  15.527  23.739  0.00  0.00     0.037 H 
BRANCH  90  93
ATOM     93  C17 non d ame     -29.992  14.238  22.314  0.00  0.00    -0.059 C 
ATOM     94  H23 non d ame     -29.870  13.157  22.248  0.00  0.00     0.038 H 
BRANCH  93  95
ATOM     95  C18 non d ame     -30.351  14.765  20.888  0.00  0.00    -0.073 C 
ATOM     96  H24 non d ame     -29.440  15.065  20.371  0.00  0.00     0.028 H 
ATOM     97  H25 non d ame     -30.846  13.976  20.322  0.00  0.00     0.028 H 
ATOM     98  H26 non d ame     -31.019  15.622  20.975  0.00  0.00     0.028 H 
ENDBRANCH  93  95
BRANCH  93  99
ATOM     99  C19 non d ame     -28.657  14.818  22.789  0.00  0.00    -0.073 C 
ATOM    100  H27 non d ame     -28.072  14.035  23.273  0.00  0.00     0.028 H 
ATOM    101  H28 non d ame     -28.105  15.207  21.933  0.00  0.00     0.028 H 
ATOM    102  H29 non d ame     -28.843  15.624  23.498  0.00  0.00     0.028 H 
ENDBRANCH  93  99
ENDBRANCH  90  93
ENDBRANCH   1  90
TORSDOF 26
ENDMDL
MODEL 17
REMARK VINA RESULT:      -6.6      2.012      7.959
REMARK  26 active torsions:
REMARK  status: ('A' for Active; 'I' for Inactive)
REMARK    1  A    between atoms: C2_2  and  C3_3 
REMARK    2  A    between atoms: C4_6  and  C5_7 
REMARK       I    between atoms: C5_7  and  N2_9 
REMARK    3  A    between atoms: N2_9  and  C6_10 
REMARK    4  A    between atoms: C6_10  and  C7_11 
REMARK    5  A    between atoms: C6_10  and  C8_13 
REMARK       I    between atoms: C7_11  and  N3_14 
REMARK    6  A    between atoms: N3_14  and  C9_15 
REMARK    7  A    between atoms: C9_15  and  C10_16 
REMARK    8  A    between atoms: C9_15  and  C11_18 
REMARK       I    between atoms: C10_16  and  N4_21 
REMARK    9  A    between atoms: C11_18  and  C12_19 
REMARK   10  A    between atoms: C11_18  and  C13_20 
REMARK   11  A    between atoms: N4_21  and  C14_22 
REMARK   12  A    between atoms: C14_22  and  C15_23 
REMARK   13  A    between atoms: C14_22  and  C16_25 
REMARK       I    between atoms: C15_23  and  N6_40 
REMARK   14  A    between atoms: C16_25  and  C17_26 
REMARK   15  A    between atoms: C17_26  and  C18_27 
REMARK   16  A    between atoms: C17_26  and  C19_28 
REMARK   17  A    between atoms: C20_29  and  C21_30 
REMARK   18  A    between atoms: C20_29  and  C24_33 
REMARK   19  A    between atoms: C20_29  and  N6_40 
REMARK   20  A    between atoms: C21_30  and  C22_31 
REMARK   21  A    between atoms: C22_31  and  C23_32 
REMARK   22  A    between atoms: C23_32  and  O8_43 
REMARK   23  A    between atoms: C24_33  and  C25_34 
REMARK   24  A    between atoms: C28_38  and  O6_39 
REMARK   25  A    between atoms: C29_42  and  O8_43 
REMARK   26  A    between atoms: C29_42  and  C35_49 
ROOT
ATOM      1  C14 non d ame     -36.497  13.764  26.125  0.00  0.00     0.089 C 
ATOM      2  H20 non d ame     -37.189  13.725  26.967  0.00  0.00     0.087 H 
ENDROOT
BRANCH   1   3
ATOM      3  N4  non d ame     -36.189  15.164  25.874  0.00  0.00    -0.346 N 
ATOM      4  C10 non d ame     -36.969  16.251  26.569  0.00  0.00     0.241 C 
ATOM      5  O4  non d ame     -37.842  15.975  27.325  0.00  0.00    -0.271 OA
ATOM      6  H19 non d ame     -35.445  15.378  25.226  0.00  0.00     0.163 HD
BRANCH   4   7
ATOM      7  C9  non d ame     -36.634  17.695  26.302  0.00  0.00     0.092 C 
ATOM      8  H11 non d ame     -36.989  18.306  27.132  0.00  0.00     0.088 H 
BRANCH   7   9
ATOM      9  N3  non d ame     -35.178  17.855  26.238  0.00  0.00    -0.346 N 
ATOM     10  C7  non d ame     -34.410  17.951  27.456  0.00  0.00     0.240 C 
ATOM     11  O3  non d ame     -34.947  17.902  28.494  0.00  0.00    -0.271 OA
ATOM     12  H10 non d ame     -34.700  17.901  25.350  0.00  0.00     0.163 HD
BRANCH  10  13
ATOM     13  C6  non d ame     -32.861  18.124  27.382  0.00  0.00     0.086 C 
ATOM     14  H6  non d ame     -32.337  17.577  28.165  0.00  0.00     0.086 H 
BRANCH  13  15
ATOM     15  N2  non d ame     -32.387  17.592  26.115  0.00  0.00    -0.343 N 
ATOM     16  C5  non d ame     -31.943  16.199  26.038  0.00  0.00     0.273 C 
ATOM     17  O2  non d ame     -31.968  15.515  27.002  0.00  0.00    -0.266 OA
ATOM     18  H5  non d ame     -32.366  18.185  25.297  0.00  0.00     0.163 HD
BRANCH  16  19
ATOM     19  C4  non d ame     -31.441  15.623  24.705  0.00  0.00     0.154 A 
ATOM     20  C1  non d ame     -30.770  14.376  24.500  0.00  0.00    -0.017 A 
ATOM     21  C2  non d ame     -30.526  14.319  23.109  0.00  0.00     0.077 A 
ATOM     22  H1  non d ame     -30.502  13.627  25.245  0.00  0.00     0.091 H 
ATOM     23  O1  non d ame     -31.005  15.410  22.587  0.00  0.00    -0.218 OA
ATOM     24  N1  non d ame     -31.544  16.187  23.498  0.00  0.00    -0.123 NA
BRANCH  21  25
ATOM     25  C3  non d ame     -29.831  13.189  22.361  0.00  0.00    -0.029 C 
ATOM     26  H2  non d ame     -30.245  13.109  21.357  0.00  0.00     0.036 H 
ATOM     27  H3  non d ame     -28.763  13.398  22.299  0.00  0.00     0.036 H 
ATOM     28  H4  non d ame     -29.986  12.251  22.894  0.00  0.00     0.036 H 
ENDBRANCH  21  25
ENDBRANCH  16  19
ENDBRANCH  13  15
BRANCH  13  29
ATOM     29  C8  non d ame     -32.510  19.586  27.492  0.00  0.00    -0.049 C 
ATOM     30  H7  non d ame     -31.443  19.690  27.686  0.00  0.00     0.030 H 
ATOM     31  H8  non d ame     -32.760  20.091  26.559  0.00  0.00     0.030 H 
ATOM     32  H9  non d ame     -33.074  20.035  28.310  0.00  0.00     0.030 H 
ENDBRANCH  13  29
ENDBRANCH  10  13
ENDBRANCH   7   9
BRANCH   7  33
ATOM     33  C11 non d ame     -37.260  18.131  24.945  0.00  0.00    -0.033 C 
ATOM     34  H12 non d ame     -36.905  17.438  24.182  0.00  0.00     0.042 H 
BRANCH  33  35
ATOM     35  C12 non d ame     -38.817  18.032  24.980  0.00  0.00    -0.071 C 
ATOM     36  H13 non d ame     -39.158  18.023  26.015  0.00  0.00     0.028 H 
ATOM     37  H14 non d ame     -39.247  18.889  24.463  0.00  0.00     0.028 H 
ATOM     38  H15 non d ame     -39.134  17.113  24.487  0.00  0.00     0.028 H 
ENDBRANCH  33  35
BRANCH  33  39
ATOM     39  C13 non d ame     -36.793  19.568  24.549  0.00  0.00    -0.071 C 
ATOM     40  H16 non d ame     -36.725  19.641  23.463  0.00  0.00     0.028 H 
ATOM     41  H17 non d ame     -37.512  20.299  24.918  0.00  0.00     0.028 H 
ATOM     42  H18 non d ame     -35.816  19.767  24.989  0.00  0.00     0.028 H 
ENDBRANCH  33  39
ENDBRANCH   7  33
ENDBRANCH   4   7
ENDBRANCH   1   3
BRANCH   1  43
ATOM     43  C15 non d ame     -35.169  13.010  26.422  0.00  0.00     0.240 C 
ATOM     44  O5  non d ame     -34.189  13.274  25.803  0.00  0.00    -0.271 OA
ATOM     45  N6  non d ame     -35.116  11.966  27.485  0.00  0.00    -0.355 N 
ATOM     46  H46 non d ame     -35.941  11.738  28.021  0.00  0.00     0.162 HD
BRANCH  45  47
ATOM     47  C20 non d ame     -33.845  11.260  27.756  0.00  0.00     0.013 C 
ATOM     48  H30 non d ame     -33.034  11.862  27.348  0.00  0.00     0.072 H 
BRANCH  47  49
ATOM     49  C21 non d ame     -33.873   9.906  27.085  0.00  0.00    -0.038 C 
ATOM     50  H31 non d ame     -34.165   9.198  27.861  0.00  0.00     0.036 H 
ATOM     51  H32 non d ame     -34.495  10.030  26.198  0.00  0.00     0.036 H 
BRANCH  49  52
ATOM     52  C22 non d ame     -32.484   9.456  26.584  0.00  0.00     0.018 C 
ATOM     53  H33 non d ame     -31.848   9.422  27.468  0.00  0.00     0.048 H 
ATOM     54  H34 non d ame     -32.658   8.550  26.003  0.00  0.00     0.048 H 
BRANCH  52  55
ATOM     55  C23 non d ame     -31.812  10.465  25.612  0.00  0.00     0.259 C 
ATOM     56  O7  non d ame     -30.839  11.063  25.942  0.00  0.00    -0.265 OA
BRANCH  55  57
ATOM     57  O8  non d ame     -32.380  10.678  24.326  0.00  0.00    -0.317 OA
BRANCH  57  58
ATOM     58  C29 non d ame     -32.679   9.473  23.616  0.00  0.00     0.052 C 
ATOM     59  H47 non d ame     -33.134   8.805  24.347  0.00  0.00     0.082 H 
ATOM     60  H48 non d ame     -33.243   9.781  22.735  0.00  0.00     0.082 H 
BRANCH  58  61
ATOM     61  C35 non d ame     -31.339   8.847  23.146  0.00  0.00    -0.034 A 
ATOM     62  C30 non d ame     -31.104   7.488  23.325  0.00  0.00    -0.075 A 
ATOM     63  C31 non d ame     -29.900   6.926  22.903  0.00  0.00    -0.082 A 
ATOM     64  H49 non d ame     -31.863   6.862  23.795  0.00  0.00     0.084 H 
ATOM     65  C32 non d ame     -28.927   7.730  22.303  0.00  0.00    -0.083 A 
ATOM     66  H50 non d ame     -29.720   5.859  23.043  0.00  0.00     0.083 H 
ATOM     67  C33 non d ame     -29.164   9.086  22.130  0.00  0.00    -0.082 A 
ATOM     68  H51 non d ame     -27.983   7.298  21.970  0.00  0.00     0.083 H 
ATOM     69  C34 non d ame     -30.367   9.652  22.548  0.00  0.00    -0.075 A 
ATOM     70  H52 non d ame     -28.402   9.711  21.664  0.00  0.00     0.083 H 
ATOM     71  H53 non d ame     -30.547  10.718  22.408  0.00  0.00     0.084 H 
ENDBRANCH  58  61
ENDBRANCH  57  58
ENDBRANCH  55  57
ENDBRANCH  52  55
ENDBRANCH  49  52
ENDBRANCH  47  49
BRANCH  47  72
ATOM     72  C24 non d ame     -33.666  11.080  29.262  0.00  0.00    -0.039 C 
ATOM     73  H35 non d ame     -34.668  11.156  29.685  0.00  0.00     0.036 H 
ATOM     74  H36 non d ame     -33.095  10.158  29.378  0.00  0.00     0.036 H 
BRANCH  72  75
ATOM     75  C25 non d ame     -32.792  12.261  29.901  0.00  0.00    -0.001 C 
ATOM     76  C26 non d ame     -31.546  12.640  28.898  0.00  0.00    -0.035 C 
ATOM     77  C27 non d ame     -30.393  12.626  29.610  0.00  0.00     0.085 C 
ATOM     78  H38 non d ame     -31.402  11.847  28.164  0.00  0.00     0.036 H 
ATOM     79  H39 non d ame     -31.631  13.677  28.571  0.00  0.00     0.036 H 
ATOM     80  N5  non d ame     -30.696  11.955  30.927  0.00  0.00    -0.049 N 
ATOM     81  H40 non d ame     -29.707  12.000  29.040  0.00  0.00     0.075 H 
ATOM     82  H41 non d ame     -30.151  13.673  29.792  0.00  0.00     0.075 H 
ATOM     83  C28 non d ame     -32.306  11.915  31.046  0.00  0.00     0.193 C 
ATOM     84  H42 non d ame     -30.356  11.007  30.850  0.00  0.00     0.280 HD
ATOM     85  H43 non d ame     -30.335  12.564  31.648  0.00  0.00     0.280 HD
ATOM     86  H44 non d ame     -32.830  12.611  31.702  0.00  0.00     0.129 H 
ATOM     87  H37 non d ame     -33.410  13.085  30.258  0.00  0.00     0.046 H 
BRANCH  83  88
ATOM     88  O6  non d ame     -32.739  10.614  31.445  0.00  0.00    -0.369 OA
ATOM     89  H45 non d ame     -33.667  10.646  31.688  0.00  0.00     0.212 HD
ENDBRANCH  83  88
ENDBRANCH  72  75
ENDBRANCH  47  72
ENDBRANCH  45  47
ENDBRANCH   1  43
BRANCH   1  90
ATOM     90  C16 non d ame     -37.155  13.171  24.890  0.00  0.00    -0.035 C 
ATOM     91  H21 non d ame     -36.956  13.881  24.088  0.00  0.00     0.037 H 
ATOM     92  H22 non d ame     -36.776  12.151  24.822  0.00  0.00     0.037 H 
BRANCH  90  93
ATOM     93  C17 non d ame     -38.709  13.058  25.001  0.00  0.00    -0.059 C 
ATOM     94  H23 non d ame     -39.022  12.201  24.405  0.00  0.00     0.038 H 
BRANCH  93  95
ATOM     95  C18 non d ame     -39.179  12.814  26.471  0.00  0.00    -0.073 C 
ATOM     96  H24 non d ame     -40.191  12.413  26.467  0.00  0.00     0.028 H 
ATOM     97  H25 non d ame     -38.509  12.102  26.953  0.00  0.00     0.028 H 
ATOM     98  H26 non d ame     -39.163  13.756  27.019  0.00  0.00     0.028 H 
ENDBRANCH  93  95
BRANCH  93  99
ATOM     99  C19 non d ame     -39.391  14.295  24.410  0.00  0.00    -0.073 C 
ATOM    100  H27 non d ame     -39.548  14.148  23.341  0.00  0.00     0.028 H 
ATOM    101  H28 non d ame     -40.352  14.450  24.901  0.00  0.00     0.028 H 
ATOM    102  H29 non d ame     -38.759  15.169  24.568  0.00  0.00     0.028 H 
ENDBRANCH  93  99
ENDBRANCH  90  93
ENDBRANCH   1  90
TORSDOF 26
ENDMDL
MODEL 18
REMARK VINA RESULT:      -6.6      2.818      9.019
REMARK  26 active torsions:
REMARK  status: ('A' for Active; 'I' for Inactive)
REMARK    1  A    between atoms: C2_2  and  C3_3 
REMARK    2  A    between atoms: C4_6  and  C5_7 
REMARK       I    between atoms: C5_7  and  N2_9 
REMARK    3  A    between atoms: N2_9  and  C6_10 
REMARK    4  A    between atoms: C6_10  and  C7_11 
REMARK    5  A    between atoms: C6_10  and  C8_13 
REMARK       I    between atoms: C7_11  and  N3_14 
REMARK    6  A    between atoms: N3_14  and  C9_15 
REMARK    7  A    between atoms: C9_15  and  C10_16 
REMARK    8  A    between atoms: C9_15  and  C11_18 
REMARK       I    between atoms: C10_16  and  N4_21 
REMARK    9  A    between atoms: C11_18  and  C12_19 
REMARK   10  A    between atoms: C11_18  and  C13_20 
REMARK   11  A    between atoms: N4_21  and  C14_22 
REMARK   12  A    between atoms: C14_22  and  C15_23 
REMARK   13  A    between atoms: C14_22  and  C16_25 
REMARK       I    between atoms: C15_23  and  N6_40 
REMARK   14  A    between atoms: C16_25  and  C17_26 
REMARK   15  A    between atoms: C17_26  and  C18_27 
REMARK   16  A    between atoms: C17_26  and  C19_28 
REMARK   17  A    between atoms: C20_29  and  C21_30 
REMARK   18  A    between atoms: C20_29  and  C24_33 
REMARK   19  A    between atoms: C20_29  and  N6_40 
REMARK   20  A    between atoms: C21_30  and  C22_31 
REMARK   21  A    between atoms: C22_31  and  C23_32 
REMARK   22  A    between atoms: C23_32  and  O8_43 
REMARK   23  A    between atoms: C24_33  and  C25_34 
REMARK   24  A    between atoms: C28_38  and  O6_39 
REMARK   25  A    between atoms: C29_42  and  O8_43 
REMARK   26  A    between atoms: C29_42  and  C35_49 
ROOT
ATOM      1  C14 non d ame     -33.781   7.082  27.412  0.00  0.00     0.089 C 
ATOM      2  H20 non d ame     -33.355   6.835  28.385  0.00  0.00     0.087 H 
ENDROOT
BRANCH   1   3
ATOM      3  N4  non d ame     -34.156   8.488  27.443  0.00  0.00    -0.346 N 
ATOM      4  C10 non d ame     -34.317   9.205  28.760  0.00  0.00     0.241 C 
ATOM      5  O4  non d ame     -34.142   8.628  29.782  0.00  0.00    -0.271 OA
ATOM      6  H19 non d ame     -34.302   8.961  26.562  0.00  0.00     0.163 HD
BRANCH   4   7
ATOM      7  C9  non d ame     -34.699  10.662  28.773  0.00  0.00     0.092 C 
ATOM      8  H11 non d ame     -35.163  10.902  29.730  0.00  0.00     0.088 H 
BRANCH   7   9
ATOM      9  N3  non d ame     -33.492  11.485  28.657  0.00  0.00    -0.346 N 
ATOM     10  C7  non d ame     -32.834  11.970  29.846  0.00  0.00     0.240 C 
ATOM     11  O3  non d ame     -33.264  11.709  30.903  0.00  0.00    -0.271 OA
ATOM     12  H10 non d ame     -33.110  11.721  27.752  0.00  0.00     0.163 HD
BRANCH  10  13
ATOM     13  C6  non d ame     -31.551  12.849  29.716  0.00  0.00     0.086 C 
ATOM     14  H6  non d ame     -30.933  12.570  28.863  0.00  0.00     0.086 H 
BRANCH  13  15
ATOM     15  N2  non d ame     -31.946  14.232  29.509  0.00  0.00    -0.343 N 
ATOM     16  C5  non d ame     -32.104  14.740  28.144  0.00  0.00     0.273 C 
ATOM     17  O2  non d ame     -31.908  14.029  27.221  0.00  0.00    -0.266 OA
ATOM     18  H5  non d ame     -32.109  14.834  30.304  0.00  0.00     0.163 HD
BRANCH  16  19
ATOM     19  C4  non d ame     -32.523  16.200  27.910  0.00  0.00     0.154 A 
ATOM     20  C1  non d ame     -32.573  16.895  26.660  0.00  0.00    -0.017 A 
ATOM     21  C2  non d ame     -33.017  18.196  26.985  0.00  0.00     0.077 A 
ATOM     22  H1  non d ame     -32.325  16.514  25.669  0.00  0.00     0.091 H 
ATOM     23  O1  non d ame     -33.199  18.233  28.273  0.00  0.00    -0.218 OA
ATOM     24  N1  non d ame     -32.917  17.080  28.834  0.00  0.00    -0.123 NA
BRANCH  21  25
ATOM     25  C3  non d ame     -33.241  19.343  26.008  0.00  0.00    -0.029 C 
ATOM     26  H2  non d ame     -32.474  20.102  26.156  0.00  0.00     0.036 H 
ATOM     27  H3  non d ame     -33.186  18.966  24.987  0.00  0.00     0.036 H 
ATOM     28  H4  non d ame     -34.224  19.781  26.181  0.00  0.00     0.036 H 
ENDBRANCH  21  25
ENDBRANCH  16  19
ENDBRANCH  13  15
BRANCH  13  29
ATOM     29  C8  non d ame     -30.728  12.730  30.974  0.00  0.00    -0.049 C 
ATOM     30  H7  non d ame     -29.804  12.196  30.754  0.00  0.00     0.030 H 
ATOM     31  H8  non d ame     -30.492  13.726  31.349  0.00  0.00     0.030 H 
ATOM     32  H9  non d ame     -31.294  12.183  31.728  0.00  0.00     0.030 H 
ENDBRANCH  13  29
ENDBRANCH  10  13
ENDBRANCH   7   9
BRANCH   7  33
ATOM     33  C11 non d ame     -35.644  10.961  27.573  0.00  0.00    -0.033 C 
ATOM     34  H12 non d ame     -35.567  10.124  26.878  0.00  0.00     0.042 H 
BRANCH  33  35
ATOM     35  C12 non d ame     -37.133  11.054  28.031  0.00  0.00    -0.071 C 
ATOM     36  H13 non d ame     -37.274  10.456  28.932  0.00  0.00     0.028 H 
ATOM     37  H14 non d ame     -37.384  12.093  28.241  0.00  0.00     0.028 H 
ATOM     38  H15 non d ame     -37.781  10.677  27.240  0.00  0.00     0.028 H 
ENDBRANCH  33  35
BRANCH  33  39
ATOM     39  C13 non d ame     -35.201  12.256  26.821  0.00  0.00    -0.071 C 
ATOM     40  H16 non d ame     -36.045  12.657  26.258  0.00  0.00     0.028 H 
ATOM     41  H17 non d ame     -34.861  12.998  27.544  0.00  0.00     0.028 H 
ATOM     42  H18 non d ame     -34.387  12.019  26.136  0.00  0.00     0.028 H 
ENDBRANCH  33  39
ENDBRANCH   7  33
ENDBRANCH   4   7
ENDBRANCH   1   3
BRANCH   1  43
ATOM     43  C15 non d ame     -32.766   6.865  26.254  0.00  0.00     0.240 C 
ATOM     44  O5  non d ame     -31.842   6.134  26.407  0.00  0.00    -0.271 OA
ATOM     45  N6  non d ame     -32.951   7.563  24.949  0.00  0.00    -0.355 N 
ATOM     46  H46 non d ame     -33.735   8.183  24.806  0.00  0.00     0.162 HD
BRANCH  45  47
ATOM     47  C20 non d ame     -31.978   7.345  23.857  0.00  0.00     0.013 C 
ATOM     48  H30 non d ame     -31.155   6.752  24.255  0.00  0.00     0.072 H 
BRANCH  47  49
ATOM     49  C21 non d ame     -31.464   8.682  23.372  0.00  0.00    -0.038 C 
ATOM     50  H31 non d ame     -30.491   8.813  23.844  0.00  0.00     0.036 H 
ATOM     51  H32 non d ame     -31.543   8.650  22.285  0.00  0.00     0.036 H 
BRANCH  49  52
ATOM     52  C22 non d ame     -32.339   9.866  23.838  0.00  0.00     0.018 C 
ATOM     53  H33 non d ame     -32.379  10.553  22.994  0.00  0.00     0.048 H 
ATOM     54  H34 non d ame     -33.257   9.421  24.223  0.00  0.00     0.048 H 
BRANCH  52  55
ATOM     55  C23 non d ame     -31.726  10.671  25.017  0.00  0.00     0.259 C 
ATOM     56  O7  non d ame     -31.798  10.260  26.130  0.00  0.00    -0.265 OA
BRANCH  55  57
ATOM     57  O8  non d ame     -31.086  11.914  24.754  0.00  0.00    -0.317 OA
BRANCH  57  58
ATOM     58  C29 non d ame     -30.381  11.954  23.510  0.00  0.00     0.052 C 
ATOM     59  H47 non d ame     -29.345  11.718  23.751  0.00  0.00     0.082 H 
ATOM     60  H48 non d ame     -30.943  11.312  22.832  0.00  0.00     0.082 H 
BRANCH  58  61
ATOM     61  C35 non d ame     -30.441  13.409  22.973  0.00  0.00    -0.034 A 
ATOM     62  C30 non d ame     -29.748  13.753  21.816  0.00  0.00    -0.075 A 
ATOM     63  C31 non d ame     -29.802  15.060  21.333  0.00  0.00    -0.082 A 
ATOM     64  H49 non d ame     -29.163  13.000  21.289  0.00  0.00     0.084 H 
ATOM     65  C32 non d ame     -30.550  16.025  22.013  0.00  0.00    -0.083 A 
ATOM     66  H50 non d ame     -29.259  15.326  20.426  0.00  0.00     0.083 H 
ATOM     67  C33 non d ame     -31.237  15.677  23.168  0.00  0.00    -0.082 A 
ATOM     68  H51 non d ame     -30.598  17.048  21.641  0.00  0.00     0.083 H 
ATOM     69  C34 non d ame     -31.188  14.372  23.653  0.00  0.00    -0.075 A 
ATOM     70  H52 non d ame     -31.819  16.433  23.697  0.00  0.00     0.083 H 
ATOM     71  H53 non d ame     -31.732  14.106  24.560  0.00  0.00     0.084 H 
ENDBRANCH  58  61
ENDBRANCH  57  58
ENDBRANCH  55  57
ENDBRANCH  52  55
ENDBRANCH  49  52
ENDBRANCH  47  49
BRANCH  47  72
ATOM     72  C24 non d ame     -32.654   6.608  22.703  0.00  0.00    -0.039 C 
ATOM     73  H35 non d ame     -31.982   5.788  22.450  0.00  0.00     0.036 H 
ATOM     74  H36 non d ame     -33.666   6.397  23.046  0.00  0.00     0.036 H 
BRANCH  72  75
ATOM     75  C25 non d ame     -32.779   7.534  21.401  0.00  0.00    -0.001 C 
ATOM     76  C26 non d ame     -34.330   8.054  21.232  0.00  0.00    -0.035 C 
ATOM     77  C27 non d ame     -34.745   7.786  19.970  0.00  0.00     0.085 C 
ATOM     78  H38 non d ame     -34.995   7.454  21.852  0.00  0.00     0.036 H 
ATOM     79  H39 non d ame     -34.368   9.143  21.286  0.00  0.00     0.036 H 
ATOM     80  N5  non d ame     -33.736   6.840  19.366  0.00  0.00    -0.049 N 
ATOM     81  H40 non d ame     -35.697   7.268  20.081  0.00  0.00     0.075 H 
ATOM     82  H41 non d ame     -34.700   8.738  19.441  0.00  0.00     0.075 H 
ATOM     83  C28 non d ame     -32.445   6.889  20.334  0.00  0.00     0.193 C 
ATOM     84  H42 non d ame     -34.142   5.917  19.418  0.00  0.00     0.280 HD
ATOM     85  H43 non d ame     -33.481   7.229  18.469  0.00  0.00     0.280 HD
ATOM     86  H44 non d ame     -31.553   7.441  20.040  0.00  0.00     0.129 H 
ATOM     87  H37 non d ame     -31.995   8.290  21.355  0.00  0.00     0.046 H 
BRANCH  83  88
ATOM     88  O6  non d ame     -31.996   5.564  20.624  0.00  0.00    -0.369 OA
ATOM     89  H45 non d ame     -31.418   5.582  21.391  0.00  0.00     0.212 HD
ENDBRANCH  83  88
ENDBRANCH  72  75
ENDBRANCH  47  72
ENDBRANCH  45  47
ENDBRANCH   1  43
BRANCH   1  90
ATOM     90  C16 non d ame     -35.025   6.243  27.166  0.00  0.00    -0.035 C 
ATOM     91  H21 non d ame     -35.850   6.954  27.130  0.00  0.00     0.037 H 
ATOM     92  H22 non d ame     -34.793   5.632  26.293  0.00  0.00     0.037 H 
BRANCH  90  93
ATOM     93  C17 non d ame     -35.350   5.249  28.326  0.00  0.00    -0.059 C 
ATOM     94  H23 non d ame     -35.806   4.363  27.885  0.00  0.00     0.038 H 
BRANCH  93  95
ATOM     95  C18 non d ame     -34.065   4.794  29.090  0.00  0.00    -0.073 C 
ATOM     96  H24 non d ame     -33.759   5.576  29.785  0.00  0.00     0.028 H 
ATOM     97  H25 non d ame     -34.275   3.879  29.643  0.00  0.00     0.028 H 
ATOM     98  H26 non d ame     -33.264   4.610  28.374  0.00  0.00     0.028 H 
ENDBRANCH  93  95
BRANCH  93  99
ATOM     99  C19 non d ame     -36.373   5.853  29.293  0.00  0.00    -0.073 C 
ATOM    100  H27 non d ame     -36.411   6.933  29.153  0.00  0.00     0.028 H 
ATOM    101  H28 non d ame     -37.356   5.426  29.095  0.00  0.00     0.028 H 
ATOM    102  H29 non d ame     -36.080   5.628  30.318  0.00  0.00     0.028 H 
ENDBRANCH  93  99
ENDBRANCH  90  93
ENDBRANCH   1  90
TORSDOF 26
ENDMDL
MODEL 19
REMARK VINA RESULT:      -6.6      3.526      9.339
REMARK  26 active torsions:
REMARK  status: ('A' for Active; 'I' for Inactive)
REMARK    1  A    between atoms: C2_2  and  C3_3 
REMARK    2  A    between atoms: C4_6  and  C5_7 
REMARK       I    between atoms: C5_7  and  N2_9 
REMARK    3  A    between atoms: N2_9  and  C6_10 
REMARK    4  A    between atoms: C6_10  and  C7_11 
REMARK    5  A    between atoms: C6_10  and  C8_13 
REMARK       I    between atoms: C7_11  and  N3_14 
REMARK    6  A    between atoms: N3_14  and  C9_15 
REMARK    7  A    between atoms: C9_15  and  C10_16 
REMARK    8  A    between atoms: C9_15  and  C11_18 
REMARK       I    between atoms: C10_16  and  N4_21 
REMARK    9  A    between atoms: C11_18  and  C12_19 
REMARK   10  A    between atoms: C11_18  and  C13_20 
REMARK   11  A    between atoms: N4_21  and  C14_22 
REMARK   12  A    between atoms: C14_22  and  C15_23 
REMARK   13  A    between atoms: C14_22  and  C16_25 
REMARK       I    between atoms: C15_23  and  N6_40 
REMARK   14  A    between atoms: C16_25  and  C17_26 
REMARK   15  A    between atoms: C17_26  and  C18_27 
REMARK   16  A    between atoms: C17_26  and  C19_28 
REMARK   17  A    between atoms: C20_29  and  C21_30 
REMARK   18  A    between atoms: C20_29  and  C24_33 
REMARK   19  A    between atoms: C20_29  and  N6_40 
REMARK   20  A    between atoms: C21_30  and  C22_31 
REMARK   21  A    between atoms: C22_31  and  C23_32 
REMARK   22  A    between atoms: C23_32  and  O8_43 
REMARK   23  A    between atoms: C24_33  and  C25_34 
REMARK   24  A    between atoms: C28_38  and  O6_39 
REMARK   25  A    between atoms: C29_42  and  O8_43 
REMARK   26  A    between atoms: C29_42  and  C35_49 
ROOT
ATOM      1  C14 non d ame     -34.863   8.425  31.289  0.00  0.00     0.089 C 
ATOM      2  H20 non d ame     -34.437   8.497  32.290  0.00  0.00     0.087 H 
ENDROOT
BRANCH   1   3
ATOM      3  N4  non d ame     -33.990   9.162  30.388  0.00  0.00    -0.346 N 
ATOM      4  C10 non d ame     -33.481  10.530  30.769  0.00  0.00     0.241 C 
ATOM      5  O4  non d ame     -33.790  11.017  31.806  0.00  0.00    -0.271 OA
ATOM      6  H19 non d ame     -33.741   8.731  29.509  0.00  0.00     0.163 HD
BRANCH   4   7
ATOM      7  C9  non d ame     -32.574  11.276  29.827  0.00  0.00     0.092 C 
ATOM      8  H11 non d ame     -31.909  10.568  29.333  0.00  0.00     0.088 H 
BRANCH   7   9
ATOM      9  N3  non d ame     -33.377  11.917  28.781  0.00  0.00    -0.346 N 
ATOM     10  C7  non d ame     -33.583  11.249  27.519  0.00  0.00     0.240 C 
ATOM     11  O3  non d ame     -33.109  10.195  27.329  0.00  0.00    -0.271 OA
ATOM     12  H10 non d ame     -33.790  12.826  28.930  0.00  0.00     0.163 HD
BRANCH  10  13
ATOM     13  C6  non d ame     -34.435  11.938  26.409  0.00  0.00     0.086 C 
ATOM     14  H6  non d ame     -35.136  12.670  26.809  0.00  0.00     0.086 H 
BRANCH  13  15
ATOM     15  N2  non d ame     -33.547  12.659  25.512  0.00  0.00    -0.343 N 
ATOM     16  C5  non d ame     -33.114  14.014  25.862  0.00  0.00     0.273 C 
ATOM     17  O2  non d ame     -33.489  14.515  26.865  0.00  0.00    -0.266 OA
ATOM     18  H5  non d ame     -33.234  12.224  24.656  0.00  0.00     0.163 HD
BRANCH  16  19
ATOM     19  C4  non d ame     -32.174  14.788  24.925  0.00  0.00     0.154 A 
ATOM     20  C1  non d ame     -31.100  14.255  24.145  0.00  0.00    -0.017 A 
ATOM     21  C2  non d ame     -30.557  15.368  23.465  0.00  0.00     0.077 A 
ATOM     22  H1  non d ame     -30.765  13.219  24.081  0.00  0.00     0.091 H 
ATOM     23  O1  non d ame     -31.246  16.412  23.819  0.00  0.00    -0.218 OA
ATOM     24  N1  non d ame     -32.196  16.099  24.671  0.00  0.00    -0.123 NA
BRANCH  21  25
ATOM     25  C3  non d ame     -29.381  15.347  22.496  0.00  0.00    -0.029 C 
ATOM     26  H2  non d ame     -29.135  14.316  22.246  0.00  0.00     0.036 H 
ATOM     27  H3  non d ame     -29.650  15.887  21.589  0.00  0.00     0.036 H 
ATOM     28  H4  non d ame     -28.519  15.825  22.961  0.00  0.00     0.036 H 
ENDBRANCH  21  25
ENDBRANCH  16  19
ENDBRANCH  13  15
BRANCH  13  29
ATOM     29  C8  non d ame     -35.206  10.893  25.642  0.00  0.00    -0.049 C 
ATOM     30  H7  non d ame     -36.052  11.361  25.140  0.00  0.00     0.030 H 
ATOM     31  H8  non d ame     -34.553  10.432  24.901  0.00  0.00     0.030 H 
ATOM     32  H9  non d ame     -35.569  10.130  26.331  0.00  0.00     0.030 H 
ENDBRANCH  13  29
ENDBRANCH  10  13
ENDBRANCH   7   9
BRANCH   7  33
ATOM     33  C11 non d ame     -31.790  12.365  30.615  0.00  0.00    -0.033 C 
ATOM     34  H12 non d ame     -32.328  12.549  31.545  0.00  0.00     0.042 H 
BRANCH  33  35
ATOM     35  C12 non d ame     -30.358  11.873  30.993  0.00  0.00    -0.071 C 
ATOM     36  H13 non d ame     -29.739  12.728  31.266  0.00  0.00     0.028 H 
ATOM     37  H14 non d ame     -30.420  11.185  31.836  0.00  0.00     0.028 H 
ATOM     38  H15 non d ame     -29.913  11.361  30.139  0.00  0.00     0.028 H 
ENDBRANCH  33  35
BRANCH  33  39
ATOM     39  C13 non d ame     -31.735  13.705  29.815  0.00  0.00    -0.071 C 
ATOM     40  H16 non d ame     -32.733  14.141  29.768  0.00  0.00     0.028 H 
ATOM     41  H17 non d ame     -31.058  14.399  30.313  0.00  0.00     0.028 H 
ATOM     42  H18 non d ame     -31.375  13.511  28.804  0.00  0.00     0.028 H 
ENDBRANCH  33  39
ENDBRANCH   7  33
ENDBRANCH   4   7
ENDBRANCH   1   3
BRANCH   1  43
ATOM     43  C15 non d ame     -34.957   6.953  30.795  0.00  0.00     0.240 C 
ATOM     44  O5  non d ame     -35.456   6.127  31.488  0.00  0.00    -0.271 OA
ATOM     45  N6  non d ame     -34.432   6.575  29.451  0.00  0.00    -0.355 N 
ATOM     46  H46 non d ame     -34.011   7.269  28.851  0.00  0.00     0.162 HD
BRANCH  45  47
ATOM     47  C20 non d ame     -34.530   5.172  28.995  0.00  0.00     0.013 C 
ATOM     48  H30 non d ame     -34.842   4.564  29.844  0.00  0.00     0.072 H 
BRANCH  47  49
ATOM     49  C21 non d ame     -33.178   4.712  28.499  0.00  0.00    -0.038 C 
ATOM     50  H31 non d ame     -32.453   5.392  28.948  0.00  0.00     0.036 H 
ATOM     51  H32 non d ame     -33.132   3.645  28.716  0.00  0.00     0.036 H 
BRANCH  49  52
ATOM     52  C22 non d ame     -33.021   4.854  26.969  0.00  0.00     0.018 C 
ATOM     53  H33 non d ame     -32.420   4.002  26.654  0.00  0.00     0.048 H 
ATOM     54  H34 non d ame     -34.030   4.984  26.579  0.00  0.00     0.048 H 
BRANCH  52  55
ATOM     55  C23 non d ame     -32.228   6.119  26.536  0.00  0.00     0.259 C 
ATOM     56  O7  non d ame     -32.093   7.032  27.284  0.00  0.00    -0.265 OA
BRANCH  55  57
ATOM     57  O8  non d ame     -31.676   6.180  25.227  0.00  0.00    -0.317 OA
BRANCH  57  58
ATOM     58  C29 non d ame     -32.511   6.842  24.272  0.00  0.00     0.052 C 
ATOM     59  H47 non d ame     -32.647   6.132  23.457  0.00  0.00     0.082 H 
ATOM     60  H48 non d ame     -33.375   7.199  24.833  0.00  0.00     0.082 H 
BRANCH  58  61
ATOM     61  C35 non d ame     -31.737   8.072  23.729  0.00  0.00    -0.034 A 
ATOM     62  C30 non d ame     -32.059   9.350  24.173  0.00  0.00    -0.075 A 
ATOM     63  C31 non d ame     -31.363  10.455  23.684  0.00  0.00    -0.082 A 
ATOM     64  H49 non d ame     -32.857   9.487  24.903  0.00  0.00     0.084 H 
ATOM     65  C32 non d ame     -30.343  10.278  22.745  0.00  0.00    -0.083 A 
ATOM     66  H50 non d ame     -31.617  11.456  24.035  0.00  0.00     0.083 H 
ATOM     67  C33 non d ame     -30.027   9.001  22.303  0.00  0.00    -0.082 A 
ATOM     68  H51 non d ame     -29.794  11.136  22.359  0.00  0.00     0.083 H 
ATOM     69  C34 non d ame     -30.719   7.894  22.790  0.00  0.00    -0.075 A 
ATOM     70  H52 non d ame     -29.232   8.866  21.569  0.00  0.00     0.083 H 
ATOM     71  H53 non d ame     -30.464   6.893  22.438  0.00  0.00     0.084 H 
ENDBRANCH  58  61
ENDBRANCH  57  58
ENDBRANCH  55  57
ENDBRANCH  52  55
ENDBRANCH  49  52
ENDBRANCH  47  49
BRANCH  47  72
ATOM     72  C24 non d ame     -35.551   5.066  27.864  0.00  0.00    -0.039 C 
ATOM     73  H35 non d ame     -35.089   5.560  27.009  0.00  0.00     0.036 H 
ATOM     74  H36 non d ame     -35.812   4.010  27.807  0.00  0.00     0.036 H 
BRANCH  72  75
ATOM     75  C25 non d ame     -36.896   5.868  28.203  0.00  0.00    -0.001 C 
ATOM     76  C26 non d ame     -37.877   4.944  29.144  0.00  0.00    -0.035 C 
ATOM     77  C27 non d ame     -39.112   4.911  28.587  0.00  0.00     0.085 C 
ATOM     78  H38 non d ame     -37.555   3.903  29.110  0.00  0.00     0.036 H 
ATOM     79  H39 non d ame     -38.044   5.432  30.104  0.00  0.00     0.036 H 
ATOM     80  N5  non d ame     -38.978   5.457  27.186  0.00  0.00    -0.049 N 
ATOM     81  H40 non d ame     -39.379   3.856  28.534  0.00  0.00     0.075 H 
ATOM     82  H41 non d ame     -39.716   5.598  29.179  0.00  0.00     0.075 H 
ATOM     83  C28 non d ame     -37.537   6.182  27.127  0.00  0.00     0.193 C 
ATOM     84  H42 non d ame     -38.962   4.658  26.568  0.00  0.00     0.280 HD
ATOM     85  H43 non d ame     -39.697   6.160  27.084  0.00  0.00     0.280 HD
ATOM     86  H44 non d ame     -37.462   7.269  27.160  0.00  0.00     0.129 H 
ATOM     87  H37 non d ame     -36.696   6.885  28.543  0.00  0.00     0.046 H 
BRANCH  83  88
ATOM     88  O6  non d ame     -36.835   5.787  25.947  0.00  0.00    -0.369 OA
ATOM     89  H45 non d ame     -36.011   6.276  25.885  0.00  0.00     0.212 HD
ENDBRANCH  83  88
ENDBRANCH  72  75
ENDBRANCH  47  72
ENDBRANCH  45  47
ENDBRANCH   1  43
BRANCH   1  90
ATOM     90  C16 non d ame     -36.245   9.059  31.271  0.00  0.00    -0.035 C 
ATOM     91  H21 non d ame     -36.838   8.479  31.977  0.00  0.00     0.037 H 
ATOM     92  H22 non d ame     -36.077  10.122  31.445  0.00  0.00     0.037 H 
BRANCH  90  93
ATOM     93  C17 non d ame     -36.968   8.947  29.891  0.00  0.00    -0.059 C 
ATOM     94  H23 non d ame     -36.457   8.179  29.311  0.00  0.00     0.038 H 
BRANCH  93  95
ATOM     95  C18 non d ame     -38.462   8.515  30.042  0.00  0.00    -0.073 C 
ATOM     96  H24 non d ame     -39.083   9.399  30.181  0.00  0.00     0.028 H 
ATOM     97  H25 non d ame     -38.780   7.987  29.143  0.00  0.00     0.028 H 
ATOM     98  H26 non d ame     -38.565   7.859  30.905  0.00  0.00     0.028 H 
ENDBRANCH  93  95
BRANCH  93  99
ATOM     99  C19 non d ame     -36.856  10.257  29.107  0.00  0.00    -0.073 C 
ATOM    100  H27 non d ame     -37.682  10.915  29.378  0.00  0.00     0.028 H 
ATOM    101  H28 non d ame     -35.911  10.745  29.346  0.00  0.00     0.028 H 
ATOM    102  H29 non d ame     -36.895  10.046  28.039  0.00  0.00     0.028 H 
ENDBRANCH  93  99
ENDBRANCH  90  93
ENDBRANCH   1  90
TORSDOF 26
ENDMDL
MODEL 20
REMARK VINA RESULT:      -6.5      2.318      7.358
REMARK  26 active torsions:
REMARK  status: ('A' for Active; 'I' for Inactive)
REMARK    1  A    between atoms: C2_2  and  C3_3 
REMARK    2  A    between atoms: C4_6  and  C5_7 
REMARK       I    between atoms: C5_7  and  N2_9 
REMARK    3  A    between atoms: N2_9  and  C6_10 
REMARK    4  A    between atoms: C6_10  and  C7_11 
REMARK    5  A    between atoms: C6_10  and  C8_13 
REMARK       I    between atoms: C7_11  and  N3_14 
REMARK    6  A    between atoms: N3_14  and  C9_15 
REMARK    7  A    between atoms: C9_15  and  C10_16 
REMARK    8  A    between atoms: C9_15  and  C11_18 
REMARK       I    between atoms: C10_16  and  N4_21 
REMARK    9  A    between atoms: C11_18  and  C12_19 
REMARK   10  A    between atoms: C11_18  and  C13_20 
REMARK   11  A    between atoms: N4_21  and  C14_22 
REMARK   12  A    between atoms: C14_22  and  C15_23 
REMARK   13  A    between atoms: C14_22  and  C16_25 
REMARK       I    between atoms: C15_23  and  N6_40 
REMARK   14  A    between atoms: C16_25  and  C17_26 
REMARK   15  A    between atoms: C17_26  and  C18_27 
REMARK   16  A    between atoms: C17_26  and  C19_28 
REMARK   17  A    between atoms: C20_29  and  C21_30 
REMARK   18  A    between atoms: C20_29  and  C24_33 
REMARK   19  A    between atoms: C20_29  and  N6_40 
REMARK   20  A    between atoms: C21_30  and  C22_31 
REMARK   21  A    between atoms: C22_31  and  C23_32 
REMARK   22  A    between atoms: C23_32  and  O8_43 
REMARK   23  A    between atoms: C24_33  and  C25_34 
REMARK   24  A    between atoms: C28_38  and  O6_39 
REMARK   25  A    between atoms: C29_42  and  O8_43 
REMARK   26  A    between atoms: C29_42  and  C35_49 
ROOT
ATOM      1  C14 non d ame     -36.172  13.406  26.456  0.00  0.00     0.089 C 
ATOM      2  H20 non d ame     -36.762  13.311  27.368  0.00  0.00     0.087 H 
ENDROOT
BRANCH   1   3
ATOM      3  N4  non d ame     -35.895  14.821  26.260  0.00  0.00    -0.346 N 
ATOM      4  C10 non d ame     -36.913  15.859  26.661  0.00  0.00     0.241 C 
ATOM      5  O4  non d ame     -37.949  15.531  27.137  0.00  0.00    -0.271 OA
ATOM      6  H19 non d ame     -35.009  15.079  25.850  0.00  0.00     0.163 HD
BRANCH   4   7
ATOM      7  C9  non d ame     -36.607  17.320  26.455  0.00  0.00     0.092 C 
ATOM      8  H11 non d ame     -36.846  17.868  27.367  0.00  0.00     0.088 H 
BRANCH   7   9
ATOM      9  N3  non d ame     -35.172  17.489  26.211  0.00  0.00    -0.346 N 
ATOM     10  C7  non d ame     -34.287  17.803  27.307  0.00  0.00     0.240 C 
ATOM     11  O3  non d ame     -34.714  17.924  28.390  0.00  0.00    -0.271 OA
ATOM     12  H10 non d ame     -34.789  17.390  25.282  0.00  0.00     0.163 HD
BRANCH  10  13
ATOM     13  C6  non d ame     -32.760  17.986  27.041  0.00  0.00     0.086 C 
ATOM     14  H6  non d ame     -32.140  17.475  27.777  0.00  0.00     0.086 H 
BRANCH  13  15
ATOM     15  N2  non d ame     -32.435  17.406  25.748  0.00  0.00    -0.343 N 
ATOM     16  C5  non d ame     -31.786  16.095  25.688  0.00  0.00     0.273 C 
ATOM     17  O2  non d ame     -31.528  15.515  26.686  0.00  0.00    -0.266 OA
ATOM     18  H5  non d ame     -32.657  17.910  24.901  0.00  0.00     0.163 HD
BRANCH  16  19
ATOM     19  C4  non d ame     -31.438  15.469  24.329  0.00  0.00     0.154 A 
ATOM     20  C1  non d ame     -31.347  16.139  23.067  0.00  0.00    -0.017 A 
ATOM     21  C2  non d ame     -31.000  15.127  22.143  0.00  0.00     0.077 A 
ATOM     22  H1  non d ame     -31.508  17.196  22.854  0.00  0.00     0.091 H 
ATOM     23  O1  non d ame     -30.904  14.013  22.807  0.00  0.00    -0.218 OA
ATOM     24  N1  non d ame     -31.155  14.187  24.084  0.00  0.00    -0.123 NA
BRANCH  21  25
ATOM     25  C3  non d ame     -30.779  15.310  20.648  0.00  0.00    -0.029 C 
ATOM     26  H2  non d ame     -31.209  16.259  20.330  0.00  0.00     0.036 H 
ATOM     27  H3  non d ame     -29.710  15.306  20.436  0.00  0.00     0.036 H 
ATOM     28  H4  non d ame     -31.259  14.494  20.107  0.00  0.00     0.036 H 
ENDBRANCH  21  25
ENDBRANCH  16  19
ENDBRANCH  13  15
BRANCH  13  29
ATOM     29  C8  non d ame     -32.418  19.454  27.050  0.00  0.00    -0.049 C 
ATOM     30  H7  non d ame     -32.026  19.729  28.029  0.00  0.00     0.030 H 
ATOM     31  H8  non d ame     -31.666  19.656  26.287  0.00  0.00     0.030 H 
ATOM     32  H9  non d ame     -33.315  20.038  26.840  0.00  0.00     0.030 H 
ENDBRANCH  13  29
ENDBRANCH  10  13
ENDBRANCH   7   9
BRANCH   7  33
ATOM     33  C11 non d ame     -37.405  17.849  25.227  0.00  0.00    -0.033 C 
ATOM     34  H12 non d ame     -38.445  17.960  25.534  0.00  0.00     0.042 H 
BRANCH  33  35
ATOM     35  C12 non d ame     -36.895  19.254  24.781  0.00  0.00    -0.071 C 
ATOM     36  H13 non d ame     -37.041  19.968  25.591  0.00  0.00     0.028 H 
ATOM     37  H14 non d ame     -35.835  19.195  24.536  0.00  0.00     0.028 H 
ATOM     38  H15 non d ame     -37.453  19.581  23.903  0.00  0.00     0.028 H 
ENDBRANCH  33  35
BRANCH  33  39
ATOM     39  C13 non d ame     -37.357  16.827  24.046  0.00  0.00    -0.071 C 
ATOM     40  H16 non d ame     -38.359  16.442  23.857  0.00  0.00     0.028 H 
ATOM     41  H17 non d ame     -36.982  17.324  23.151  0.00  0.00     0.028 H 
ATOM     42  H18 non d ame     -36.693  16.002  24.307  0.00  0.00     0.028 H 
ENDBRANCH  33  39
ENDBRANCH   7  33
ENDBRANCH   4   7
ENDBRANCH   1   3
BRANCH   1  43
ATOM     43  C15 non d ame     -34.819  12.645  26.551  0.00  0.00     0.240 C 
ATOM     44  O5  non d ame     -33.877  13.035  25.939  0.00  0.00    -0.271 OA
ATOM     45  N6  non d ame     -34.694  11.434  27.411  0.00  0.00    -0.355 N 
ATOM     46  H46 non d ame     -35.485  11.096  27.939  0.00  0.00     0.162 HD
BRANCH  45  47
ATOM     47  C20 non d ame     -33.400  10.722  27.491  0.00  0.00     0.013 C 
ATOM     48  H30 non d ame     -32.666  11.296  26.925  0.00  0.00     0.072 H 
BRANCH  47  49
ATOM     49  C21 non d ame     -33.551   9.342  26.893  0.00  0.00    -0.038 C 
ATOM     50  H31 non d ame     -34.585   9.052  27.079  0.00  0.00     0.036 H 
ATOM     51  H32 non d ame     -33.182   9.423  25.870  0.00  0.00     0.036 H 
BRANCH  49  52
ATOM     52  C22 non d ame     -32.668   8.286  27.593  0.00  0.00     0.018 C 
ATOM     53  H33 non d ame     -31.802   8.149  26.946  0.00  0.00     0.048 H 
ATOM     54  H34 non d ame     -32.535   8.642  28.614  0.00  0.00     0.048 H 
BRANCH  52  55
ATOM     55  C23 non d ame     -33.338   6.889  27.711  0.00  0.00     0.259 C 
ATOM     56  O7  non d ame     -32.709   5.900  27.515  0.00  0.00    -0.265 OA
BRANCH  55  57
ATOM     57  O8  non d ame     -34.718   6.804  28.044  0.00  0.00    -0.317 OA
BRANCH  57  58
ATOM     58  C29 non d ame     -34.968   6.451  29.407  0.00  0.00     0.052 C 
ATOM     59  H47 non d ame     -35.826   5.779  29.386  0.00  0.00     0.082 H 
ATOM     60  H48 non d ame     -34.013   6.103  29.801  0.00  0.00     0.082 H 
BRANCH  58  61
ATOM     61  C35 non d ame     -35.372   7.741  30.169  0.00  0.00    -0.034 A 
ATOM     62  C30 non d ame     -36.081   8.743  29.515  0.00  0.00    -0.075 A 
ATOM     63  C31 non d ame     -36.444   9.902  30.200  0.00  0.00    -0.082 A 
ATOM     64  H49 non d ame     -36.353   8.621  28.467  0.00  0.00     0.084 H 
ATOM     65  C32 non d ame     -36.093  10.058  31.543  0.00  0.00    -0.083 A 
ATOM     66  H50 non d ame     -37.001  10.685  29.685  0.00  0.00     0.083 H 
ATOM     67  C33 non d ame     -35.382   9.057  32.191  0.00  0.00    -0.082 A 
ATOM     68  H51 non d ame     -36.373  10.961  32.086  0.00  0.00     0.083 H 
ATOM     69  C34 non d ame     -35.019   7.896  31.511  0.00  0.00    -0.075 A 
ATOM     70  H52 non d ame     -35.107   9.183  33.239  0.00  0.00     0.083 H 
ATOM     71  H53 non d ame     -34.462   7.113  32.027  0.00  0.00     0.084 H 
ENDBRANCH  58  61
ENDBRANCH  57  58
ENDBRANCH  55  57
ENDBRANCH  52  55
ENDBRANCH  49  52
ENDBRANCH  47  49
BRANCH  47  72
ATOM     72  C24 non d ame     -32.967  10.601  28.951  0.00  0.00    -0.039 C 
ATOM     73  H35 non d ame     -33.738  10.001  29.433  0.00  0.00     0.036 H 
ATOM     74  H36 non d ame     -31.938  10.242  28.919  0.00  0.00     0.036 H 
BRANCH  72  75
ATOM     75  C25 non d ame     -32.948  12.025  29.684  0.00  0.00    -0.001 C 
ATOM     76  C26 non d ame     -31.860  13.017  28.953  0.00  0.00    -0.035 C 
ATOM     77  C27 non d ame     -31.038  13.535  29.897  0.00  0.00     0.085 C 
ATOM     78  H38 non d ame     -31.188  12.435  28.322  0.00  0.00     0.036 H 
ATOM     79  H39 non d ame     -32.366  13.893  28.547  0.00  0.00     0.036 H 
ATOM     80  N5  non d ame     -31.257  12.736  31.159  0.00  0.00    -0.049 N 
ATOM     81  H40 non d ame     -30.027  13.355  29.533  0.00  0.00     0.075 H 
ATOM     82  H41 non d ame     -31.386  14.555  30.058  0.00  0.00     0.075 H 
ATOM     83  C28 non d ame     -32.622  11.906  30.928  0.00  0.00     0.193 C 
ATOM     84  H42 non d ame     -30.490  12.083  31.221  0.00  0.00     0.280 HD
ATOM     85  H43 non d ame     -31.410  13.407  31.899  0.00  0.00     0.280 HD
ATOM     86  H44 non d ame     -33.550  12.221  31.406  0.00  0.00     0.129 H 
ATOM     87  H37 non d ame     -33.951  12.421  29.843  0.00  0.00     0.046 H 
BRANCH  83  88
ATOM     88  O6  non d ame     -32.440  10.542  31.309  0.00  0.00    -0.369 OA
ATOM     89  H45 non d ame     -33.100   9.997  30.874  0.00  0.00     0.212 HD
ENDBRANCH  83  88
ENDBRANCH  72  75
ENDBRANCH  47  72
ENDBRANCH  45  47
ENDBRANCH   1  43
BRANCH   1  90
ATOM     90  C16 non d ame     -36.969  12.887  25.270  0.00  0.00    -0.035 C 
ATOM     91  H21 non d ame     -37.537  13.743  24.907  0.00  0.00     0.037 H 
ATOM     92  H22 non d ame     -36.239  12.402  24.622  0.00  0.00     0.037 H 
BRANCH  90  93
ATOM     93  C17 non d ame     -38.017  11.792  25.650  0.00  0.00    -0.059 C 
ATOM     94  H23 non d ame     -38.904  11.957  25.039  0.00  0.00     0.038 H 
BRANCH  93  95
ATOM     95  C18 non d ame     -37.495  10.350  25.354  0.00  0.00    -0.073 C 
ATOM     96  H24 non d ame     -36.417  10.377  25.199  0.00  0.00     0.028 H 
ATOM     97  H25 non d ame     -37.724   9.700  26.199  0.00  0.00     0.028 H 
ATOM     98  H26 non d ame     -37.981   9.965  24.458  0.00  0.00     0.028 H 
ENDBRANCH  93  95
BRANCH  93  99
ATOM     99  C19 non d ame     -38.442  11.928  27.114  0.00  0.00    -0.073 C 
ATOM    100  H27 non d ame     -38.812  12.938  27.294  0.00  0.00     0.028 H 
ATOM    101  H28 non d ame     -39.232  11.209  27.332  0.00  0.00     0.028 H 
ATOM    102  H29 non d ame     -37.587  11.733  27.761  0.00  0.00     0.028 H 
ENDBRANCH  93  99
ENDBRANCH  90  93
ENDBRANCH   1  90
TORSDOF 26
ENDMDL
