MODEL 1
REMARK VINA RESULT:      -7.1      0.000      0.000
REMARK  26 active torsions:
REMARK  status: ('A' for Active; 'I' for Inactive)
REMARK    1  A    between atoms: C2_2  and  C3_3 
REMARK    2  A    between atoms: C4_6  and  C5_7 
REMARK       I    between atoms: C5_7  and  N2_9 
REMARK    3  A    between atoms: N2_9  and  C6_10 
REMARK    4  A    between atoms: C6_10  and  C7_11 
REMARK    5  A    between atoms: C6_10  and  C8_13 
REMARK       I    between atoms: C7_11  and  N3_14 
REMARK    6  A    between atoms: N3_14  and  C9_15 
REMARK    7  A    between atoms: C9_15  and  C10_16 
REMARK    8  A    between atoms: C9_15  and  C11_18 
REMARK       I    between atoms: C10_16  and  N4_21 
REMARK    9  A    between atoms: C11_18  and  C12_19 
REMARK   10  A    between atoms: C11_18  and  C13_20 
REMARK   11  A    between atoms: N4_21  and  C14_22 
REMARK   12  A    between atoms: C14_22  and  C15_23 
REMARK   13  A    between atoms: C14_22  and  C16_25 
REMARK       I    between atoms: C15_23  and  N6_40 
REMARK   14  A    between atoms: C16_25  and  C17_26 
REMARK   15  A    between atoms: C17_26  and  C18_27 
REMARK   16  A    between atoms: C17_26  and  C19_28 
REMARK   17  A    between atoms: C20_29  and  C21_30 
REMARK   18  A    between atoms: C20_29  and  C24_33 
REMARK   19  A    between atoms: C20_29  and  N6_40 
REMARK   20  A    between atoms: C21_30  and  C22_31 
REMARK   21  A    between atoms: C22_31  and  C23_32 
REMARK   22  A    between atoms: C23_32  and  O8_43 
REMARK   23  A    between atoms: C24_33  and  C25_34 
REMARK   24  A    between atoms: C28_38  and  O6_39 
REMARK   25  A    between atoms: C29_42  and  O8_43 
REMARK   26  A    between atoms: C29_42  and  C35_49 
ROOT
ATOM      1  C14 non d ame     -30.806  14.483  23.740  0.00  0.00     0.089 C 
ATOM      2  H20 non d ame     -29.719  14.494  23.651  0.00  0.00     0.087 H 
ENDROOT
BRANCH   1   3
ATOM      3  N4  non d ame     -31.205  13.120  24.060  0.00  0.00    -0.346 N 
ATOM      4  C10 non d ame     -30.586  11.954  23.331  0.00  0.00     0.241 C 
ATOM      5  O4  non d ame     -29.770  12.137  22.489  0.00  0.00    -0.271 OA
ATOM      6  H19 non d ame     -31.902  12.986  24.779  0.00  0.00     0.163 HD
BRANCH   4   7
ATOM      7  C9  non d ame     -31.006  10.550  23.680  0.00  0.00     0.092 C 
ATOM      8  H11 non d ame     -30.459  10.221  24.563  0.00  0.00     0.088 H 
BRANCH   7   9
ATOM      9  N3  non d ame     -32.432  10.538  24.023  0.00  0.00    -0.346 N 
ATOM     10  C7  non d ame     -32.842  10.683  25.398  0.00  0.00     0.240 C 
ATOM     11  O3  non d ame     -32.039  10.809  26.241  0.00  0.00    -0.271 OA
ATOM     12  H10 non d ame     -33.136  10.429  23.308  0.00  0.00     0.163 HD
BRANCH  10  13
ATOM     13  C6  non d ame     -34.360  10.666  25.758  0.00  0.00     0.086 C 
ATOM     14  H6  non d ame     -34.540  10.515  26.823  0.00  0.00     0.086 H 
BRANCH  13  15
ATOM     15  N2  non d ame     -34.940  11.954  25.417  0.00  0.00    -0.343 N 
ATOM     16  C5  non d ame     -35.944  12.550  26.302  0.00  0.00     0.273 C 
ATOM     17  O2  non d ame     -36.281  11.983  27.283  0.00  0.00    -0.266 OA
ATOM     18  H5  non d ame     -34.649  12.430  24.575  0.00  0.00     0.163 HD
BRANCH  16  19
ATOM     19  C4  non d ame     -36.564  13.912  25.954  0.00  0.00     0.154 A 
ATOM     20  C1  non d ame     -36.703  14.493  24.654  0.00  0.00    -0.017 A 
ATOM     21  C2  non d ame     -37.330  15.739  24.877  0.00  0.00     0.077 A 
ATOM     22  H1  non d ame     -36.396  14.074  23.695  0.00  0.00     0.091 H 
ATOM     23  O1  non d ame     -37.525  15.851  26.159  0.00  0.00    -0.218 OA
ATOM     24  N1  non d ame     -37.086  14.797  26.808  0.00  0.00    -0.123 NA
BRANCH  21  25
ATOM     25  C3  non d ame     -37.708  16.762  23.814  0.00  0.00    -0.029 C 
ATOM     26  H2  non d ame     -38.470  16.340  23.159  0.00  0.00     0.036 H 
ATOM     27  H3  non d ame     -38.098  17.658  24.295  0.00  0.00     0.036 H 
ATOM     28  H4  non d ame     -36.826  17.019  23.227  0.00  0.00     0.036 H 
ENDBRANCH  21  25
ENDBRANCH  16  19
ENDBRANCH  13  15
BRANCH  13  29
ATOM     29  C8  non d ame     -35.050   9.569  24.988  0.00  0.00    -0.049 C 
ATOM     30  H7  non d ame     -35.341   8.771  25.672  0.00  0.00     0.030 H 
ATOM     31  H8  non d ame     -35.938   9.970  24.500  0.00  0.00     0.030 H 
ATOM     32  H9  non d ame     -34.370   9.171  24.234  0.00  0.00     0.030 H 
ENDBRANCH  13  29
ENDBRANCH  10  13
ENDBRANCH   7   9
BRANCH   7  33
ATOM     33  C11 non d ame     -30.762   9.618  22.457  0.00  0.00    -0.033 C 
ATOM     34  H12 non d ame     -30.654  10.251  21.577  0.00  0.00     0.042 H 
BRANCH  33  35
ATOM     35  C12 non d ame     -29.439   8.806  22.617  0.00  0.00    -0.071 C 
ATOM     36  H13 non d ame     -29.045   8.557  21.632  0.00  0.00     0.028 H 
ATOM     37  H14 non d ame     -28.709   9.405  23.160  0.00  0.00     0.028 H 
ATOM     38  H15 non d ame     -29.640   7.889  23.170  0.00  0.00     0.028 H 
ENDBRANCH  33  35
BRANCH  33  39
ATOM     39  C13 non d ame     -31.983   8.671  22.224  0.00  0.00    -0.071 C 
ATOM     40  H16 non d ame     -31.683   7.639  22.410  0.00  0.00     0.028 H 
ATOM     41  H17 non d ame     -32.790   8.944  22.904  0.00  0.00     0.028 H 
ATOM     42  H18 non d ame     -32.328   8.770  21.195  0.00  0.00     0.028 H 
ENDBRANCH  33  39
ENDBRANCH   7  33
ENDBRANCH   4   7
ENDBRANCH   1   3
BRANCH   1  43
ATOM     43  C15 non d ame     -31.313  15.426  24.868  0.00  0.00     0.240 C 
ATOM     44  O5  non d ame     -30.696  16.403  25.144  0.00  0.00    -0.271 OA
ATOM     45  N6  non d ame     -32.574  15.114  25.600  0.00  0.00    -0.355 N 
ATOM     46  H46 non d ame     -33.109  14.289  25.372  0.00  0.00     0.162 HD
BRANCH  45  47
ATOM     47  C20 non d ame     -33.044  16.021  26.669  0.00  0.00     0.013 C 
ATOM     48  H30 non d ame     -32.199  16.634  26.985  0.00  0.00     0.072 H 
BRANCH  47  49
ATOM     49  C21 non d ame     -33.550  15.201  27.834  0.00  0.00    -0.038 C 
ATOM     50  H31 non d ame     -33.188  15.706  28.730  0.00  0.00     0.036 H 
ATOM     51  H32 non d ame     -34.621  15.084  27.669  0.00  0.00     0.036 H 
BRANCH  49  52
ATOM     52  C22 non d ame     -32.956  13.776  27.867  0.00  0.00     0.018 C 
ATOM     53  H33 non d ame     -33.730  13.143  28.299  0.00  0.00     0.048 H 
ATOM     54  H34 non d ame     -32.596  13.583  26.856  0.00  0.00     0.048 H 
BRANCH  52  55
ATOM     55  C23 non d ame     -31.718  13.634  28.796  0.00  0.00     0.259 C 
ATOM     56  O7  non d ame     -30.619  13.748  28.359  0.00  0.00    -0.265 OA
BRANCH  55  57
ATOM     57  O8  non d ame     -31.913  13.353  30.177  0.00  0.00    -0.317 OA
BRANCH  57  58
ATOM     58  C29 non d ame     -31.531  12.029  30.561  0.00  0.00     0.052 C 
ATOM     59  H47 non d ame     -30.834  11.689  29.795  0.00  0.00     0.082 H 
ATOM     60  H48 non d ame     -31.205  12.105  31.598  0.00  0.00     0.082 H 
BRANCH  58  61
ATOM     61  C35 non d ame     -32.796  11.132  30.508  0.00  0.00    -0.034 A 
ATOM     62  C30 non d ame     -33.741  11.200  31.527  0.00  0.00    -0.075 A 
ATOM     63  C31 non d ame     -34.877  10.394  31.480  0.00  0.00    -0.082 A 
ATOM     64  H49 non d ame     -33.592  11.885  32.362  0.00  0.00     0.084 H 
ATOM     65  C32 non d ame     -35.065   9.514  30.410  0.00  0.00    -0.083 A 
ATOM     66  H50 non d ame     -35.617  10.450  32.279  0.00  0.00     0.083 H 
ATOM     67  C33 non d ame     -34.118   9.447  29.398  0.00  0.00    -0.082 A 
ATOM     68  H51 non d ame     -35.951   8.881  30.365  0.00  0.00     0.083 H 
ATOM     69  C34 non d ame     -32.982  10.253  29.440  0.00  0.00    -0.075 A 
ATOM     70  H52 non d ame     -34.266   8.759  28.566  0.00  0.00     0.083 H 
ATOM     71  H53 non d ame     -32.242  10.195  28.640  0.00  0.00     0.084 H 
ENDBRANCH  58  61
ENDBRANCH  57  58
ENDBRANCH  55  57
ENDBRANCH  52  55
ENDBRANCH  49  52
ENDBRANCH  47  49
BRANCH  47  72
ATOM     72  C24 non d ame     -34.172  16.904  26.139  0.00  0.00    -0.039 C 
ATOM     73  H35 non d ame     -34.359  16.557  25.123  0.00  0.00     0.036 H 
ATOM     74  H36 non d ame     -34.961  16.847  26.888  0.00  0.00     0.036 H 
BRANCH  72  75
ATOM     75  C25 non d ame     -33.726  18.439  26.039  0.00  0.00    -0.001 C 
ATOM     76  C26 non d ame     -32.513  18.741  27.108  0.00  0.00    -0.035 C 
ATOM     77  C27 non d ame     -32.844  19.827  27.848  0.00  0.00     0.085 C 
ATOM     78  H38 non d ame     -32.456  17.939  27.844  0.00  0.00     0.036 H 
ATOM     79  H39 non d ame     -31.616  19.058  26.577  0.00  0.00     0.036 H 
ATOM     80  N5  non d ame     -34.309  20.096  27.607  0.00  0.00    -0.049 N 
ATOM     81  H40 non d ame     -32.703  19.525  28.886  0.00  0.00     0.075 H 
ATOM     82  H41 non d ame     -32.259  20.648  27.436  0.00  0.00     0.075 H 
ATOM     83  C28 non d ame     -34.711  19.231  26.304  0.00  0.00     0.193 C 
ATOM     84  H42 non d ame     -34.804  19.724  28.405  0.00  0.00     0.280 HD
ATOM     85  H43 non d ame     -34.385  21.077  27.378  0.00  0.00     0.280 HD
ATOM     86  H44 non d ame     -34.842  19.715  25.336  0.00  0.00     0.129 H 
ATOM     87  H37 non d ame     -33.568  18.757  25.008  0.00  0.00     0.046 H 
BRANCH  83  88
ATOM     88  O6  non d ame     -35.926  18.518  26.541  0.00  0.00    -0.369 OA
ATOM     89  H45 non d ame     -35.733  17.703  27.011  0.00  0.00     0.212 HD
ENDBRANCH  83  88
ENDBRANCH  72  75
ENDBRANCH  47  72
ENDBRANCH  45  47
ENDBRANCH   1  43
BRANCH   1  90
ATOM     90  C16 non d ame     -31.434  14.886  22.416  0.00  0.00    -0.035 C 
ATOM     91  H21 non d ame     -31.618  13.951  21.887  0.00  0.00     0.037 H 
ATOM     92  H22 non d ame     -32.269  15.536  22.679  0.00  0.00     0.037 H 
BRANCH  90  93
ATOM     93  C17 non d ame     -30.488  15.729  21.504  0.00  0.00    -0.059 C 
ATOM     94  H23 non d ame     -30.761  16.777  21.623  0.00  0.00     0.038 H 
BRANCH  93  95
ATOM     95  C18 non d ame     -28.987  15.579  21.913  0.00  0.00    -0.073 C 
ATOM     96  H24 non d ame     -28.896  15.657  22.996  0.00  0.00     0.028 H 
ATOM     97  H25 non d ame     -28.617  14.607  21.586  0.00  0.00     0.028 H 
ATOM     98  H26 non d ame     -28.402  16.368  21.441  0.00  0.00     0.028 H 
ENDBRANCH  93  95
BRANCH  93  99
ATOM     99  C19 non d ame     -30.689  15.372  20.029  0.00  0.00    -0.073 C 
ATOM    100  H27 non d ame     -30.369  16.207  19.405  0.00  0.00     0.028 H 
ATOM    101  H28 non d ame     -30.097  14.489  19.784  0.00  0.00     0.028 H 
ATOM    102  H29 non d ame     -31.743  15.164  19.845  0.00  0.00     0.028 H 
ENDBRANCH  93  99
ENDBRANCH  90  93
ENDBRANCH   1  90
TORSDOF 26
ENDMDL
MODEL 2
REMARK VINA RESULT:      -7.1      1.466      2.046
REMARK  26 active torsions:
REMARK  status: ('A' for Active; 'I' for Inactive)
REMARK    1  A    between atoms: C2_2  and  C3_3 
REMARK    2  A    between atoms: C4_6  and  C5_7 
REMARK       I    between atoms: C5_7  and  N2_9 
REMARK    3  A    between atoms: N2_9  and  C6_10 
REMARK    4  A    between atoms: C6_10  and  C7_11 
REMARK    5  A    between atoms: C6_10  and  C8_13 
REMARK       I    between atoms: C7_11  and  N3_14 
REMARK    6  A    between atoms: N3_14  and  C9_15 
REMARK    7  A    between atoms: C9_15  and  C10_16 
REMARK    8  A    between atoms: C9_15  and  C11_18 
REMARK       I    between atoms: C10_16  and  N4_21 
REMARK    9  A    between atoms: C11_18  and  C12_19 
REMARK   10  A    between atoms: C11_18  and  C13_20 
REMARK   11  A    between atoms: N4_21  and  C14_22 
REMARK   12  A    between atoms: C14_22  and  C15_23 
REMARK   13  A    between atoms: C14_22  and  C16_25 
REMARK       I    between atoms: C15_23  and  N6_40 
REMARK   14  A    between atoms: C16_25  and  C17_26 
REMARK   15  A    between atoms: C17_26  and  C18_27 
REMARK   16  A    between atoms: C17_26  and  C19_28 
REMARK   17  A    between atoms: C20_29  and  C21_30 
REMARK   18  A    between atoms: C20_29  and  C24_33 
REMARK   19  A    between atoms: C20_29  and  N6_40 
REMARK   20  A    between atoms: C21_30  and  C22_31 
REMARK   21  A    between atoms: C22_31  and  C23_32 
REMARK   22  A    between atoms: C23_32  and  O8_43 
REMARK   23  A    between atoms: C24_33  and  C25_34 
REMARK   24  A    between atoms: C28_38  and  O6_39 
REMARK   25  A    between atoms: C29_42  and  O8_43 
REMARK   26  A    between atoms: C29_42  and  C35_49 
ROOT
ATOM      1  C14 non d ame     -31.132  14.054  24.412  0.00  0.00     0.089 C 
ATOM      2  H20 non d ame     -30.150  13.627  24.615  0.00  0.00     0.087 H 
ENDROOT
BRANCH   1   3
ATOM      3  N4  non d ame     -32.120  13.009  24.637  0.00  0.00    -0.346 N 
ATOM      4  C10 non d ame     -31.872  11.936  25.667  0.00  0.00     0.241 C 
ATOM      5  O4  non d ame     -30.869  11.934  26.301  0.00  0.00    -0.271 OA
ATOM      6  H19 non d ame     -32.966  13.028  24.085  0.00  0.00     0.163 HD
BRANCH   4   7
ATOM      7  C9  non d ame     -32.908  10.866  25.891  0.00  0.00     0.092 C 
ATOM      8  H11 non d ame     -33.066  10.739  26.961  0.00  0.00     0.088 H 
BRANCH   7   9
ATOM      9  N3  non d ame     -34.185  11.291  25.310  0.00  0.00    -0.346 N 
ATOM     10  C7  non d ame     -35.208  11.855  26.157  0.00  0.00     0.240 C 
ATOM     11  O3  non d ame     -35.021  11.972  27.306  0.00  0.00    -0.271 OA
ATOM     12  H10 non d ame     -34.361  11.195  24.321  0.00  0.00     0.163 HD
BRANCH  10  13
ATOM     13  C6  non d ame     -36.566  12.304  25.534  0.00  0.00     0.086 C 
ATOM     14  H6  non d ame     -37.420  12.066  26.168  0.00  0.00     0.086 H 
BRANCH  13  15
ATOM     15  N2  non d ame     -36.557  13.748  25.374  0.00  0.00    -0.343 N 
ATOM     16  C5  non d ame     -37.506  14.565  26.134  0.00  0.00     0.273 C 
ATOM     17  O2  non d ame     -38.275  14.049  26.870  0.00  0.00    -0.266 OA
ATOM     18  H5  non d ame     -35.899  14.180  24.740  0.00  0.00     0.163 HD
BRANCH  16  19
ATOM     19  C4  non d ame     -37.507  16.093  25.975  0.00  0.00     0.154 A 
ATOM     20  C1  non d ame     -37.109  16.843  24.823  0.00  0.00    -0.017 A 
ATOM     21  C2  non d ame     -37.297  18.195  25.187  0.00  0.00     0.077 A 
ATOM     22  H1  non d ame     -36.742  16.464  23.869  0.00  0.00     0.091 H 
ATOM     23  O1  non d ame     -37.750  18.209  26.406  0.00  0.00    -0.218 OA
ATOM     24  N1  non d ame     -37.881  16.994  26.888  0.00  0.00    -0.123 NA
BRANCH  21  25
ATOM     25  C3  non d ame     -37.020  19.411  24.313  0.00  0.00    -0.029 C 
ATOM     26  H2  non d ame     -36.341  20.086  24.833  0.00  0.00     0.036 H 
ATOM     27  H3  non d ame     -36.565  19.089  23.376  0.00  0.00     0.036 H 
ATOM     28  H4  non d ame     -37.956  19.928  24.102  0.00  0.00     0.036 H 
ENDBRANCH  21  25
ENDBRANCH  16  19
ENDBRANCH  13  15
BRANCH  13  29
ATOM     29  C8  non d ame     -36.753  11.637  24.195  0.00  0.00    -0.049 C 
ATOM     30  H7  non d ame     -37.760  11.835  23.828  0.00  0.00     0.030 H 
ATOM     31  H8  non d ame     -36.024  12.031  23.488  0.00  0.00     0.030 H 
ATOM     32  H9  non d ame     -36.611  10.561  24.302  0.00  0.00     0.030 H 
ENDBRANCH  13  29
ENDBRANCH  10  13
ENDBRANCH   7   9
BRANCH   7  33
ATOM     33  C11 non d ame     -32.445   9.546  25.206  0.00  0.00    -0.033 C 
ATOM     34  H12 non d ame     -31.406   9.375  25.490  0.00  0.00     0.042 H 
BRANCH  33  35
ATOM     35  C12 non d ame     -33.275   8.324  25.709  0.00  0.00    -0.071 C 
ATOM     36  H13 non d ame     -33.776   8.584  26.641  0.00  0.00     0.028 H 
ATOM     37  H14 non d ame     -34.018   8.057  24.959  0.00  0.00     0.028 H 
ATOM     38  H15 non d ame     -32.609   7.478  25.879  0.00  0.00     0.028 H 
ENDBRANCH  33  35
BRANCH  33  39
ATOM     39  C13 non d ame     -32.506   9.671  23.650  0.00  0.00    -0.071 C 
ATOM     40  H16 non d ame     -33.112   8.861  23.244  0.00  0.00     0.028 H 
ATOM     41  H17 non d ame     -32.952  10.629  23.380  0.00  0.00     0.028 H 
ATOM     42  H18 non d ame     -31.498   9.612  23.241  0.00  0.00     0.028 H 
ENDBRANCH  33  39
ENDBRANCH   7  33
ENDBRANCH   4   7
ENDBRANCH   1   3
BRANCH   1  43
ATOM     43  C15 non d ame     -31.457  15.253  25.349  0.00  0.00     0.240 C 
ATOM     44  O5  non d ame     -31.036  16.334  25.093  0.00  0.00    -0.271 OA
ATOM     45  N6  non d ame     -32.302  15.054  26.561  0.00  0.00    -0.355 N 
ATOM     46  H46 non d ame     -32.669  14.141  26.786  0.00  0.00     0.162 HD
BRANCH  45  47
ATOM     47  C20 non d ame     -32.603  16.203  27.441  0.00  0.00     0.013 C 
ATOM     48  H30 non d ame     -31.868  16.982  27.239  0.00  0.00     0.072 H 
BRANCH  47  49
ATOM     49  C21 non d ame     -32.509  15.766  28.885  0.00  0.00    -0.038 C 
ATOM     50  H31 non d ame     -31.514  16.062  29.219  0.00  0.00     0.036 H 
ATOM     51  H32 non d ame     -33.393  16.174  29.375  0.00  0.00     0.036 H 
BRANCH  49  52
ATOM     52  C22 non d ame     -32.586  14.233  29.053  0.00  0.00     0.018 C 
ATOM     53  H33 non d ame     -33.086  14.065  30.006  0.00  0.00     0.048 H 
ATOM     54  H34 non d ame     -33.030  13.857  28.131  0.00  0.00     0.048 H 
BRANCH  52  55
ATOM     55  C23 non d ame     -31.198  13.545  29.171  0.00  0.00     0.259 C 
ATOM     56  O7  non d ame     -30.214  14.106  28.812  0.00  0.00    -0.265 OA
BRANCH  55  57
ATOM     57  O8  non d ame     -31.116  12.228  29.704  0.00  0.00    -0.317 OA
BRANCH  57  58
ATOM     58  C29 non d ame     -31.835  12.049  30.927  0.00  0.00     0.052 C 
ATOM     59  H47 non d ame     -31.130  11.588  31.619  0.00  0.00     0.082 H 
ATOM     60  H48 non d ame     -32.270  13.021  31.159  0.00  0.00     0.082 H 
BRANCH  58  61
ATOM     61  C35 non d ame     -32.989  11.046  30.661  0.00  0.00    -0.034 A 
ATOM     62  C30 non d ame     -34.065  10.973  31.540  0.00  0.00    -0.075 A 
ATOM     63  C31 non d ame     -35.102  10.072  31.301  0.00  0.00    -0.082 A 
ATOM     64  H49 non d ame     -34.096  11.621  32.416  0.00  0.00     0.084 H 
ATOM     65  C32 non d ame     -35.059   9.240  30.179  0.00  0.00    -0.083 A 
ATOM     66  H50 non d ame     -35.944  10.018  31.991  0.00  0.00     0.083 H 
ATOM     67  C33 non d ame     -33.982   9.315  29.306  0.00  0.00    -0.082 A 
ATOM     68  H51 non d ame     -35.866   8.534  29.985  0.00  0.00     0.083 H 
ATOM     69  C34 non d ame     -32.945  10.215  29.540  0.00  0.00    -0.075 A 
ATOM     70  H52 non d ame     -33.950   8.662  28.433  0.00  0.00     0.083 H 
ATOM     71  H53 non d ame     -32.103  10.268  28.849  0.00  0.00     0.084 H 
ENDBRANCH  58  61
ENDBRANCH  57  58
ENDBRANCH  55  57
ENDBRANCH  52  55
ENDBRANCH  49  52
ENDBRANCH  47  49
BRANCH  47  72
ATOM     72  C24 non d ame     -34.013  16.718  27.155  0.00  0.00    -0.039 C 
ATOM     73  H35 non d ame     -34.337  16.190  26.258  0.00  0.00     0.036 H 
ATOM     74  H36 non d ame     -34.561  16.594  28.088  0.00  0.00     0.036 H 
BRANCH  72  75
ATOM     75  C25 non d ame     -34.014  18.282  26.809  0.00  0.00    -0.001 C 
ATOM     76  C26 non d ame     -32.488  18.883  26.928  0.00  0.00    -0.035 C 
ATOM     77  C27 non d ame     -32.513  19.982  27.720  0.00  0.00     0.085 C 
ATOM     78  H38 non d ame     -31.854  18.187  27.478  0.00  0.00     0.036 H 
ATOM     79  H39 non d ame     -32.163  19.272  25.963  0.00  0.00     0.036 H 
ATOM     80  N5  non d ame     -33.853  19.996  28.414  0.00  0.00    -0.049 N 
ATOM     81  H40 non d ame     -31.729  19.824  28.461  0.00  0.00     0.075 H 
ATOM     82  H41 non d ame     -32.456  20.832  27.040  0.00  0.00     0.075 H 
ATOM     83  C28 non d ame     -34.777  18.939  27.618  0.00  0.00     0.193 C 
ATOM     84  H42 non d ame     -33.695  19.645  29.348  0.00  0.00     0.280 HD
ATOM     85  H43 non d ame     -34.234  20.922  28.280  0.00  0.00     0.280 HD
ATOM     86  H44 non d ame     -35.546  19.285  26.927  0.00  0.00     0.129 H 
ATOM     87  H37 non d ame     -34.564  18.502  25.894  0.00  0.00     0.046 H 
BRANCH  83  88
ATOM     88  O6  non d ame     -35.451  18.080  28.540  0.00  0.00    -0.369 OA
ATOM     89  H45 non d ame     -34.804  17.616  29.077  0.00  0.00     0.212 HD
ENDBRANCH  83  88
ENDBRANCH  72  75
ENDBRANCH  47  72
ENDBRANCH  45  47
ENDBRANCH   1  43
BRANCH   1  90
ATOM     90  C16 non d ame     -31.208  14.504  22.961  0.00  0.00    -0.035 C 
ATOM     91  H21 non d ame     -31.991  13.895  22.511  0.00  0.00     0.037 H 
ATOM     92  H22 non d ame     -31.315  15.588  23.001  0.00  0.00     0.037 H 
BRANCH  90  93
ATOM     93  C17 non d ame     -29.905  14.219  22.148  0.00  0.00    -0.059 C 
ATOM     94  H23 non d ame     -30.088  14.515  21.116  0.00  0.00     0.038 H 
BRANCH  93  95
ATOM     95  C18 non d ame     -28.689  15.048  22.673  0.00  0.00    -0.073 C 
ATOM     96  H24 non d ame     -29.042  15.999  23.070  0.00  0.00     0.028 H 
ATOM     97  H25 non d ame     -28.183  14.491  23.462  0.00  0.00     0.028 H 
ATOM     98  H26 non d ame     -27.994  15.231  21.854  0.00  0.00     0.028 H 
ENDBRANCH  93  95
BRANCH  93  99
ATOM     99  C19 non d ame     -29.582  12.722  22.142  0.00  0.00    -0.073 C 
ATOM    100  H27 non d ame     -30.485  12.154  22.364  0.00  0.00     0.028 H 
ATOM    101  H28 non d ame     -29.206  12.436  21.159  0.00  0.00     0.028 H 
ATOM    102  H29 non d ame     -28.824  12.511  22.896  0.00  0.00     0.028 H 
ENDBRANCH  93  99
ENDBRANCH  90  93
ENDBRANCH   1  90
TORSDOF 26
ENDMDL
MODEL 3
REMARK VINA RESULT:      -7.0      3.432      6.518
REMARK  26 active torsions:
REMARK  status: ('A' for Active; 'I' for Inactive)
REMARK    1  A    between atoms: C2_2  and  C3_3 
REMARK    2  A    between atoms: C4_6  and  C5_7 
REMARK       I    between atoms: C5_7  and  N2_9 
REMARK    3  A    between atoms: N2_9  and  C6_10 
REMARK    4  A    between atoms: C6_10  and  C7_11 
REMARK    5  A    between atoms: C6_10  and  C8_13 
REMARK       I    between atoms: C7_11  and  N3_14 
REMARK    6  A    between atoms: N3_14  and  C9_15 
REMARK    7  A    between atoms: C9_15  and  C10_16 
REMARK    8  A    between atoms: C9_15  and  C11_18 
REMARK       I    between atoms: C10_16  and  N4_21 
REMARK    9  A    between atoms: C11_18  and  C12_19 
REMARK   10  A    between atoms: C11_18  and  C13_20 
REMARK   11  A    between atoms: N4_21  and  C14_22 
REMARK   12  A    between atoms: C14_22  and  C15_23 
REMARK   13  A    between atoms: C14_22  and  C16_25 
REMARK       I    between atoms: C15_23  and  N6_40 
REMARK   14  A    between atoms: C16_25  and  C17_26 
REMARK   15  A    between atoms: C17_26  and  C18_27 
REMARK   16  A    between atoms: C17_26  and  C19_28 
REMARK   17  A    between atoms: C20_29  and  C21_30 
REMARK   18  A    between atoms: C20_29  and  C24_33 
REMARK   19  A    between atoms: C20_29  and  N6_40 
REMARK   20  A    between atoms: C21_30  and  C22_31 
REMARK   21  A    between atoms: C22_31  and  C23_32 
REMARK   22  A    between atoms: C23_32  and  O8_43 
REMARK   23  A    between atoms: C24_33  and  C25_34 
REMARK   24  A    between atoms: C28_38  and  O6_39 
REMARK   25  A    between atoms: C29_42  and  O8_43 
REMARK   26  A    between atoms: C29_42  and  C35_49 
ROOT
ATOM      1  C14 non d ame     -32.887  10.465  25.654  0.00  0.00     0.089 C 
ATOM      2  H20 non d ame     -33.623  10.553  24.855  0.00  0.00     0.087 H 
ENDROOT
BRANCH   1   3
ATOM      3  N4  non d ame     -32.329   9.122  25.590  0.00  0.00    -0.346 N 
ATOM      4  C10 non d ame     -33.065   8.025  24.864  0.00  0.00     0.241 C 
ATOM      5  O4  non d ame     -34.107   8.246  24.341  0.00  0.00    -0.271 OA
ATOM      6  H19 non d ame     -31.442   8.954  26.044  0.00  0.00     0.163 HD
BRANCH   4   7
ATOM      7  C9  non d ame     -32.470   6.643  24.803  0.00  0.00     0.092 C 
ATOM      8  H11 non d ame     -31.409   6.698  25.045  0.00  0.00     0.088 H 
BRANCH   7   9
ATOM      9  N3  non d ame     -33.102   5.793  25.816  0.00  0.00    -0.346 N 
ATOM     10  C7  non d ame     -32.677   5.876  27.192  0.00  0.00     0.240 C 
ATOM     11  O3  non d ame     -31.828   6.619  27.501  0.00  0.00    -0.271 OA
ATOM     12  H10 non d ame     -33.835   5.146  25.565  0.00  0.00     0.163 HD
BRANCH  10  13
ATOM     13  C6  non d ame     -33.352   4.966  28.266  0.00  0.00     0.086 C 
ATOM     14  H6  non d ame     -32.726   4.819  29.146  0.00  0.00     0.086 H 
BRANCH  13  15
ATOM     15  N2  non d ame     -34.573   5.607  28.726  0.00  0.00    -0.343 N 
ATOM     16  C5  non d ame     -34.928   5.546  30.146  0.00  0.00     0.273 C 
ATOM     17  O2  non d ame     -34.227   4.978  30.909  0.00  0.00    -0.266 OA
ATOM     18  H5  non d ame     -35.168   6.088  28.067  0.00  0.00     0.163 HD
BRANCH  16  19
ATOM     19  C4  non d ame     -36.215   6.220  30.646  0.00  0.00     0.154 A 
ATOM     20  C1  non d ame     -36.497   7.622  30.689  0.00  0.00    -0.017 A 
ATOM     21  C2  non d ame     -37.800   7.715  31.227  0.00  0.00     0.077 A 
ATOM     22  H1  non d ame     -35.855   8.446  30.377  0.00  0.00     0.091 H 
ATOM     23  O1  non d ame     -38.210   6.503  31.460  0.00  0.00    -0.218 OA
ATOM     24  N1  non d ame     -37.303   5.613  31.130  0.00  0.00    -0.123 NA
BRANCH  21  25
ATOM     25  C3  non d ame     -38.581   8.997  31.483  0.00  0.00    -0.029 C 
ATOM     26  H2  non d ame     -39.526   8.962  30.944  0.00  0.00     0.036 H 
ATOM     27  H3  non d ame     -38.775   9.096  32.551  0.00  0.00     0.036 H 
ATOM     28  H4  non d ame     -37.998   9.852  31.140  0.00  0.00     0.036 H 
ENDBRANCH  21  25
ENDBRANCH  16  19
ENDBRANCH  13  15
BRANCH  13  29
ATOM     29  C8  non d ame     -33.669   3.622  27.663  0.00  0.00    -0.049 C 
ATOM     30  H7  non d ame     -33.423   3.633  26.601  0.00  0.00     0.030 H 
ATOM     31  H8  non d ame     -33.083   2.852  28.163  0.00  0.00     0.030 H 
ATOM     32  H9  non d ame     -34.731   3.409  27.787  0.00  0.00     0.030 H 
ENDBRANCH  13  29
ENDBRANCH  10  13
ENDBRANCH   7   9
BRANCH   7  33
ATOM     33  C11 non d ame     -32.718   6.034  23.391  0.00  0.00    -0.033 C 
ATOM     34  H12 non d ame     -33.544   6.581  22.937  0.00  0.00     0.042 H 
BRANCH  33  35
ATOM     35  C12 non d ame     -31.472   6.213  22.468  0.00  0.00    -0.071 C 
ATOM     36  H13 non d ame     -30.873   7.051  22.825  0.00  0.00     0.028 H 
ATOM     37  H14 non d ame     -30.873   5.303  22.487  0.00  0.00     0.028 H 
ATOM     38  H15 non d ame     -31.801   6.411  21.448  0.00  0.00     0.028 H 
ENDBRANCH  33  35
BRANCH  33  39
ATOM     39  C13 non d ame     -33.134   4.531  23.496  0.00  0.00    -0.071 C 
ATOM     40  H16 non d ame     -34.047   4.367  22.924  0.00  0.00     0.028 H 
ATOM     41  H17 non d ame     -32.336   3.905  23.096  0.00  0.00     0.028 H 
ATOM     42  H18 non d ame     -33.307   4.274  24.541  0.00  0.00     0.028 H 
ENDBRANCH  33  39
ENDBRANCH   7  33
ENDBRANCH   4   7
ENDBRANCH   1   3
BRANCH   1  43
ATOM     43  C15 non d ame     -31.727  11.491  25.501  0.00  0.00     0.240 C 
ATOM     44  O5  non d ame     -30.623  11.188  25.820  0.00  0.00    -0.271 OA
ATOM     45  N6  non d ame     -31.992  12.849  24.947  0.00  0.00    -0.355 N 
ATOM     46  H46 non d ame     -32.925  13.117  24.668  0.00  0.00     0.162 HD
BRANCH  45  47
ATOM     47  C20 non d ame     -30.879  13.813  24.806  0.00  0.00     0.013 C 
ATOM     48  H30 non d ame     -30.066  13.483  25.451  0.00  0.00     0.072 H 
BRANCH  47  49
ATOM     49  C21 non d ame     -31.350  15.186  25.230  0.00  0.00    -0.038 C 
ATOM     50  H31 non d ame     -30.726  15.462  26.080  0.00  0.00     0.036 H 
ATOM     51  H32 non d ame     -31.339  15.793  24.325  0.00  0.00     0.036 H 
BRANCH  49  52
ATOM     52  C22 non d ame     -32.808  15.189  25.740  0.00  0.00     0.018 C 
ATOM     53  H33 non d ame     -33.403  15.613  24.932  0.00  0.00     0.048 H 
ATOM     54  H34 non d ame     -33.002  14.172  26.085  0.00  0.00     0.048 H 
BRANCH  52  55
ATOM     55  C23 non d ame     -33.039  16.109  26.971  0.00  0.00     0.259 C 
ATOM     56  O7  non d ame     -32.997  17.291  26.856  0.00  0.00    -0.265 OA
BRANCH  55  57
ATOM     57  O8  non d ame     -33.288  15.523  28.242  0.00  0.00    -0.317 OA
BRANCH  57  58
ATOM     58  C29 non d ame     -33.629  14.135  28.187  0.00  0.00     0.052 C 
ATOM     59  H47 non d ame     -34.599  14.049  28.678  0.00  0.00     0.082 H 
ATOM     60  H48 non d ame     -33.520  13.846  27.142  0.00  0.00     0.082 H 
BRANCH  58  61
ATOM     61  C35 non d ame     -32.583  13.351  29.024  0.00  0.00    -0.034 A 
ATOM     62  C30 non d ame     -31.233  13.428  28.701  0.00  0.00    -0.075 A 
ATOM     63  C31 non d ame     -30.293  12.725  29.453  0.00  0.00    -0.082 A 
ATOM     64  H49 non d ame     -30.910  14.040  27.858  0.00  0.00     0.084 H 
ATOM     65  C32 non d ame     -30.710  11.939  30.531  0.00  0.00    -0.083 A 
ATOM     66  H50 non d ame     -29.235  12.788  29.198  0.00  0.00     0.083 H 
ATOM     67  C33 non d ame     -32.059  11.862  30.848  0.00  0.00    -0.082 A 
ATOM     68  H51 non d ame     -29.982  11.386  31.125  0.00  0.00     0.083 H 
ATOM     69  C34 non d ame     -33.001  12.566  30.100  0.00  0.00    -0.075 A 
ATOM     70  H52 non d ame     -32.381  11.247  31.688  0.00  0.00     0.083 H 
ATOM     71  H53 non d ame     -34.059  12.502  30.356  0.00  0.00     0.084 H 
ENDBRANCH  58  61
ENDBRANCH  57  58
ENDBRANCH  55  57
ENDBRANCH  52  55
ENDBRANCH  49  52
ENDBRANCH  47  49
BRANCH  47  72
ATOM     72  C24 non d ame     -30.417  13.859  23.351  0.00  0.00    -0.039 C 
ATOM     73  H35 non d ame     -29.452  13.353  23.337  0.00  0.00     0.036 H 
ATOM     74  H36 non d ame     -31.249  13.461  22.770  0.00  0.00     0.036 H 
BRANCH  72  75
ATOM     75  C25 non d ame     -30.170  15.362  22.855  0.00  0.00    -0.001 C 
ATOM     76  C26 non d ame     -31.295  15.772  21.728  0.00  0.00    -0.035 C 
ATOM     77  C27 non d ame     -30.661  16.270  20.640  0.00  0.00     0.085 C 
ATOM     78  H38 non d ame     -31.788  14.877  21.349  0.00  0.00     0.036 H 
ATOM     79  H39 non d ame     -31.891  16.614  22.083  0.00  0.00     0.036 H 
ATOM     80  N5  non d ame     -29.197  15.935  20.789  0.00  0.00    -0.049 N 
ATOM     81  H40 non d ame     -31.067  15.721  19.790  0.00  0.00     0.075 H 
ATOM     82  H41 non d ame     -30.786  17.351  20.700  0.00  0.00     0.075 H 
ATOM     83  C28 non d ame     -28.998  15.494  22.330  0.00  0.00     0.193 C 
ATOM     84  H42 non d ame     -29.026  15.132  20.201  0.00  0.00     0.280 HD
ATOM     85  H43 non d ame     -28.690  16.794  20.632  0.00  0.00     0.280 HD
ATOM     86  H44 non d ame     -28.536  16.175  23.045  0.00  0.00     0.129 H 
ATOM     87  H37 non d ame     -30.026  16.053  23.686  0.00  0.00     0.046 H 
BRANCH  83  88
ATOM     88  O6  non d ame     -28.236  14.288  22.403  0.00  0.00    -0.369 OA
ATOM     89  H45 non d ame     -28.681  13.662  22.979  0.00  0.00     0.212 HD
ENDBRANCH  83  88
ENDBRANCH  72  75
ENDBRANCH  47  72
ENDBRANCH  45  47
ENDBRANCH   1  43
BRANCH   1  90
ATOM     90  C16 non d ame     -33.564  10.657  27.002  0.00  0.00    -0.035 C 
ATOM     91  H21 non d ame     -33.281   9.787  27.594  0.00  0.00     0.037 H 
ATOM     92  H22 non d ame     -33.277  11.656  27.329  0.00  0.00     0.037 H 
BRANCH  90  93
ATOM     93  C17 non d ame     -35.124  10.649  26.926  0.00  0.00    -0.059 C 
ATOM     94  H23 non d ame     -35.424   9.747  26.391  0.00  0.00     0.038 H 
BRANCH  93  95
ATOM     95  C18 non d ame     -35.783  10.604  28.342  0.00  0.00    -0.073 C 
ATOM     96  H24 non d ame     -35.342  11.376  28.972  0.00  0.00     0.028 H 
ATOM     97  H25 non d ame     -36.854  10.780  28.250  0.00  0.00     0.028 H 
ATOM     98  H26 non d ame     -35.612   9.626  28.791  0.00  0.00     0.028 H 
ENDBRANCH  93  95
BRANCH  93  99
ATOM     99  C19 non d ame     -35.639  11.846  26.123  0.00  0.00    -0.073 C 
ATOM    100  H27 non d ame     -34.883  12.632  26.118  0.00  0.00     0.028 H 
ATOM    101  H28 non d ame     -35.846  11.536  25.099  0.00  0.00     0.028 H 
ATOM    102  H29 non d ame     -36.553  12.224  26.579  0.00  0.00     0.028 H 
ENDBRANCH  93  99
ENDBRANCH  90  93
ENDBRANCH   1  90
TORSDOF 26
ENDMDL
MODEL 4
REMARK VINA RESULT:      -6.9      2.330      7.053
REMARK  26 active torsions:
REMARK  status: ('A' for Active; 'I' for Inactive)
REMARK    1  A    between atoms: C2_2  and  C3_3 
REMARK    2  A    between atoms: C4_6  and  C5_7 
REMARK       I    between atoms: C5_7  and  N2_9 
REMARK    3  A    between atoms: N2_9  and  C6_10 
REMARK    4  A    between atoms: C6_10  and  C7_11 
REMARK    5  A    between atoms: C6_10  and  C8_13 
REMARK       I    between atoms: C7_11  and  N3_14 
REMARK    6  A    between atoms: N3_14  and  C9_15 
REMARK    7  A    between atoms: C9_15  and  C10_16 
REMARK    8  A    between atoms: C9_15  and  C11_18 
REMARK       I    between atoms: C10_16  and  N4_21 
REMARK    9  A    between atoms: C11_18  and  C12_19 
REMARK   10  A    between atoms: C11_18  and  C13_20 
REMARK   11  A    between atoms: N4_21  and  C14_22 
REMARK   12  A    between atoms: C14_22  and  C15_23 
REMARK   13  A    between atoms: C14_22  and  C16_25 
REMARK       I    between atoms: C15_23  and  N6_40 
REMARK   14  A    between atoms: C16_25  and  C17_26 
REMARK   15  A    between atoms: C17_26  and  C18_27 
REMARK   16  A    between atoms: C17_26  and  C19_28 
REMARK   17  A    between atoms: C20_29  and  C21_30 
REMARK   18  A    between atoms: C20_29  and  C24_33 
REMARK   19  A    between atoms: C20_29  and  N6_40 
REMARK   20  A    between atoms: C21_30  and  C22_31 
REMARK   21  A    between atoms: C22_31  and  C23_32 
REMARK   22  A    between atoms: C23_32  and  O8_43 
REMARK   23  A    between atoms: C24_33  and  C25_34 
REMARK   24  A    between atoms: C28_38  and  O6_39 
REMARK   25  A    between atoms: C29_42  and  O8_43 
REMARK   26  A    between atoms: C29_42  and  C35_49 
ROOT
ATOM      1  C14 non d ame     -32.370   9.564  25.429  0.00  0.00     0.089 C 
ATOM      2  H20 non d ame     -31.695   8.715  25.539  0.00  0.00     0.087 H 
ENDROOT
BRANCH   1   3
ATOM      3  N4  non d ame     -33.332   9.504  26.520  0.00  0.00    -0.346 N 
ATOM      4  C10 non d ame     -33.287   8.371  27.513  0.00  0.00     0.241 C 
ATOM      5  O4  non d ame     -32.469   7.517  27.413  0.00  0.00    -0.271 OA
ATOM      6  H19 non d ame     -34.021  10.240  26.586  0.00  0.00     0.163 HD
BRANCH   4   7
ATOM      7  C9  non d ame     -34.286   8.328  28.639  0.00  0.00     0.092 C 
ATOM      8  H11 non d ame     -34.067   7.474  29.281  0.00  0.00     0.088 H 
BRANCH   7   9
ATOM      9  N3  non d ame     -34.150   9.534  29.461  0.00  0.00    -0.346 N 
ATOM     10  C7  non d ame     -34.172   9.433  30.899  0.00  0.00     0.240 C 
ATOM     11  O3  non d ame     -34.300   8.388  31.412  0.00  0.00    -0.271 OA
ATOM     12  H10 non d ame     -34.041  10.442  29.032  0.00  0.00     0.163 HD
BRANCH  10  13
ATOM     13  C6  non d ame     -34.030  10.721  31.768  0.00  0.00     0.086 C 
ATOM     14  H6  non d ame     -33.231  10.646  32.506  0.00  0.00     0.086 H 
BRANCH  13  15
ATOM     15  N2  non d ame     -33.693  11.838  30.903  0.00  0.00    -0.343 N 
ATOM     16  C5  non d ame     -32.288  12.105  30.583  0.00  0.00     0.273 C 
ATOM     17  O2  non d ame     -31.438  11.417  31.029  0.00  0.00    -0.266 OA
ATOM     18  H5  non d ame     -34.426  12.423  30.527  0.00  0.00     0.163 HD
BRANCH  16  19
ATOM     19  C4  non d ame     -31.917  13.282  29.668  0.00  0.00     0.154 A 
ATOM     20  C1  non d ame     -32.675  14.475  29.443  0.00  0.00    -0.017 A 
ATOM     21  C2  non d ame     -31.906  15.228  28.529  0.00  0.00     0.077 A 
ATOM     22  H1  non d ame     -33.636  14.752  29.877  0.00  0.00     0.091 H 
ATOM     23  O1  non d ame     -30.833  14.540  28.267  0.00  0.00    -0.218 OA
ATOM     24  N1  non d ame     -30.817  13.401  28.919  0.00  0.00    -0.123 NA
BRANCH  21  25
ATOM     25  C3  non d ame     -32.265  16.593  27.957  0.00  0.00    -0.029 C 
ATOM     26  H2  non d ame     -32.119  16.585  26.877  0.00  0.00     0.036 H 
ATOM     27  H3  non d ame     -33.308  16.817  28.180  0.00  0.00     0.036 H 
ATOM     28  H4  non d ame     -31.627  17.355  28.405  0.00  0.00     0.036 H 
ENDBRANCH  21  25
ENDBRANCH  16  19
ENDBRANCH  13  15
BRANCH  13  29
ATOM     29  C8  non d ame     -35.329  10.994  32.483  0.00  0.00    -0.049 C 
ATOM     30  H7  non d ame     -36.033  10.188  32.279  0.00  0.00     0.030 H 
ATOM     31  H8  non d ame     -35.147  11.055  33.555  0.00  0.00     0.030 H 
ATOM     32  H9  non d ame     -35.746  11.938  32.130  0.00  0.00     0.030 H 
ENDBRANCH  13  29
ENDBRANCH  10  13
ENDBRANCH   7   9
BRANCH   7  33
ATOM     33  C11 non d ame     -35.727   8.264  28.052  0.00  0.00    -0.033 C 
ATOM     34  H12 non d ame     -35.637   8.080  26.981  0.00  0.00     0.042 H 
BRANCH  33  35
ATOM     35  C12 non d ame     -36.538   7.080  28.664  0.00  0.00    -0.071 C 
ATOM     36  H13 non d ame     -37.455   7.461  29.114  0.00  0.00     0.028 H 
ATOM     37  H14 non d ame     -36.788   6.366  27.880  0.00  0.00     0.028 H 
ATOM     38  H15 non d ame     -35.938   6.585  29.429  0.00  0.00     0.028 H 
ENDBRANCH  33  35
BRANCH  33  39
ATOM     39  C13 non d ame     -36.472   9.623  28.248  0.00  0.00    -0.071 C 
ATOM     40  H16 non d ame     -37.529   9.433  28.435  0.00  0.00     0.028 H 
ATOM     41  H17 non d ame     -36.042  10.153  29.098  0.00  0.00     0.028 H 
ATOM     42  H18 non d ame     -36.364  10.230  27.350  0.00  0.00     0.028 H 
ENDBRANCH  33  39
ENDBRANCH   7  33
ENDBRANCH   4   7
ENDBRANCH   1   3
BRANCH   1  43
ATOM     43  C15 non d ame     -31.619  10.924  25.505  0.00  0.00     0.240 C 
ATOM     44  O5  non d ame     -30.889  11.146  26.416  0.00  0.00    -0.271 OA
ATOM     45  N6  non d ame     -31.803  11.947  24.436  0.00  0.00    -0.355 N 
ATOM     46  H46 non d ame     -32.417  11.768  23.655  0.00  0.00     0.162 HD
BRANCH  45  47
ATOM     47  C20 non d ame     -31.081  13.235  24.522  0.00  0.00     0.013 C 
ATOM     48  H30 non d ame     -30.356  13.160  25.333  0.00  0.00     0.072 H 
BRANCH  47  49
ATOM     49  C21 non d ame     -32.068  14.343  24.813  0.00  0.00    -0.038 C 
ATOM     50  H31 non d ame     -31.524  15.072  25.414  0.00  0.00     0.036 H 
ATOM     51  H32 non d ame     -32.479  14.632  23.845  0.00  0.00     0.036 H 
BRANCH  49  52
ATOM     52  C22 non d ame     -33.262  13.872  25.672  0.00  0.00     0.018 C 
ATOM     53  H33 non d ame     -33.546  12.899  25.274  0.00  0.00     0.048 H 
ATOM     54  H34 non d ame     -32.934  13.964  26.708  0.00  0.00     0.048 H 
BRANCH  52  55
ATOM     55  C23 non d ame     -34.522  14.772  25.540  0.00  0.00     0.259 C 
ATOM     56  O7  non d ame     -35.573  14.401  25.950  0.00  0.00    -0.265 OA
BRANCH  55  57
ATOM     57  O8  non d ame     -34.407  16.043  24.911  0.00  0.00    -0.317 OA
BRANCH  57  58
ATOM     58  C29 non d ame     -35.412  16.981  25.307  0.00  0.00     0.052 C 
ATOM     59  H47 non d ame     -35.854  17.349  24.381  0.00  0.00     0.082 H 
ATOM     60  H48 non d ame     -36.031  16.460  26.037  0.00  0.00     0.082 H 
BRANCH  58  61
ATOM     61  C35 non d ame     -34.707  18.166  26.019  0.00  0.00    -0.034 A 
ATOM     62  C30 non d ame     -35.201  18.647  27.227  0.00  0.00    -0.075 A 
ATOM     63  C31 non d ame     -34.568  19.712  27.867  0.00  0.00    -0.082 A 
ATOM     64  H49 non d ame     -36.085  18.190  27.673  0.00  0.00     0.084 H 
ATOM     65  C32 non d ame     -33.437  20.298  27.292  0.00  0.00    -0.083 A 
ATOM     66  H50 non d ame     -34.957  20.085  28.814  0.00  0.00     0.083 H 
ATOM     67  C33 non d ame     -32.949  19.817  26.085  0.00  0.00    -0.082 A 
ATOM     68  H51 non d ame     -32.935  21.130  27.786  0.00  0.00     0.083 H 
ATOM     69  C34 non d ame     -33.578  18.751  25.443  0.00  0.00    -0.075 A 
ATOM     70  H52 non d ame     -32.068  20.278  25.638  0.00  0.00     0.083 H 
ATOM     71  H53 non d ame     -33.188  18.379  24.496  0.00  0.00     0.084 H 
ENDBRANCH  58  61
ENDBRANCH  57  58
ENDBRANCH  55  57
ENDBRANCH  52  55
ENDBRANCH  49  52
ENDBRANCH  47  49
BRANCH  47  72
ATOM     72  C24 non d ame     -30.371  13.518  23.200  0.00  0.00    -0.039 C 
ATOM     73  H35 non d ame     -29.325  13.262  23.371  0.00  0.00     0.036 H 
ATOM     74  H36 non d ame     -30.945  12.985  22.442  0.00  0.00     0.036 H 
BRANCH  72  75
ATOM     75  C25 non d ame     -30.421  15.074  22.822  0.00  0.00    -0.001 C 
ATOM     76  C26 non d ame     -31.213  15.279  21.395  0.00  0.00    -0.035 C 
ATOM     77  C27 non d ame     -30.443  16.033  20.574  0.00  0.00     0.085 C 
ATOM     78  H38 non d ame     -31.289  14.328  20.871  0.00  0.00     0.036 H 
ATOM     79  H39 non d ame     -32.102  15.892  21.546  0.00  0.00     0.036 H 
ATOM     80  N5  non d ame     -29.065  16.086  21.186  0.00  0.00    -0.049 N 
ATOM     81  H40 non d ame     -30.395  15.483  19.635  0.00  0.00     0.075 H 
ATOM     82  H41 non d ame     -30.882  17.030  20.599  0.00  0.00     0.075 H 
ATOM     83  C28 non d ame     -29.232  15.565  22.704  0.00  0.00     0.193 C 
ATOM     84  H42 non d ame     -28.500  15.421  20.678  0.00  0.00     0.280 HD
ATOM     85  H43 non d ame     -28.799  17.061  21.208  0.00  0.00     0.280 HD
ATOM     86  H44 non d ame     -29.226  16.270  23.536  0.00  0.00     0.129 H 
ATOM     87  H37 non d ame     -30.741  15.693  23.661  0.00  0.00     0.046 H 
BRANCH  83  88
ATOM     88  O6  non d ame     -28.220  14.604  23.010  0.00  0.00    -0.369 OA
ATOM     89  H45 non d ame     -27.809  14.302  22.197  0.00  0.00     0.212 HD
ENDBRANCH  83  88
ENDBRANCH  72  75
ENDBRANCH  47  72
ENDBRANCH  45  47
ENDBRANCH   1  43
BRANCH   1  90
ATOM     90  C16 non d ame     -33.113   9.464  24.106  0.00  0.00    -0.035 C 
ATOM     91  H21 non d ame     -34.117   9.126  24.364  0.00  0.00     0.037 H 
ATOM     92  H22 non d ame     -32.971  10.429  23.621  0.00  0.00     0.037 H 
BRANCH  90  93
ATOM     93  C17 non d ame     -32.523   8.391  23.136  0.00  0.00    -0.059 C 
ATOM     94  H23 non d ame     -33.297   8.140  22.411  0.00  0.00     0.038 H 
BRANCH  93  95
ATOM     95  C18 non d ame     -31.286   8.927  22.347  0.00  0.00    -0.073 C 
ATOM     96  H24 non d ame     -30.713   9.601  22.983  0.00  0.00     0.028 H 
ATOM     97  H25 non d ame     -30.657   8.091  22.045  0.00  0.00     0.028 H 
ATOM     98  H26 non d ame     -31.625   9.465  21.461  0.00  0.00     0.028 H 
ENDBRANCH  93  95
BRANCH  93  99
ATOM     99  C19 non d ame     -32.172   7.106  23.890  0.00  0.00    -0.073 C 
ATOM    100  H27 non d ame     -31.970   7.341  24.936  0.00  0.00     0.028 H 
ATOM    101  H28 non d ame     -33.009   6.409  23.831  0.00  0.00     0.028 H 
ATOM    102  H29 non d ame     -31.289   6.651  23.442  0.00  0.00     0.028 H 
ENDBRANCH  93  99
ENDBRANCH  90  93
ENDBRANCH   1  90
TORSDOF 26
ENDMDL
MODEL 5
REMARK VINA RESULT:      -6.9      1.925      5.662
REMARK  26 active torsions:
REMARK  status: ('A' for Active; 'I' for Inactive)
REMARK    1  A    between atoms: C2_2  and  C3_3 
REMARK    2  A    between atoms: C4_6  and  C5_7 
REMARK       I    between atoms: C5_7  and  N2_9 
REMARK    3  A    between atoms: N2_9  and  C6_10 
REMARK    4  A    between atoms: C6_10  and  C7_11 
REMARK    5  A    between atoms: C6_10  and  C8_13 
REMARK       I    between atoms: C7_11  and  N3_14 
REMARK    6  A    between atoms: N3_14  and  C9_15 
REMARK    7  A    between atoms: C9_15  and  C10_16 
REMARK    8  A    between atoms: C9_15  and  C11_18 
REMARK       I    between atoms: C10_16  and  N4_21 
REMARK    9  A    between atoms: C11_18  and  C12_19 
REMARK   10  A    between atoms: C11_18  and  C13_20 
REMARK   11  A    between atoms: N4_21  and  C14_22 
REMARK   12  A    between atoms: C14_22  and  C15_23 
REMARK   13  A    between atoms: C14_22  and  C16_25 
REMARK       I    between atoms: C15_23  and  N6_40 
REMARK   14  A    between atoms: C16_25  and  C17_26 
REMARK   15  A    between atoms: C17_26  and  C18_27 
REMARK   16  A    between atoms: C17_26  and  C19_28 
REMARK   17  A    between atoms: C20_29  and  C21_30 
REMARK   18  A    between atoms: C20_29  and  C24_33 
REMARK   19  A    between atoms: C20_29  and  N6_40 
REMARK   20  A    between atoms: C21_30  and  C22_31 
REMARK   21  A    between atoms: C22_31  and  C23_32 
REMARK   22  A    between atoms: C23_32  and  O8_43 
REMARK   23  A    between atoms: C24_33  and  C25_34 
REMARK   24  A    between atoms: C28_38  and  O6_39 
REMARK   25  A    between atoms: C29_42  and  O8_43 
REMARK   26  A    between atoms: C29_42  and  C35_49 
ROOT
ATOM      1  C14 non d ame     -31.014  13.656  24.759  0.00  0.00     0.089 C 
ATOM      2  H20 non d ame     -30.028  13.452  25.178  0.00  0.00     0.087 H 
ENDROOT
BRANCH   1   3
ATOM      3  N4  non d ame     -31.468  12.442  24.096  0.00  0.00    -0.346 N 
ATOM      4  C10 non d ame     -31.287  11.100  24.757  0.00  0.00     0.241 C 
ATOM      5  O4  non d ame     -30.770  11.020  25.823  0.00  0.00    -0.271 OA
ATOM      6  H19 non d ame     -31.902  12.531  23.188  0.00  0.00     0.163 HD
BRANCH   4   7
ATOM      7  C9  non d ame     -31.767   9.855  24.059  0.00  0.00     0.092 C 
ATOM      8  H11 non d ame     -31.641   9.000  24.724  0.00  0.00     0.088 H 
BRANCH   7   9
ATOM      9  N3  non d ame     -33.200   9.976  23.775  0.00  0.00    -0.346 N 
ATOM     10  C7  non d ame     -34.167   9.489  24.727  0.00  0.00     0.240 C 
ATOM     11  O3  non d ame     -33.810   8.996  25.727  0.00  0.00    -0.271 OA
ATOM     12  H10 non d ame     -33.523  10.397  22.916  0.00  0.00     0.163 HD
BRANCH  10  13
ATOM     13  C6  non d ame     -35.691   9.617  24.418  0.00  0.00     0.086 C 
ATOM     14  H6  non d ame     -36.318   9.183  25.196  0.00  0.00     0.086 H 
BRANCH  13  15
ATOM     15  N2  non d ame     -36.039  11.026  24.342  0.00  0.00    -0.343 N 
ATOM     16  C5  non d ame     -36.385  11.751  25.567  0.00  0.00     0.273 C 
ATOM     17  O2  non d ame     -36.383  11.190  26.608  0.00  0.00    -0.266 OA
ATOM     18  H5  non d ame     -36.041  11.497  23.448  0.00  0.00     0.163 HD
BRANCH  16  19
ATOM     19  C4  non d ame     -36.754  13.241  25.502  0.00  0.00     0.154 A 
ATOM     20  C1  non d ame     -36.673  14.199  26.563  0.00  0.00    -0.017 A 
ATOM     21  C2  non d ame     -37.122  15.411  25.993  0.00  0.00     0.077 A 
ATOM     22  H1  non d ame     -36.341  14.038  27.589  0.00  0.00     0.091 H 
ATOM     23  O1  non d ame     -37.420  15.168  24.750  0.00  0.00    -0.218 OA
ATOM     24  N1  non d ame     -37.214  13.908  24.441  0.00  0.00    -0.123 NA
BRANCH  21  25
ATOM     25  C3  non d ame     -37.233  16.754  26.702  0.00  0.00    -0.029 C 
ATOM     26  H2  non d ame     -37.269  16.594  27.779  0.00  0.00     0.036 H 
ATOM     27  H3  non d ame     -36.367  17.368  26.455  0.00  0.00     0.036 H 
ATOM     28  H4  non d ame     -38.142  17.261  26.379  0.00  0.00     0.036 H 
ENDBRANCH  21  25
ENDBRANCH  16  19
ENDBRANCH  13  15
BRANCH  13  29
ATOM     29  C8  non d ame     -36.000   8.938  23.108  0.00  0.00    -0.049 C 
ATOM     30  H7  non d ame     -36.657   9.574  22.514  0.00  0.00     0.030 H 
ATOM     31  H8  non d ame     -35.073   8.764  22.562  0.00  0.00     0.030 H 
ATOM     32  H9  non d ame     -36.493   7.985  23.299  0.00  0.00     0.030 H 
ENDBRANCH  13  29
ENDBRANCH  10  13
ENDBRANCH   7   9
BRANCH   7  33
ATOM     33  C11 non d ame     -30.989   9.677  22.722  0.00  0.00    -0.033 C 
ATOM     34  H12 non d ame     -31.176  10.561  22.113  0.00  0.00     0.042 H 
BRANCH  33  35
ATOM     35  C12 non d ame     -29.450   9.592  22.968  0.00  0.00    -0.071 C 
ATOM     36  H13 non d ame     -28.924  10.088  22.151  0.00  0.00     0.028 H 
ATOM     37  H14 non d ame     -29.205  10.083  23.909  0.00  0.00     0.028 H 
ATOM     38  H15 non d ame     -29.146   8.546  23.012  0.00  0.00     0.028 H 
ENDBRANCH  33  35
BRANCH  33  39
ATOM     39  C13 non d ame     -31.506   8.430  21.936  0.00  0.00    -0.071 C 
ATOM     40  H16 non d ame     -32.508   8.173  22.280  0.00  0.00     0.028 H 
ATOM     41  H17 non d ame     -31.536   8.659  20.870  0.00  0.00     0.028 H 
ATOM     42  H18 non d ame     -30.835   7.588  22.107  0.00  0.00     0.028 H 
ENDBRANCH  33  39
ENDBRANCH   7  33
ENDBRANCH   4   7
ENDBRANCH   1   3
BRANCH   1  43
ATOM     43  C15 non d ame     -32.050  14.039  25.854  0.00  0.00     0.240 C 
ATOM     44  O5  non d ame     -33.213  13.935  25.630  0.00  0.00    -0.271 OA
ATOM     45  N6  non d ame     -31.593  14.527  27.186  0.00  0.00    -0.355 N 
ATOM     46  H46 non d ame     -30.608  14.615  27.390  0.00  0.00     0.162 HD
BRANCH  45  47
ATOM     47  C20 non d ame     -32.591  14.886  28.217  0.00  0.00     0.013 C 
ATOM     48  H30 non d ame     -33.561  14.513  27.889  0.00  0.00     0.072 H 
BRANCH  47  49
ATOM     49  C21 non d ame     -32.638  16.390  28.364  0.00  0.00    -0.038 C 
ATOM     50  H31 non d ame     -33.049  16.576  29.357  0.00  0.00     0.036 H 
ATOM     51  H32 non d ame     -31.637  16.742  28.114  0.00  0.00     0.036 H 
BRANCH  49  52
ATOM     52  C22 non d ame     -33.601  17.061  27.360  0.00  0.00     0.018 C 
ATOM     53  H33 non d ame     -34.124  16.245  26.863  0.00  0.00     0.048 H 
ATOM     54  H34 non d ame     -34.162  17.797  27.936  0.00  0.00     0.048 H 
BRANCH  52  55
ATOM     55  C23 non d ame     -32.880  17.855  26.236  0.00  0.00     0.259 C 
ATOM     56  O7  non d ame     -31.925  17.400  25.694  0.00  0.00    -0.265 OA
BRANCH  55  57
ATOM     57  O8  non d ame     -33.367  19.139  25.868  0.00  0.00    -0.317 OA
BRANCH  57  58
ATOM     58  C29 non d ame     -34.086  19.809  26.908  0.00  0.00     0.052 C 
ATOM     59  H47 non d ame     -34.197  19.078  27.708  0.00  0.00     0.082 H 
ATOM     60  H48 non d ame     -33.546  20.738  27.089  0.00  0.00     0.082 H 
BRANCH  58  61
ATOM     61  C35 non d ame     -35.496  20.160  26.364  0.00  0.00    -0.034 A 
ATOM     62  C30 non d ame     -36.378  20.904  27.143  0.00  0.00    -0.075 A 
ATOM     63  C31 non d ame     -37.645  21.219  26.655  0.00  0.00    -0.082 A 
ATOM     64  H49 non d ame     -36.076  21.240  28.135  0.00  0.00     0.084 H 
ATOM     65  C32 non d ame     -38.031  20.786  25.384  0.00  0.00    -0.083 A 
ATOM     66  H50 non d ame     -38.333  21.804  27.267  0.00  0.00     0.083 H 
ATOM     67  C33 non d ame     -37.150  20.041  24.612  0.00  0.00    -0.082 A 
ATOM     68  H51 non d ame     -39.020  21.028  24.995  0.00  0.00     0.083 H 
ATOM     69  C34 non d ame     -35.881  19.725  25.095  0.00  0.00    -0.075 A 
ATOM     70  H52 non d ame     -37.455  19.702  23.622  0.00  0.00     0.083 H 
ATOM     71  H53 non d ame     -35.194  19.141  24.482  0.00  0.00     0.084 H 
ENDBRANCH  58  61
ENDBRANCH  57  58
ENDBRANCH  55  57
ENDBRANCH  52  55
ENDBRANCH  49  52
ENDBRANCH  47  49
BRANCH  47  72
ATOM     72  C24 non d ame     -32.204  14.255  29.553  0.00  0.00    -0.039 C 
ATOM     73  H35 non d ame     -31.368  14.849  29.923  0.00  0.00     0.036 H 
ATOM     74  H36 non d ame     -33.129  14.199  30.126  0.00  0.00     0.036 H 
BRANCH  72  75
ATOM     75  C25 non d ame     -31.671  12.755  29.367  0.00  0.00    -0.001 C 
ATOM     76  C26 non d ame     -32.939  11.736  29.125  0.00  0.00    -0.035 C 
ATOM     77  C27 non d ame     -32.839  10.701  29.992  0.00  0.00     0.085 C 
ATOM     78  H38 non d ame     -33.870  12.223  29.416  0.00  0.00     0.036 H 
ATOM     79  H39 non d ame     -32.855  11.260  28.148  0.00  0.00     0.036 H 
ATOM     80  N5  non d ame     -31.803  11.086  31.021  0.00  0.00    -0.049 N 
ATOM     81  H40 non d ame     -33.813  10.631  30.477  0.00  0.00     0.075 H 
ATOM     82  H41 non d ame     -32.461   9.865  29.405  0.00  0.00     0.075 H 
ATOM     83  C28 non d ame     -31.020  12.358  30.409  0.00  0.00     0.193 C 
ATOM     84  H42 non d ame     -32.312  11.385  31.841  0.00  0.00     0.280 HD
ATOM     85  H43 non d ame     -31.159  10.310  31.082  0.00  0.00     0.280 HD
ATOM     86  H44 non d ame     -30.022  12.243  29.987  0.00  0.00     0.129 H 
ATOM     87  H37 non d ame     -30.845  12.695  28.659  0.00  0.00     0.046 H 
BRANCH  83  88
ATOM     88  O6  non d ame     -30.902  13.385  31.395  0.00  0.00    -0.369 OA
ATOM     89  H45 non d ame     -30.314  13.091  32.095  0.00  0.00     0.212 HD
ENDBRANCH  83  88
ENDBRANCH  72  75
ENDBRANCH  47  72
ENDBRANCH  45  47
ENDBRANCH   1  43
BRANCH   1  90
ATOM     90  C16 non d ame     -30.916  14.774  23.734  0.00  0.00    -0.035 C 
ATOM     91  H21 non d ame     -31.944  15.076  23.537  0.00  0.00     0.037 H 
ATOM     92  H22 non d ame     -30.209  15.490  24.154  0.00  0.00     0.037 H 
BRANCH  90  93
ATOM     93  C17 non d ame     -30.321  14.319  22.364  0.00  0.00    -0.059 C 
ATOM     94  H23 non d ame     -30.630  13.287  22.196  0.00  0.00     0.038 H 
BRANCH  93  95
ATOM     95  C18 non d ame     -30.857  15.177  21.173  0.00  0.00    -0.073 C 
ATOM     96  H24 non d ame     -30.365  14.867  20.252  0.00  0.00     0.028 H 
ATOM     97  H25 non d ame     -31.933  15.032  21.077  0.00  0.00     0.028 H 
ATOM     98  H26 non d ame     -30.647  16.229  21.361  0.00  0.00     0.028 H 
ENDBRANCH  93  95
BRANCH  93  99
ATOM     99  C19 non d ame     -28.790  14.334  22.401  0.00  0.00    -0.073 C 
ATOM    100  H27 non d ame     -28.453  14.862  23.293  0.00  0.00     0.028 H 
ATOM    101  H28 non d ame     -28.416  13.311  22.422  0.00  0.00     0.028 H 
ATOM    102  H29 non d ame     -28.411  14.841  21.514  0.00  0.00     0.028 H 
ENDBRANCH  93  99
ENDBRANCH  90  93
ENDBRANCH   1  90
TORSDOF 26
ENDMDL
MODEL 6
REMARK VINA RESULT:      -6.9      2.461      8.067
REMARK  26 active torsions:
REMARK  status: ('A' for Active; 'I' for Inactive)
REMARK    1  A    between atoms: C2_2  and  C3_3 
REMARK    2  A    between atoms: C4_6  and  C5_7 
REMARK       I    between atoms: C5_7  and  N2_9 
REMARK    3  A    between atoms: N2_9  and  C6_10 
REMARK    4  A    between atoms: C6_10  and  C7_11 
REMARK    5  A    between atoms: C6_10  and  C8_13 
REMARK       I    between atoms: C7_11  and  N3_14 
REMARK    6  A    between atoms: N3_14  and  C9_15 
REMARK    7  A    between atoms: C9_15  and  C10_16 
REMARK    8  A    between atoms: C9_15  and  C11_18 
REMARK       I    between atoms: C10_16  and  N4_21 
REMARK    9  A    between atoms: C11_18  and  C12_19 
REMARK   10  A    between atoms: C11_18  and  C13_20 
REMARK   11  A    between atoms: N4_21  and  C14_22 
REMARK   12  A    between atoms: C14_22  and  C15_23 
REMARK   13  A    between atoms: C14_22  and  C16_25 
REMARK       I    between atoms: C15_23  and  N6_40 
REMARK   14  A    between atoms: C16_25  and  C17_26 
REMARK   15  A    between atoms: C17_26  and  C18_27 
REMARK   16  A    between atoms: C17_26  and  C19_28 
REMARK   17  A    between atoms: C20_29  and  C21_30 
REMARK   18  A    between atoms: C20_29  and  C24_33 
REMARK   19  A    between atoms: C20_29  and  N6_40 
REMARK   20  A    between atoms: C21_30  and  C22_31 
REMARK   21  A    between atoms: C22_31  and  C23_32 
REMARK   22  A    between atoms: C23_32  and  O8_43 
REMARK   23  A    between atoms: C24_33  and  C25_34 
REMARK   24  A    between atoms: C28_38  and  O6_39 
REMARK   25  A    between atoms: C29_42  and  O8_43 
REMARK   26  A    between atoms: C29_42  and  C35_49 
ROOT
ATOM      1  C14 non d ame     -36.473  15.973  26.506  0.00  0.00     0.089 C 
ATOM      2  H20 non d ame     -37.078  16.519  27.230  0.00  0.00     0.087 H 
ENDROOT
BRANCH   1   3
ATOM      3  N4  non d ame     -35.077  16.159  26.873  0.00  0.00    -0.346 N 
ATOM      4  C10 non d ame     -34.689  17.204  27.889  0.00  0.00     0.241 C 
ATOM      5  O4  non d ame     -35.518  17.885  28.396  0.00  0.00    -0.271 OA
ATOM      6  H19 non d ame     -34.387  15.571  26.428  0.00  0.00     0.163 HD
BRANCH   4   7
ATOM      7  C9  non d ame     -33.240  17.379  28.261  0.00  0.00     0.092 C 
ATOM      8  H11 non d ame     -33.176  17.891  29.221  0.00  0.00     0.088 H 
BRANCH   7   9
ATOM      9  N3  non d ame     -32.616  16.063  28.429  0.00  0.00    -0.346 N 
ATOM     10  C7  non d ame     -31.737  15.820  29.546  0.00  0.00     0.240 C 
ATOM     11  O3  non d ame     -31.519  16.673  30.318  0.00  0.00    -0.271 OA
ATOM     12  H10 non d ame     -32.793  15.318  27.770  0.00  0.00     0.163 HD
BRANCH  10  13
ATOM     13  C6  non d ame     -31.073  14.419  29.719  0.00  0.00     0.086 C 
ATOM     14  H6  non d ame     -30.430  14.362  30.596  0.00  0.00     0.086 H 
BRANCH  13  15
ATOM     15  N2  non d ame     -32.116  13.423  29.902  0.00  0.00    -0.343 N 
ATOM     16  C5  non d ame     -31.804  12.172  30.596  0.00  0.00     0.273 C 
ATOM     17  O2  non d ame     -30.711  11.975  31.000  0.00  0.00    -0.266 OA
ATOM     18  H5  non d ame     -33.047  13.598  29.551  0.00  0.00     0.163 HD
BRANCH  16  19
ATOM     19  C4  non d ame     -32.897  11.110  30.798  0.00  0.00     0.154 A 
ATOM     20  C1  non d ame     -33.280  10.078  29.884  0.00  0.00    -0.017 A 
ATOM     21  C2  non d ame     -34.318   9.379  30.539  0.00  0.00     0.077 A 
ATOM     22  H1  non d ame     -32.867   9.869  28.897  0.00  0.00     0.091 H 
ATOM     23  O1  non d ame     -34.501   9.950  31.693  0.00  0.00    -0.218 OA
ATOM     24  N1  non d ame     -33.684  10.963  31.867  0.00  0.00    -0.123 NA
BRANCH  21  25
ATOM     25  C3  non d ame     -35.081   8.179  29.994  0.00  0.00    -0.029 C 
ATOM     26  H2  non d ame     -36.140   8.285  30.226  0.00  0.00     0.036 H 
ATOM     27  H3  non d ame     -34.950   8.126  28.913  0.00  0.00     0.036 H 
ATOM     28  H4  non d ame     -34.697   7.267  30.450  0.00  0.00     0.036 H 
ENDBRANCH  21  25
ENDBRANCH  16  19
ENDBRANCH  13  15
BRANCH  13  29
ATOM     29  C8  non d ame     -30.257  14.093  28.494  0.00  0.00    -0.049 C 
ATOM     30  H7  non d ame     -29.459  13.400  28.763  0.00  0.00     0.030 H 
ATOM     31  H8  non d ame     -30.898  13.634  27.742  0.00  0.00     0.030 H 
ATOM     32  H9  non d ame     -29.822  15.008  28.092  0.00  0.00     0.030 H 
ENDBRANCH  13  29
ENDBRANCH  10  13
ENDBRANCH   7   9
BRANCH   7  33
ATOM     33  C11 non d ame     -32.505  18.158  27.131  0.00  0.00    -0.033 C 
ATOM     34  H12 non d ame     -31.434  18.059  27.307  0.00  0.00     0.042 H 
BRANCH  33  35
ATOM     35  C12 non d ame     -32.808  17.545  25.728  0.00  0.00    -0.071 C 
ATOM     36  H13 non d ame     -33.005  16.478  25.832  0.00  0.00     0.028 H 
ATOM     37  H14 non d ame     -33.681  18.035  25.298  0.00  0.00     0.028 H 
ATOM     38  H15 non d ame     -31.949  17.693  25.074  0.00  0.00     0.028 H 
ENDBRANCH  33  35
BRANCH  33  39
ATOM     39  C13 non d ame     -32.864  19.678  27.174  0.00  0.00    -0.071 C 
ATOM     40  H16 non d ame     -32.101  20.215  27.738  0.00  0.00     0.028 H 
ATOM     41  H17 non d ame     -32.910  20.070  26.158  0.00  0.00     0.028 H 
ATOM     42  H18 non d ame     -33.833  19.809  27.657  0.00  0.00     0.028 H 
ENDBRANCH  33  39
ENDBRANCH   7  33
ENDBRANCH   4   7
ENDBRANCH   1   3
BRANCH   1  43
ATOM     43  C15 non d ame     -36.787  14.450  26.507  0.00  0.00     0.240 C 
ATOM     44  O5  non d ame     -37.850  14.066  26.874  0.00  0.00    -0.271 OA
ATOM     45  N6  non d ame     -35.764  13.470  26.043  0.00  0.00    -0.355 N 
ATOM     46  H46 non d ame     -34.859  13.784  25.725  0.00  0.00     0.162 HD
BRANCH  45  47
ATOM     47  C20 non d ame     -36.079  12.024  26.049  0.00  0.00     0.013 C 
ATOM     48  H30 non d ame     -36.984  11.880  26.639  0.00  0.00     0.072 H 
BRANCH  47  49
ATOM     49  C21 non d ame     -34.929  11.266  26.673  0.00  0.00    -0.038 C 
ATOM     50  H31 non d ame     -34.682  11.805  27.588  0.00  0.00     0.036 H 
ATOM     51  H32 non d ame     -35.255  10.227  26.723  0.00  0.00     0.036 H 
BRANCH  49  52
ATOM     52  C22 non d ame     -33.656  11.282  25.800  0.00  0.00     0.018 C 
ATOM     53  H33 non d ame     -33.057  10.436  26.136  0.00  0.00     0.048 H 
ATOM     54  H34 non d ame     -34.006  11.327  24.768  0.00  0.00     0.048 H 
BRANCH  52  55
ATOM     55  C23 non d ame     -32.771  12.542  26.007  0.00  0.00     0.259 C 
ATOM     56  O7  non d ame     -32.967  13.274  26.922  0.00  0.00    -0.265 OA
BRANCH  55  57
ATOM     57  O8  non d ame     -31.727  12.820  25.081  0.00  0.00    -0.317 OA
BRANCH  57  58
ATOM     58  C29 non d ame     -31.359  14.201  25.016  0.00  0.00     0.052 C 
ATOM     59  H47 non d ame     -32.271  14.760  25.227  0.00  0.00     0.082 H 
ATOM     60  H48 non d ame     -30.493  14.306  25.668  0.00  0.00     0.082 H 
BRANCH  58  61
ATOM     61  C35 non d ame     -30.918  14.511  23.560  0.00  0.00    -0.034 A 
ATOM     62  C30 non d ame     -30.055  13.647  22.895  0.00  0.00    -0.075 A 
ATOM     63  C31 non d ame     -29.658  13.926  21.588  0.00  0.00    -0.082 A 
ATOM     64  H49 non d ame     -29.688  12.752  23.397  0.00  0.00     0.084 H 
ATOM     65  C32 non d ame     -30.127  15.076  20.947  0.00  0.00    -0.083 A 
ATOM     66  H50 non d ame     -28.983  13.246  21.068  0.00  0.00     0.083 H 
ATOM     67  C33 non d ame     -30.986  15.937  21.616  0.00  0.00    -0.082 A 
ATOM     68  H51 non d ame     -29.823  15.301  19.925  0.00  0.00     0.083 H 
ATOM     69  C34 non d ame     -31.387  15.661  22.922  0.00  0.00    -0.075 A 
ATOM     70  H52 non d ame     -31.348  16.835  21.114  0.00  0.00     0.083 H 
ATOM     71  H53 non d ame     -32.062  16.342  23.440  0.00  0.00     0.084 H 
ENDBRANCH  58  61
ENDBRANCH  57  58
ENDBRANCH  55  57
ENDBRANCH  52  55
ENDBRANCH  49  52
ENDBRANCH  47  49
BRANCH  47  72
ATOM     72  C24 non d ame     -36.294  11.537  24.618  0.00  0.00    -0.039 C 
ATOM     73  H35 non d ame     -35.740  12.233  23.988  0.00  0.00     0.036 H 
ATOM     74  H36 non d ame     -36.027  10.480  24.628  0.00  0.00     0.036 H 
BRANCH  72  75
ATOM     75  C25 non d ame     -37.834  11.630  24.186  0.00  0.00    -0.001 C 
ATOM     76  C26 non d ame     -38.305  10.219  23.485  0.00  0.00    -0.035 C 
ATOM     77  C27 non d ame     -38.894  10.497  22.297  0.00  0.00     0.085 C 
ATOM     78  H38 non d ame     -37.432   9.631  23.205  0.00  0.00     0.036 H 
ATOM     79  H39 non d ame     -39.107   9.763  24.065  0.00  0.00     0.036 H 
ATOM     80  N5  non d ame     -38.575  11.937  21.972  0.00  0.00    -0.049 N 
ATOM     81  H40 non d ame     -38.401   9.851  21.570  0.00  0.00     0.075 H 
ATOM     82  H41 non d ame     -39.965  10.402  22.473  0.00  0.00     0.075 H 
ATOM     83  C28 non d ame     -38.026  12.590  23.343  0.00  0.00     0.193 C 
ATOM     84  H42 non d ame     -37.821  11.919  21.300  0.00  0.00     0.280 HD
ATOM     85  H43 non d ame     -39.452  12.377  21.735  0.00  0.00     0.280 HD
ATOM     86  H44 non d ame     -38.660  13.250  23.935  0.00  0.00     0.129 H 
ATOM     87  H37 non d ame     -38.464  12.022  24.984  0.00  0.00     0.046 H 
BRANCH  83  88
ATOM     88  O6  non d ame     -36.831  13.332  23.091  0.00  0.00    -0.369 OA
ATOM     89  H45 non d ame     -36.494  13.686  23.918  0.00  0.00     0.212 HD
ENDBRANCH  83  88
ENDBRANCH  72  75
ENDBRANCH  47  72
ENDBRANCH  45  47
ENDBRANCH   1  43
BRANCH   1  90
ATOM     90  C16 non d ame     -36.700  16.541  25.114  0.00  0.00    -0.035 C 
ATOM     91  H21 non d ame     -35.705  16.669  24.689  0.00  0.00     0.037 H 
ATOM     92  H22 non d ame     -37.413  15.866  24.640  0.00  0.00     0.037 H 
BRANCH  90  93
ATOM     93  C17 non d ame     -37.364  17.954  25.114  0.00  0.00    -0.059 C 
ATOM     94  H23 non d ame     -37.944  18.047  24.196  0.00  0.00     0.038 H 
BRANCH  93  95
ATOM     95  C18 non d ame     -38.343  18.146  26.317  0.00  0.00    -0.073 C 
ATOM     96  H24 non d ame     -37.819  18.636  27.137  0.00  0.00     0.028 H 
ATOM     97  H25 non d ame     -39.186  18.762  26.005  0.00  0.00     0.028 H 
ATOM     98  H26 non d ame     -38.706  17.173  26.647  0.00  0.00     0.028 H 
ENDBRANCH  93  95
BRANCH  93  99
ATOM     99  C19 non d ame     -36.302  19.057  25.095  0.00  0.00    -0.073 C 
ATOM    100  H27 non d ame     -36.713  19.949  24.621  0.00  0.00     0.028 H 
ATOM    101  H28 non d ame     -36.005  19.293  26.117  0.00  0.00     0.028 H 
ATOM    102  H29 non d ame     -35.433  18.715  24.534  0.00  0.00     0.028 H 
ENDBRANCH  93  99
ENDBRANCH  90  93
ENDBRANCH   1  90
TORSDOF 26
ENDMDL
MODEL 7
REMARK VINA RESULT:      -6.9      2.480      6.096
REMARK  26 active torsions:
REMARK  status: ('A' for Active; 'I' for Inactive)
REMARK    1  A    between atoms: C2_2  and  C3_3 
REMARK    2  A    between atoms: C4_6  and  C5_7 
REMARK       I    between atoms: C5_7  and  N2_9 
REMARK    3  A    between atoms: N2_9  and  C6_10 
REMARK    4  A    between atoms: C6_10  and  C7_11 
REMARK    5  A    between atoms: C6_10  and  C8_13 
REMARK       I    between atoms: C7_11  and  N3_14 
REMARK    6  A    between atoms: N3_14  and  C9_15 
REMARK    7  A    between atoms: C9_15  and  C10_16 
REMARK    8  A    between atoms: C9_15  and  C11_18 
REMARK       I    between atoms: C10_16  and  N4_21 
REMARK    9  A    between atoms: C11_18  and  C12_19 
REMARK   10  A    between atoms: C11_18  and  C13_20 
REMARK   11  A    between atoms: N4_21  and  C14_22 
REMARK   12  A    between atoms: C14_22  and  C15_23 
REMARK   13  A    between atoms: C14_22  and  C16_25 
REMARK       I    between atoms: C15_23  and  N6_40 
REMARK   14  A    between atoms: C16_25  and  C17_26 
REMARK   15  A    between atoms: C17_26  and  C18_27 
REMARK   16  A    between atoms: C17_26  and  C19_28 
REMARK   17  A    between atoms: C20_29  and  C21_30 
REMARK   18  A    between atoms: C20_29  and  C24_33 
REMARK   19  A    between atoms: C20_29  and  N6_40 
REMARK   20  A    between atoms: C21_30  and  C22_31 
REMARK   21  A    between atoms: C22_31  and  C23_32 
REMARK   22  A    between atoms: C23_32  and  O8_43 
REMARK   23  A    between atoms: C24_33  and  C25_34 
REMARK   24  A    between atoms: C28_38  and  O6_39 
REMARK   25  A    between atoms: C29_42  and  O8_43 
REMARK   26  A    between atoms: C29_42  and  C35_49 
ROOT
ATOM      1  C14 non d ame     -31.251  14.886  24.018  0.00  0.00     0.089 C 
ATOM      2  H20 non d ame     -30.249  14.964  24.442  0.00  0.00     0.087 H 
ENDROOT
BRANCH   1   3
ATOM      3  N4  non d ame     -31.544  13.472  23.843  0.00  0.00    -0.346 N 
ATOM      4  C10 non d ame     -31.266  12.492  24.955  0.00  0.00     0.241 C 
ATOM      5  O4  non d ame     -30.803  12.866  25.982  0.00  0.00    -0.271 OA
ATOM      6  H19 non d ame     -31.936  13.174  22.960  0.00  0.00     0.163 HD
BRANCH   4   7
ATOM      7  C9  non d ame     -31.582  11.033  24.758  0.00  0.00     0.092 C 
ATOM      8  H11 non d ame     -30.952  10.438  25.419  0.00  0.00     0.088 H 
BRANCH   7   9
ATOM      9  N3  non d ame     -32.974  10.778  25.139  0.00  0.00    -0.346 N 
ATOM     10  C7  non d ame     -33.281  10.293  26.463  0.00  0.00     0.240 C 
ATOM     11  O3  non d ame     -32.420  10.101  27.232  0.00  0.00    -0.271 OA
ATOM     12  H10 non d ame     -33.728  10.937  24.486  0.00  0.00     0.163 HD
BRANCH  10  13
ATOM     13  C6  non d ame     -34.765  10.020  26.862  0.00  0.00     0.086 C 
ATOM     14  H6  non d ame     -35.256   9.310  26.198  0.00  0.00     0.086 H 
BRANCH  13  15
ATOM     15  N2  non d ame     -34.795   9.435  28.192  0.00  0.00    -0.343 N 
ATOM     16  C5  non d ame     -34.978   7.990  28.341  0.00  0.00     0.273 C 
ATOM     17  O2  non d ame     -35.103   7.307  27.384  0.00  0.00    -0.266 OA
ATOM     18  H5  non d ame     -34.690  10.027  29.005  0.00  0.00     0.163 HD
BRANCH  16  19
ATOM     19  C4  non d ame     -35.010   7.357  29.741  0.00  0.00     0.154 A 
ATOM     20  C1  non d ame     -34.710   6.001  30.084  0.00  0.00    -0.017 A 
ATOM     21  C2  non d ame     -34.886   5.933  31.485  0.00  0.00     0.077 A 
ATOM     22  H1  non d ame     -34.411   5.190  29.420  0.00  0.00     0.091 H 
ATOM     23  O1  non d ame     -35.244   7.117  31.888  0.00  0.00    -0.218 OA
ATOM     24  N1  non d ame     -35.323   7.965  30.889  0.00  0.00    -0.123 NA
BRANCH  21  25
ATOM     25  C3  non d ame     -34.692   4.701  32.359  0.00  0.00    -0.029 C 
ATOM     26  H2  non d ame     -33.637   4.429  32.375  0.00  0.00     0.036 H 
ATOM     27  H3  non d ame     -35.026   4.920  33.373  0.00  0.00     0.036 H 
ATOM     28  H4  non d ame     -35.275   3.873  31.955  0.00  0.00     0.036 H 
ENDBRANCH  21  25
ENDBRANCH  16  19
ENDBRANCH  13  15
BRANCH  13  29
ATOM     29  C8  non d ame     -35.537  11.314  26.850  0.00  0.00    -0.049 C 
ATOM     30  H7  non d ame     -35.678  11.643  25.820  0.00  0.00     0.030 H 
ATOM     31  H8  non d ame     -36.509  11.161  27.318  0.00  0.00     0.030 H 
ATOM     32  H9  non d ame     -34.983  12.074  27.401  0.00  0.00     0.030 H 
ENDBRANCH  13  29
ENDBRANCH  10  13
ENDBRANCH   7   9
BRANCH   7  33
ATOM     33  C11 non d ame     -31.380  10.656  23.261  0.00  0.00    -0.033 C 
ATOM     34  H12 non d ame     -31.810  11.457  22.659  0.00  0.00     0.042 H 
BRANCH  33  35
ATOM     35  C12 non d ame     -29.865  10.559  22.898  0.00  0.00    -0.071 C 
ATOM     36  H13 non d ame     -29.484   9.580  23.190  0.00  0.00     0.028 H 
ATOM     37  H14 non d ame     -29.740  10.693  21.824  0.00  0.00     0.028 H 
ATOM     38  H15 non d ame     -29.314  11.335  23.429  0.00  0.00     0.028 H 
ENDBRANCH  33  35
BRANCH  33  39
ATOM     39  C13 non d ame     -32.133   9.332  22.911  0.00  0.00    -0.071 C 
ATOM     40  H16 non d ame     -33.169   9.559  22.661  0.00  0.00     0.028 H 
ATOM     41  H17 non d ame     -31.649   8.854  22.058  0.00  0.00     0.028 H 
ATOM     42  H18 non d ame     -32.103   8.660  23.768  0.00  0.00     0.028 H 
ENDBRANCH  33  39
ENDBRANCH   7  33
ENDBRANCH   4   7
ENDBRANCH   1   3
BRANCH   1  43
ATOM     43  C15 non d ame     -32.332  15.505  24.949  0.00  0.00     0.240 C 
ATOM     44  O5  non d ame     -33.443  15.647  24.552  0.00  0.00    -0.271 OA
ATOM     45  N6  non d ame     -31.985  15.913  26.340  0.00  0.00    -0.355 N 
ATOM     46  H46 non d ame     -31.045  15.793  26.691  0.00  0.00     0.162 HD
BRANCH  45  47
ATOM     47  C20 non d ame     -33.025  16.499  27.214  0.00  0.00     0.013 C 
ATOM     48  H30 non d ame     -33.990  16.356  26.728  0.00  0.00     0.072 H 
BRANCH  47  49
ATOM     49  C21 non d ame     -32.751  17.974  27.396  0.00  0.00    -0.038 C 
ATOM     50  H31 non d ame     -33.388  18.292  28.222  0.00  0.00     0.036 H 
ATOM     51  H32 non d ame     -31.668  18.065  27.476  0.00  0.00     0.036 H 
BRANCH  49  52
ATOM     52  C22 non d ame     -33.171  18.817  26.172  0.00  0.00     0.018 C 
ATOM     53  H33 non d ame     -32.404  19.583  26.064  0.00  0.00     0.048 H 
ATOM     54  H34 non d ame     -33.344  18.102  25.367  0.00  0.00     0.048 H 
BRANCH  52  55
ATOM     55  C23 non d ame     -34.512  19.578  26.365  0.00  0.00     0.259 C 
ATOM     56  O7  non d ame     -34.653  20.331  27.274  0.00  0.00    -0.265 OA
BRANCH  55  57
ATOM     57  O8  non d ame     -35.577  19.356  25.449  0.00  0.00    -0.317 OA
BRANCH  57  58
ATOM     58  C29 non d ame     -36.753  18.802  26.047  0.00  0.00     0.052 C 
ATOM     59  H47 non d ame     -36.655  18.988  27.117  0.00  0.00     0.082 H 
ATOM     60  H48 non d ame     -37.592  19.225  25.495  0.00  0.00     0.082 H 
BRANCH  58  61
ATOM     61  C35 non d ame     -36.734  17.268  25.811  0.00  0.00    -0.034 A 
ATOM     62  C30 non d ame     -36.941  16.758  24.533  0.00  0.00    -0.075 A 
ATOM     63  C31 non d ame     -36.924  15.380  24.321  0.00  0.00    -0.082 A 
ATOM     64  H49 non d ame     -37.117  17.437  23.699  0.00  0.00     0.084 H 
ATOM     65  C32 non d ame     -36.701  14.512  25.392  0.00  0.00    -0.083 A 
ATOM     66  H50 non d ame     -37.085  14.983  23.318  0.00  0.00     0.083 H 
ATOM     67  C33 non d ame     -36.498  15.026  26.666  0.00  0.00    -0.082 A 
ATOM     68  H51 non d ame     -36.685  13.433  25.235  0.00  0.00     0.083 H 
ATOM     69  C34 non d ame     -36.512  16.402  26.882  0.00  0.00    -0.075 A 
ATOM     70  H52 non d ame     -36.327  14.345  27.500  0.00  0.00     0.083 H 
ATOM     71  H53 non d ame     -36.351  16.798  27.885  0.00  0.00     0.084 H 
ENDBRANCH  58  61
ENDBRANCH  57  58
ENDBRANCH  55  57
ENDBRANCH  52  55
ENDBRANCH  49  52
ENDBRANCH  47  49
BRANCH  47  72
ATOM     72  C24 non d ame     -33.007  15.805  28.574  0.00  0.00    -0.039 C 
ATOM     73  H35 non d ame     -32.882  16.604  29.306  0.00  0.00     0.036 H 
ATOM     74  H36 non d ame     -33.902  15.183  28.594  0.00  0.00     0.036 H 
BRANCH  72  75
ATOM     75  C25 non d ame     -31.748  14.826  28.724  0.00  0.00    -0.001 C 
ATOM     76  C26 non d ame     -32.263  13.280  28.947  0.00  0.00    -0.035 C 
ATOM     77  C27 non d ame     -31.645  12.767  30.037  0.00  0.00     0.085 C 
ATOM     78  H38 non d ame     -33.317  13.274  29.225  0.00  0.00     0.036 H 
ATOM     79  H39 non d ame     -31.911  12.648  28.132  0.00  0.00     0.036 H 
ATOM     80  N5  non d ame     -31.005  13.923  30.767  0.00  0.00    -0.049 N 
ATOM     81  H40 non d ame     -32.441  12.352  30.655  0.00  0.00     0.075 H 
ATOM     82  H41 non d ame     -30.862  12.116  29.648  0.00  0.00     0.075 H 
ATOM     83  C28 non d ame     -31.013  15.161  29.732  0.00  0.00     0.193 C 
ATOM     84  H42 non d ame     -31.616  14.146  31.540  0.00  0.00     0.280 HD
ATOM     85  H43 non d ame     -30.047  13.655  30.942  0.00  0.00     0.280 HD
ATOM     86  H44 non d ame     -30.098  15.460  29.219  0.00  0.00     0.129 H 
ATOM     87  H37 non d ame     -31.001  14.993  27.948  0.00  0.00     0.046 H 
BRANCH  83  88
ATOM     88  O6  non d ame     -31.491  16.342  30.379  0.00  0.00    -0.369 OA
ATOM     89  H45 non d ame     -30.880  16.595  31.075  0.00  0.00     0.212 HD
ENDBRANCH  83  88
ENDBRANCH  72  75
ENDBRANCH  47  72
ENDBRANCH  45  47
ENDBRANCH   1  43
BRANCH   1  90
ATOM     90  C16 non d ame     -31.290  15.573  22.662  0.00  0.00    -0.035 C 
ATOM     91  H21 non d ame     -32.295  15.401  22.280  0.00  0.00     0.037 H 
ATOM     92  H22 non d ame     -30.942  16.591  22.844  0.00  0.00     0.037 H 
BRANCH  90  93
ATOM     93  C17 non d ame     -30.309  14.952  21.617  0.00  0.00    -0.059 C 
ATOM     94  H23 non d ame     -30.506  13.881  21.575  0.00  0.00     0.038 H 
BRANCH  93  95
ATOM     95  C18 non d ame     -30.530  15.534  20.184  0.00  0.00    -0.073 C 
ATOM     96  H24 non d ame     -31.061  16.483  20.255  0.00  0.00     0.028 H 
ATOM     97  H25 non d ame     -29.565  15.694  19.704  0.00  0.00     0.028 H 
ATOM     98  H26 non d ame     -31.118  14.832  19.593  0.00  0.00     0.028 H 
ENDBRANCH  93  95
BRANCH  93  99
ATOM     99  C19 non d ame     -28.854  15.130  22.059  0.00  0.00    -0.073 C 
ATOM    100  H27 non d ame     -28.824  15.370  23.122  0.00  0.00     0.028 H 
ATOM    101  H28 non d ame     -28.304  14.207  21.879  0.00  0.00     0.028 H 
ATOM    102  H29 non d ame     -28.398  15.940  21.490  0.00  0.00     0.028 H 
ENDBRANCH  93  99
ENDBRANCH  90  93
ENDBRANCH   1  90
TORSDOF 26
ENDMDL
MODEL 8
REMARK VINA RESULT:      -6.8      3.441      7.124
REMARK  26 active torsions:
REMARK  status: ('A' for Active; 'I' for Inactive)
REMARK    1  A    between atoms: C2_2  and  C3_3 
REMARK    2  A    between atoms: C4_6  and  C5_7 
REMARK       I    between atoms: C5_7  and  N2_9 
REMARK    3  A    between atoms: N2_9  and  C6_10 
REMARK    4  A    between atoms: C6_10  and  C7_11 
REMARK    5  A    between atoms: C6_10  and  C8_13 
REMARK       I    between atoms: C7_11  and  N3_14 
REMARK    6  A    between atoms: N3_14  and  C9_15 
REMARK    7  A    between atoms: C9_15  and  C10_16 
REMARK    8  A    between atoms: C9_15  and  C11_18 
REMARK       I    between atoms: C10_16  and  N4_21 
REMARK    9  A    between atoms: C11_18  and  C12_19 
REMARK   10  A    between atoms: C11_18  and  C13_20 
REMARK   11  A    between atoms: N4_21  and  C14_22 
REMARK   12  A    between atoms: C14_22  and  C15_23 
REMARK   13  A    between atoms: C14_22  and  C16_25 
REMARK       I    between atoms: C15_23  and  N6_40 
REMARK   14  A    between atoms: C16_25  and  C17_26 
REMARK   15  A    between atoms: C17_26  and  C18_27 
REMARK   16  A    between atoms: C17_26  and  C19_28 
REMARK   17  A    between atoms: C20_29  and  C21_30 
REMARK   18  A    between atoms: C20_29  and  C24_33 
REMARK   19  A    between atoms: C20_29  and  N6_40 
REMARK   20  A    between atoms: C21_30  and  C22_31 
REMARK   21  A    between atoms: C22_31  and  C23_32 
REMARK   22  A    between atoms: C23_32  and  O8_43 
REMARK   23  A    between atoms: C24_33  and  C25_34 
REMARK   24  A    between atoms: C28_38  and  O6_39 
REMARK   25  A    between atoms: C29_42  and  O8_43 
REMARK   26  A    between atoms: C29_42  and  C35_49 
ROOT
ATOM      1  C14 non d ame     -33.102  10.367  25.657  0.00  0.00     0.089 C 
ATOM      2  H20 non d ame     -33.843  10.404  24.858  0.00  0.00     0.087 H 
ENDROOT
BRANCH   1   3
ATOM      3  N4  non d ame     -32.494   9.045  25.629  0.00  0.00    -0.346 N 
ATOM      4  C10 non d ame     -33.140   7.926  24.851  0.00  0.00     0.241 C 
ATOM      5  O4  non d ame     -34.150   8.113  24.257  0.00  0.00    -0.271 OA
ATOM      6  H19 non d ame     -31.636   8.906  26.144  0.00  0.00     0.163 HD
BRANCH   4   7
ATOM      7  C9  non d ame     -32.494   6.565  24.829  0.00  0.00     0.092 C 
ATOM      8  H11 non d ame     -31.441   6.664  25.092  0.00  0.00     0.088 H 
BRANCH   7   9
ATOM      9  N3  non d ame     -33.116   5.712  25.846  0.00  0.00    -0.346 N 
ATOM     10  C7  non d ame     -32.695   5.808  27.223  0.00  0.00     0.240 C 
ATOM     11  O3  non d ame     -31.856   6.565  27.529  0.00  0.00    -0.271 OA
ATOM     12  H10 non d ame     -33.839   5.053  25.597  0.00  0.00     0.163 HD
BRANCH  10  13
ATOM     13  C6  non d ame     -33.358   4.895  28.300  0.00  0.00     0.086 C 
ATOM     14  H6  non d ame     -32.736   4.767  29.185  0.00  0.00     0.086 H 
BRANCH  13  15
ATOM     15  N2  non d ame     -34.594   5.516  28.747  0.00  0.00    -0.343 N 
ATOM     16  C5  non d ame     -34.931   5.508  30.173  0.00  0.00     0.273 C 
ATOM     17  O2  non d ame     -34.202   4.997  30.951  0.00  0.00    -0.266 OA
ATOM     18  H5  non d ame     -35.213   5.947  28.075  0.00  0.00     0.163 HD
BRANCH  16  19
ATOM     19  C4  non d ame     -36.234   6.161  30.660  0.00  0.00     0.154 A 
ATOM     20  C1  non d ame     -36.530   7.560  30.717  0.00  0.00    -0.017 A 
ATOM     21  C2  non d ame     -37.844   7.632  31.232  0.00  0.00     0.077 A 
ATOM     22  H1  non d ame     -35.891   8.395  30.428  0.00  0.00     0.091 H 
ATOM     23  O1  non d ame     -38.245   6.413  31.442  0.00  0.00    -0.218 OA
ATOM     24  N1  non d ame     -37.323   5.537  31.116  0.00  0.00    -0.123 NA
BRANCH  21  25
ATOM     25  C3  non d ame     -38.641   8.903  31.493  0.00  0.00    -0.029 C 
ATOM     26  H2  non d ame     -39.373   9.043  30.698  0.00  0.00     0.036 H 
ATOM     27  H3  non d ame     -39.156   8.819  32.450  0.00  0.00     0.036 H 
ATOM     28  H4  non d ame     -37.966   9.758  31.519  0.00  0.00     0.036 H 
ENDBRANCH  21  25
ENDBRANCH  16  19
ENDBRANCH  13  15
BRANCH  13  29
ATOM     29  C8  non d ame     -33.646   3.540  27.706  0.00  0.00    -0.049 C 
ATOM     30  H7  non d ame     -34.545   3.596  27.092  0.00  0.00     0.030 H 
ATOM     31  H8  non d ame     -32.804   3.228  27.089  0.00  0.00     0.030 H 
ATOM     32  H9  non d ame     -33.798   2.817  28.508  0.00  0.00     0.030 H 
ENDBRANCH  13  29
ENDBRANCH  10  13
ENDBRANCH   7   9
BRANCH   7  33
ATOM     33  C11 non d ame     -32.689   5.921  23.426  0.00  0.00    -0.033 C 
ATOM     34  H12 non d ame     -33.517   6.438  22.939  0.00  0.00     0.042 H 
BRANCH  33  35
ATOM     35  C12 non d ame     -31.426   6.114  22.531  0.00  0.00    -0.071 C 
ATOM     36  H13 non d ame     -31.711   6.604  21.600  0.00  0.00     0.028 H 
ATOM     37  H14 non d ame     -30.698   6.730  23.058  0.00  0.00     0.028 H 
ATOM     38  H15 non d ame     -30.986   5.142  22.309  0.00  0.00     0.028 H 
ENDBRANCH  33  35
BRANCH  33  39
ATOM     39  C13 non d ame     -33.069   4.411  23.551  0.00  0.00    -0.071 C 
ATOM     40  H16 non d ame     -33.045   3.947  22.565  0.00  0.00     0.028 H 
ATOM     41  H17 non d ame     -32.356   3.910  24.207  0.00  0.00     0.028 H 
ATOM     42  H18 non d ame     -34.071   4.322  23.971  0.00  0.00     0.028 H 
ENDBRANCH  33  39
ENDBRANCH   7  33
ENDBRANCH   4   7
ENDBRANCH   1   3
BRANCH   1  43
ATOM     43  C15 non d ame     -31.983  11.431  25.469  0.00  0.00     0.240 C 
ATOM     44  O5  non d ame     -30.841  11.107  25.542  0.00  0.00    -0.271 OA
ATOM     45  N6  non d ame     -32.334  12.852  25.190  0.00  0.00    -0.355 N 
ATOM     46  H46 non d ame     -33.300  13.138  25.121  0.00  0.00     0.162 HD
BRANCH  45  47
ATOM     47  C20 non d ame     -31.258  13.851  25.012  0.00  0.00     0.013 C 
ATOM     48  H30 non d ame     -30.334  13.315  24.799  0.00  0.00     0.072 H 
BRANCH  47  49
ATOM     49  C21 non d ame     -31.107  14.655  26.284  0.00  0.00    -0.038 C 
ATOM     50  H31 non d ame     -30.144  14.364  26.704  0.00  0.00     0.036 H 
ATOM     51  H32 non d ame     -31.288  15.692  26.000  0.00  0.00     0.036 H 
BRANCH  49  52
ATOM     52  C22 non d ame     -32.171  14.301  27.346  0.00  0.00     0.018 C 
ATOM     53  H33 non d ame     -33.110  14.705  26.970  0.00  0.00     0.048 H 
ATOM     54  H34 non d ame     -32.069  13.229  27.520  0.00  0.00     0.048 H 
BRANCH  52  55
ATOM     55  C23 non d ame     -31.932  14.982  28.722  0.00  0.00     0.259 C 
ATOM     56  O7  non d ame     -31.025  14.646  29.412  0.00  0.00    -0.265 OA
BRANCH  55  57
ATOM     57  O8  non d ame     -32.820  16.005  29.156  0.00  0.00    -0.317 OA
BRANCH  57  58
ATOM     58  C29 non d ame     -33.877  16.288  28.235  0.00  0.00     0.052 C 
ATOM     59  H47 non d ame     -33.865  15.472  27.513  0.00  0.00     0.082 H 
ATOM     60  H48 non d ame     -34.762  16.462  28.847  0.00  0.00     0.082 H 
BRANCH  58  61
ATOM     61  C35 non d ame     -33.527  17.606  27.494  0.00  0.00    -0.034 A 
ATOM     62  C30 non d ame     -32.809  18.603  28.147  0.00  0.00    -0.075 A 
ATOM     63  C31 non d ame     -32.495  19.787  27.481  0.00  0.00    -0.082 A 
ATOM     64  H49 non d ame     -32.493  18.457  29.180  0.00  0.00     0.084 H 
ATOM     65  C32 non d ame     -32.903  19.973  26.157  0.00  0.00    -0.083 A 
ATOM     66  H50 non d ame     -31.931  20.566  27.995  0.00  0.00     0.083 H 
ATOM     67  C33 non d ame     -33.622  18.976  25.511  0.00  0.00    -0.082 A 
ATOM     68  H51 non d ame     -32.661  20.895  25.629  0.00  0.00     0.083 H 
ATOM     69  C34 non d ame     -33.936  17.791  26.172  0.00  0.00    -0.075 A 
ATOM     70  H52 non d ame     -33.941  19.125  24.479  0.00  0.00     0.083 H 
ATOM     71  H53 non d ame     -34.500  17.012  25.657  0.00  0.00     0.084 H 
ENDBRANCH  58  61
ENDBRANCH  57  58
ENDBRANCH  55  57
ENDBRANCH  52  55
ENDBRANCH  49  52
ENDBRANCH  47  49
BRANCH  47  72
ATOM     72  C24 non d ame     -31.607  14.787  23.856  0.00  0.00    -0.039 C 
ATOM     73  H35 non d ame     -32.642  14.557  23.600  0.00  0.00     0.036 H 
ATOM     74  H36 non d ame     -31.340  15.786  24.201  0.00  0.00     0.036 H 
BRANCH  72  75
ATOM     75  C25 non d ame     -30.720  14.482  22.558  0.00  0.00    -0.001 C 
ATOM     76  C26 non d ame     -29.219  13.984  23.010  0.00  0.00    -0.035 C 
ATOM     77  C27 non d ame     -28.297  14.727  22.352  0.00  0.00     0.085 C 
ATOM     78  H38 non d ame     -29.044  14.229  24.057  0.00  0.00     0.036 H 
ATOM     79  H39 non d ame     -29.036  12.972  22.648  0.00  0.00     0.036 H 
ATOM     80  N5  non d ame     -29.027  15.901  21.744  0.00  0.00    -0.049 N 
ATOM     81  H40 non d ame     -27.615  15.092  23.121  0.00  0.00     0.075 H 
ATOM     82  H41 non d ame     -27.924  14.088  21.552  0.00  0.00     0.075 H 
ATOM     83  C28 non d ame     -30.597  15.533  21.818  0.00  0.00     0.193 C 
ATOM     84  H42 non d ame     -28.853  16.691  22.349  0.00  0.00     0.280 HD
ATOM     85  H43 non d ame     -28.750  15.937  20.773  0.00  0.00     0.280 HD
ATOM     86  H44 non d ame     -31.133  15.210  20.925  0.00  0.00     0.129 H 
ATOM     87  H37 non d ame     -31.249  13.865  21.832  0.00  0.00     0.046 H 
BRANCH  83  88
ATOM     88  O6  non d ame     -31.339  16.641  22.329  0.00  0.00    -0.369 OA
ATOM     89  H45 non d ame     -32.279  16.449  22.277  0.00  0.00     0.212 HD
ENDBRANCH  83  88
ENDBRANCH  72  75
ENDBRANCH  47  72
ENDBRANCH  45  47
ENDBRANCH   1  43
BRANCH   1  90
ATOM     90  C16 non d ame     -33.782  10.573  27.001  0.00  0.00    -0.035 C 
ATOM     91  H21 non d ame     -33.836  11.653  27.135  0.00  0.00     0.037 H 
ATOM     92  H22 non d ame     -34.698   9.983  26.954  0.00  0.00     0.037 H 
BRANCH  90  93
ATOM     93  C17 non d ame     -32.962  10.019  28.209  0.00  0.00    -0.059 C 
ATOM     94  H23 non d ame     -32.102   9.483  27.808  0.00  0.00     0.038 H 
BRANCH  93  95
ATOM     95  C18 non d ame     -32.424  11.162  29.129  0.00  0.00    -0.073 C 
ATOM     96  H24 non d ame     -31.603  10.783  29.737  0.00  0.00     0.028 H 
ATOM     97  H25 non d ame     -32.067  11.987  28.513  0.00  0.00     0.028 H 
ATOM     98  H26 non d ame     -33.225  11.514  29.778  0.00  0.00     0.028 H 
ENDBRANCH  93  95
BRANCH  93  99
ATOM     99  C19 non d ame     -33.788   9.014  29.016  0.00  0.00    -0.073 C 
ATOM    100  H27 non d ame     -33.429   8.992  30.046  0.00  0.00     0.028 H 
ATOM    101  H28 non d ame     -34.837   9.312  29.004  0.00  0.00     0.028 H 
ATOM    102  H29 non d ame     -33.687   8.023  28.575  0.00  0.00     0.028 H 
ENDBRANCH  93  99
ENDBRANCH  90  93
ENDBRANCH   1  90
TORSDOF 26
ENDMDL
MODEL 9
REMARK VINA RESULT:      -6.8      3.018      7.589
REMARK  26 active torsions:
REMARK  status: ('A' for Active; 'I' for Inactive)
REMARK    1  A    between atoms: C2_2  and  C3_3 
REMARK    2  A    between atoms: C4_6  and  C5_7 
REMARK       I    between atoms: C5_7  and  N2_9 
REMARK    3  A    between atoms: N2_9  and  C6_10 
REMARK    4  A    between atoms: C6_10  and  C7_11 
REMARK    5  A    between atoms: C6_10  and  C8_13 
REMARK       I    between atoms: C7_11  and  N3_14 
REMARK    6  A    between atoms: N3_14  and  C9_15 
REMARK    7  A    between atoms: C9_15  and  C10_16 
REMARK    8  A    between atoms: C9_15  and  C11_18 
REMARK       I    between atoms: C10_16  and  N4_21 
REMARK    9  A    between atoms: C11_18  and  C12_19 
REMARK   10  A    between atoms: C11_18  and  C13_20 
REMARK   11  A    between atoms: N4_21  and  C14_22 
REMARK   12  A    between atoms: C14_22  and  C15_23 
REMARK   13  A    between atoms: C14_22  and  C16_25 
REMARK       I    between atoms: C15_23  and  N6_40 
REMARK   14  A    between atoms: C16_25  and  C17_26 
REMARK   15  A    between atoms: C17_26  and  C18_27 
REMARK   16  A    between atoms: C17_26  and  C19_28 
REMARK   17  A    between atoms: C20_29  and  C21_30 
REMARK   18  A    between atoms: C20_29  and  C24_33 
REMARK   19  A    between atoms: C20_29  and  N6_40 
REMARK   20  A    between atoms: C21_30  and  C22_31 
REMARK   21  A    between atoms: C22_31  and  C23_32 
REMARK   22  A    between atoms: C23_32  and  O8_43 
REMARK   23  A    between atoms: C24_33  and  C25_34 
REMARK   24  A    between atoms: C28_38  and  O6_39 
REMARK   25  A    between atoms: C29_42  and  O8_43 
REMARK   26  A    between atoms: C29_42  and  C35_49 
ROOT
ATOM      1  C14 non d ame     -35.395  13.999  26.510  0.00  0.00     0.089 C 
ATOM      2  H20 non d ame     -35.723  14.444  27.450  0.00  0.00     0.087 H 
ENDROOT
BRANCH   1   3
ATOM      3  N4  non d ame     -34.428  14.906  25.910  0.00  0.00    -0.346 N 
ATOM      4  C10 non d ame     -33.634  15.853  26.774  0.00  0.00     0.241 C 
ATOM      5  O4  non d ame     -33.794  15.870  27.950  0.00  0.00    -0.271 OA
ATOM      6  H19 non d ame     -34.309  14.878  24.907  0.00  0.00     0.163 HD
BRANCH   4   7
ATOM      7  C9  non d ame     -32.633  16.781  26.137  0.00  0.00     0.092 C 
ATOM      8  H11 non d ame     -31.762  16.869  26.786  0.00  0.00     0.088 H 
BRANCH   7   9
ATOM      9  N3  non d ame     -32.172  16.206  24.869  0.00  0.00    -0.346 N 
ATOM     10  C7  non d ame     -31.200  15.140  24.872  0.00  0.00     0.240 C 
ATOM     11  O3  non d ame     -30.778  14.734  25.885  0.00  0.00    -0.271 OA
ATOM     12  H10 non d ame     -32.526  16.548  23.987  0.00  0.00     0.163 HD
BRANCH  10  13
ATOM     13  C6  non d ame     -30.711  14.535  23.520  0.00  0.00     0.086 C 
ATOM     14  H6  non d ame     -29.644  14.678  23.355  0.00  0.00     0.086 H 
BRANCH  13  15
ATOM     15  N2  non d ame     -30.941  13.100  23.535  0.00  0.00    -0.343 N 
ATOM     16  C5  non d ame     -30.103  12.227  22.710  0.00  0.00     0.273 C 
ATOM     17  O2  non d ame     -29.250  12.689  22.035  0.00  0.00    -0.266 OA
ATOM     18  H5  non d ame     -31.674  12.714  24.113  0.00  0.00     0.163 HD
BRANCH  16  19
ATOM     19  C4  non d ame     -30.333  10.707  22.718  0.00  0.00     0.154 A 
ATOM     20  C1  non d ame     -31.357   9.992  23.416  0.00  0.00    -0.017 A 
ATOM     21  C2  non d ame     -31.134   8.634  23.096  0.00  0.00     0.077 A 
ATOM     22  H1  non d ame     -32.142  10.395  24.055  0.00  0.00     0.091 H 
ATOM     23  O1  non d ame     -30.101   8.586  22.306  0.00  0.00    -0.218 OA
ATOM     24  N1  non d ame     -29.616   9.784  22.071  0.00  0.00    -0.123 NA
BRANCH  21  25
ATOM     25  C3  non d ame     -31.951   7.446  23.586  0.00  0.00    -0.029 C 
ATOM     26  H2  non d ame     -31.407   6.931  24.377  0.00  0.00     0.036 H 
ATOM     27  H3  non d ame     -32.907   7.798  23.973  0.00  0.00     0.036 H 
ATOM     28  H4  non d ame     -32.126   6.759  22.758  0.00  0.00     0.036 H 
ENDBRANCH  21  25
ENDBRANCH  16  19
ENDBRANCH  13  15
BRANCH  13  29
ATOM     29  C8  non d ame     -31.469  15.167  22.380  0.00  0.00    -0.049 C 
ATOM     30  H7  non d ame     -32.289  14.513  22.082  0.00  0.00     0.030 H 
ATOM     31  H8  non d ame     -31.870  16.128  22.700  0.00  0.00     0.030 H 
ATOM     32  H9  non d ame     -30.797  15.316  21.535  0.00  0.00     0.030 H 
ENDBRANCH  13  29
ENDBRANCH  10  13
ENDBRANCH   7   9
BRANCH   7  33
ATOM     33  C11 non d ame     -33.303  18.160  25.865  0.00  0.00    -0.033 C 
ATOM     34  H12 non d ame     -33.134  18.406  24.817  0.00  0.00     0.042 H 
BRANCH  33  35
ATOM     35  C12 non d ame     -34.846  18.096  26.089  0.00  0.00    -0.071 C 
ATOM     36  H13 non d ame     -35.191  19.040  26.510  0.00  0.00     0.028 H 
ATOM     37  H14 non d ame     -35.344  17.919  25.136  0.00  0.00     0.028 H 
ATOM     38  H15 non d ame     -35.080  17.284  26.777  0.00  0.00     0.028 H 
ENDBRANCH  33  35
BRANCH  33  39
ATOM     39  C13 non d ame     -32.650  19.280  26.737  0.00  0.00    -0.071 C 
ATOM     40  H16 non d ame     -32.289  18.849  27.671  0.00  0.00     0.028 H 
ATOM     41  H17 non d ame     -31.815  19.723  26.193  0.00  0.00     0.028 H 
ATOM     42  H18 non d ame     -33.390  20.050  26.953  0.00  0.00     0.028 H 
ENDBRANCH  33  39
ENDBRANCH   7  33
ENDBRANCH   4   7
ENDBRANCH   1   3
BRANCH   1  43
ATOM     43  C15 non d ame     -34.714  12.617  26.721  0.00  0.00     0.240 C 
ATOM     44  O5  non d ame     -34.073  12.134  25.844  0.00  0.00    -0.271 OA
ATOM     45  N6  non d ame     -34.855  11.898  28.019  0.00  0.00    -0.355 N 
ATOM     46  H46 non d ame     -35.393  12.300  28.772  0.00  0.00     0.162 HD
BRANCH  45  47
ATOM     47  C20 non d ame     -34.200  10.585  28.204  0.00  0.00     0.013 C 
ATOM     48  H30 non d ame     -33.971  10.182  27.217  0.00  0.00     0.072 H 
BRANCH  47  49
ATOM     49  C21 non d ame     -35.142   9.655  28.935  0.00  0.00    -0.038 C 
ATOM     50  H31 non d ame     -35.580  10.250  29.737  0.00  0.00     0.036 H 
ATOM     51  H32 non d ame     -35.782   9.221  28.166  0.00  0.00     0.036 H 
BRANCH  49  52
ATOM     52  C22 non d ame     -34.413   8.475  29.614  0.00  0.00     0.018 C 
ATOM     53  H33 non d ame     -34.769   7.578  29.109  0.00  0.00     0.048 H 
ATOM     54  H34 non d ame     -33.353   8.731  29.591  0.00  0.00     0.048 H 
BRANCH  52  55
ATOM     55  C23 non d ame     -34.777   8.294  31.114  0.00  0.00     0.259 C 
ATOM     56  O7  non d ame     -34.501   9.135  31.907  0.00  0.00    -0.265 OA
BRANCH  55  57
ATOM     57  O8  non d ame     -35.434   7.104  31.533  0.00  0.00    -0.317 OA
BRANCH  57  58
ATOM     58  C29 non d ame     -35.266   6.001  30.639  0.00  0.00     0.052 C 
ATOM     59  H47 non d ame     -36.252   5.548  30.540  0.00  0.00     0.082 H 
ATOM     60  H48 non d ame     -34.762   6.406  29.762  0.00  0.00     0.082 H 
BRANCH  58  61
ATOM     61  C35 non d ame     -34.320   4.975  31.318  0.00  0.00    -0.034 A 
ATOM     62  C30 non d ame     -33.253   4.434  30.608  0.00  0.00    -0.075 A 
ATOM     63  C31 non d ame     -32.404   3.512  31.218  0.00  0.00    -0.082 A 
ATOM     64  H49 non d ame     -33.083   4.731  29.573  0.00  0.00     0.084 H 
ATOM     65  C32 non d ame     -32.626   3.129  32.543  0.00  0.00    -0.083 A 
ATOM     66  H50 non d ame     -31.567   3.091  30.659  0.00  0.00     0.083 H 
ATOM     67  C33 non d ame     -33.693   3.669  33.247  0.00  0.00    -0.082 A 
ATOM     68  H51 non d ame     -31.966   2.409  33.028  0.00  0.00     0.083 H 
ATOM     69  C34 non d ame     -34.544   4.592  32.642  0.00  0.00    -0.075 A 
ATOM     70  H52 non d ame     -33.865   3.367  34.281  0.00  0.00     0.083 H 
ATOM     71  H53 non d ame     -35.380   5.013  33.202  0.00  0.00     0.084 H 
ENDBRANCH  58  61
ENDBRANCH  57  58
ENDBRANCH  55  57
ENDBRANCH  52  55
ENDBRANCH  49  52
ENDBRANCH  47  49
BRANCH  47  72
ATOM     72  C24 non d ame     -32.919  10.756  29.018  0.00  0.00    -0.039 C 
ATOM     73  H35 non d ame     -32.989  10.027  29.826  0.00  0.00     0.036 H 
ATOM     74  H36 non d ame     -32.106  10.692  28.295  0.00  0.00     0.036 H 
BRANCH  72  75
ATOM     75  C25 non d ame     -32.837  12.206  29.695  0.00  0.00    -0.001 C 
ATOM     76  C26 non d ame     -31.751  13.140  28.887  0.00  0.00    -0.035 C 
ATOM     77  C27 non d ame     -30.882  13.670  29.781  0.00  0.00     0.085 C 
ATOM     78  H38 non d ame     -31.118  12.516  28.256  0.00  0.00     0.036 H 
ATOM     79  H39 non d ame     -32.248  14.013  28.467  0.00  0.00     0.036 H 
ATOM     80  N5  non d ame     -31.075  12.925  31.080  0.00  0.00    -0.049 N 
ATOM     81  H40 non d ame     -29.889  13.449  29.388  0.00  0.00     0.075 H 
ATOM     82  H41 non d ame     -31.197  14.704  29.915  0.00  0.00     0.075 H 
ATOM     83  C28 non d ame     -32.469  12.125  30.930  0.00  0.00     0.193 C 
ATOM     84  H42 non d ame     -30.323  12.254  31.139  0.00  0.00     0.280 HD
ATOM     85  H43 non d ame     -31.183  13.627  31.798  0.00  0.00     0.280 HD
ATOM     86  H44 non d ame     -33.370  12.483  31.429  0.00  0.00     0.129 H 
ATOM     87  H37 non d ame     -33.823  12.634  29.874  0.00  0.00     0.046 H 
BRANCH  83  88
ATOM     88  O6  non d ame     -32.308  10.771  31.357  0.00  0.00    -0.369 OA
ATOM     89  H45 non d ame     -31.775  10.748  32.155  0.00  0.00     0.212 HD
ENDBRANCH  83  88
ENDBRANCH  72  75
ENDBRANCH  47  72
ENDBRANCH  45  47
ENDBRANCH   1  43
BRANCH   1  90
ATOM     90  C16 non d ame     -36.581  13.847  25.571  0.00  0.00    -0.035 C 
ATOM     91  H21 non d ame     -36.730  14.833  25.132  0.00  0.00     0.037 H 
ATOM     92  H22 non d ame     -36.337  12.998  24.933  0.00  0.00     0.037 H 
BRANCH  90  93
ATOM     93  C17 non d ame     -37.914  13.484  26.299  0.00  0.00    -0.059 C 
ATOM     94  H23 non d ame     -37.697  13.397  27.364  0.00  0.00     0.038 H 
BRANCH  93  95
ATOM     95  C18 non d ame     -39.003  14.591  26.124  0.00  0.00    -0.073 C 
ATOM     96  H24 non d ame     -38.591  15.417  25.546  0.00  0.00     0.028 H 
ATOM     97  H25 non d ame     -39.863  14.175  25.601  0.00  0.00     0.028 H 
ATOM     98  H26 non d ame     -39.313  14.953  27.104  0.00  0.00     0.028 H 
ENDBRANCH  93  95
BRANCH  93  99
ATOM     99  C19 non d ame     -38.440  12.124  25.830  0.00  0.00    -0.073 C 
ATOM    100  H27 non d ame     -39.497  12.211  25.577  0.00  0.00     0.028 H 
ATOM    101  H28 non d ame     -37.881  11.802  24.951  0.00  0.00     0.028 H 
ATOM    102  H29 non d ame     -38.316  11.392  26.628  0.00  0.00     0.028 H 
ENDBRANCH  93  99
ENDBRANCH  90  93
ENDBRANCH   1  90
TORSDOF 26
ENDMDL
MODEL 10
REMARK VINA RESULT:      -6.8      2.041      3.940
REMARK  26 active torsions:
REMARK  status: ('A' for Active; 'I' for Inactive)
REMARK    1  A    between atoms: C2_2  and  C3_3 
REMARK    2  A    between atoms: C4_6  and  C5_7 
REMARK       I    between atoms: C5_7  and  N2_9 
REMARK    3  A    between atoms: N2_9  and  C6_10 
REMARK    4  A    between atoms: C6_10  and  C7_11 
REMARK    5  A    between atoms: C6_10  and  C8_13 
REMARK       I    between atoms: C7_11  and  N3_14 
REMARK    6  A    between atoms: N3_14  and  C9_15 
REMARK    7  A    between atoms: C9_15  and  C10_16 
REMARK    8  A    between atoms: C9_15  and  C11_18 
REMARK       I    between atoms: C10_16  and  N4_21 
REMARK    9  A    between atoms: C11_18  and  C12_19 
REMARK   10  A    between atoms: C11_18  and  C13_20 
REMARK   11  A    between atoms: N4_21  and  C14_22 
REMARK   12  A    between atoms: C14_22  and  C15_23 
REMARK   13  A    between atoms: C14_22  and  C16_25 
REMARK       I    between atoms: C15_23  and  N6_40 
REMARK   14  A    between atoms: C16_25  and  C17_26 
REMARK   15  A    between atoms: C17_26  and  C18_27 
REMARK   16  A    between atoms: C17_26  and  C19_28 
REMARK   17  A    between atoms: C20_29  and  C21_30 
REMARK   18  A    between atoms: C20_29  and  C24_33 
REMARK   19  A    between atoms: C20_29  and  N6_40 
REMARK   20  A    between atoms: C21_30  and  C22_31 
REMARK   21  A    between atoms: C22_31  and  C23_32 
REMARK   22  A    between atoms: C23_32  and  O8_43 
REMARK   23  A    between atoms: C24_33  and  C25_34 
REMARK   24  A    between atoms: C28_38  and  O6_39 
REMARK   25  A    between atoms: C29_42  and  O8_43 
REMARK   26  A    between atoms: C29_42  and  C35_49 
ROOT
ATOM      1  C14 non d ame     -30.747  14.164  23.563  0.00  0.00     0.089 C 
ATOM      2  H20 non d ame     -29.657  14.162  23.573  0.00  0.00     0.087 H 
ENDROOT
BRANCH   1   3
ATOM      3  N4  non d ame     -31.191  12.812  23.866  0.00  0.00    -0.346 N 
ATOM      4  C10 non d ame     -30.547  11.629  23.189  0.00  0.00     0.241 C 
ATOM      5  O4  non d ame     -29.674  11.791  22.401  0.00  0.00    -0.271 OA
ATOM      6  H19 non d ame     -31.937  12.696  24.537  0.00  0.00     0.163 HD
BRANCH   4   7
ATOM      7  C9  non d ame     -31.015  10.236  23.518  0.00  0.00     0.092 C 
ATOM      8  H11 non d ame     -30.538   9.906  24.441  0.00  0.00     0.088 H 
BRANCH   7   9
ATOM      9  N3  non d ame     -32.461  10.251  23.759  0.00  0.00    -0.346 N 
ATOM     10  C7  non d ame     -33.016   9.494  24.855  0.00  0.00     0.240 C 
ATOM     11  O3  non d ame     -32.315   8.866  25.550  0.00  0.00    -0.271 OA
ATOM     12  H10 non d ame     -33.079  10.786  23.167  0.00  0.00     0.163 HD
BRANCH  10  13
ATOM     13  C6  non d ame     -34.557   9.511  25.104  0.00  0.00     0.086 C 
ATOM     14  H6  non d ame     -35.099   8.836  24.442  0.00  0.00     0.086 H 
BRANCH  13  15
ATOM     15  N2  non d ame     -34.819   9.060  26.461  0.00  0.00    -0.343 N 
ATOM     16  C5  non d ame     -35.264   7.684  26.691  0.00  0.00     0.273 C 
ATOM     17  O2  non d ame     -35.411   6.948  25.778  0.00  0.00    -0.266 OA
ATOM     18  H5  non d ame     -34.693   9.697  27.236  0.00  0.00     0.163 HD
BRANCH  16  19
ATOM     19  C4  non d ame     -35.544   7.195  28.121  0.00  0.00     0.154 A 
ATOM     20  C1  non d ame     -34.666   6.442  28.964  0.00  0.00    -0.017 A 
ATOM     21  C2  non d ame     -35.390   6.250  30.162  0.00  0.00     0.077 A 
ATOM     22  H1  non d ame     -33.659   6.090  28.741  0.00  0.00     0.091 H 
ATOM     23  O1  non d ame     -36.545   6.829  30.014  0.00  0.00    -0.218 OA
ATOM     24  N1  non d ame     -36.659   7.387  28.831  0.00  0.00    -0.123 NA
BRANCH  21  25
ATOM     25  C3  non d ame     -34.906   5.503  31.398  0.00  0.00    -0.029 C 
ATOM     26  H2  non d ame     -34.341   6.183  32.035  0.00  0.00     0.036 H 
ATOM     27  H3  non d ame     -35.763   5.118  31.949  0.00  0.00     0.036 H 
ATOM     28  H4  non d ame     -34.267   4.674  31.095  0.00  0.00     0.036 H 
ENDBRANCH  21  25
ENDBRANCH  16  19
ENDBRANCH  13  15
BRANCH  13  29
ATOM     29  C8  non d ame     -35.084  10.910  24.913  0.00  0.00    -0.049 C 
ATOM     30  H7  non d ame     -35.764  10.928  24.062  0.00  0.00     0.030 H 
ATOM     31  H8  non d ame     -35.617  11.223  25.811  0.00  0.00     0.030 H 
ATOM     32  H9  non d ame     -34.252  11.590  24.728  0.00  0.00     0.030 H 
ENDBRANCH  13  29
ENDBRANCH  10  13
ENDBRANCH   7   9
BRANCH   7  33
ATOM     33  C11 non d ame     -30.701   9.287  22.325  0.00  0.00    -0.033 C 
ATOM     34  H12 non d ame     -30.472   9.911  21.460  0.00  0.00     0.042 H 
BRANCH  33  35
ATOM     35  C12 non d ame     -29.444   8.407  22.614  0.00  0.00    -0.071 C 
ATOM     36  H13 non d ame     -28.542   8.986  22.416  0.00  0.00     0.028 H 
ATOM     37  H14 non d ame     -29.454   8.093  23.657  0.00  0.00     0.028 H 
ATOM     38  H15 non d ame     -29.460   7.529  21.968  0.00  0.00     0.028 H 
ENDBRANCH  33  35
BRANCH  33  39
ATOM     39  C13 non d ame     -31.941   8.405  21.970  0.00  0.00    -0.071 C 
ATOM     40  H16 non d ame     -31.748   7.373  22.264  0.00  0.00     0.028 H 
ATOM     41  H17 non d ame     -32.816   8.778  22.503  0.00  0.00     0.028 H 
ATOM     42  H18 non d ame     -32.123   8.450  20.896  0.00  0.00     0.028 H 
ENDBRANCH  33  39
ENDBRANCH   7  33
ENDBRANCH   4   7
ENDBRANCH   1   3
BRANCH   1  43
ATOM     43  C15 non d ame     -31.341  15.131  24.627  0.00  0.00     0.240 C 
ATOM     44  O5  non d ame     -30.709  16.069  24.993  0.00  0.00    -0.271 OA
ATOM     45  N6  non d ame     -32.703  14.892  25.185  0.00  0.00    -0.355 N 
ATOM     46  H46 non d ame     -33.251  14.101  24.879  0.00  0.00     0.162 HD
BRANCH  45  47
ATOM     47  C20 non d ame     -33.254  15.821  26.196  0.00  0.00     0.013 C 
ATOM     48  H30 non d ame     -32.536  16.628  26.337  0.00  0.00     0.072 H 
BRANCH  47  49
ATOM     49  C21 non d ame     -33.460  15.079  27.497  0.00  0.00    -0.038 C 
ATOM     50  H31 non d ame     -34.506  14.772  27.499  0.00  0.00     0.036 H 
ATOM     51  H32 non d ame     -32.671  14.328  27.535  0.00  0.00     0.036 H 
BRANCH  49  52
ATOM     52  C22 non d ame     -33.266  15.979  28.737  0.00  0.00     0.018 C 
ATOM     53  H33 non d ame     -33.277  17.002  28.363  0.00  0.00     0.048 H 
ATOM     54  H34 non d ame     -34.016  15.653  29.458  0.00  0.00     0.048 H 
BRANCH  52  55
ATOM     55  C23 non d ame     -31.890  15.794  29.436  0.00  0.00     0.259 C 
ATOM     56  O7  non d ame     -31.505  16.590  30.230  0.00  0.00    -0.265 OA
BRANCH  55  57
ATOM     57  O8  non d ame     -31.087  14.667  29.107  0.00  0.00    -0.317 OA
BRANCH  57  58
ATOM     58  C29 non d ame     -30.885  13.759  30.193  0.00  0.00     0.052 C 
ATOM     59  H47 non d ame     -29.824  13.508  30.175  0.00  0.00     0.082 H 
ATOM     60  H48 non d ame     -31.315  14.246  31.069  0.00  0.00     0.082 H 
BRANCH  58  61
ATOM     61  C35 non d ame     -31.699  12.471  29.899  0.00  0.00    -0.034 A 
ATOM     62  C30 non d ame     -32.347  11.805  30.934  0.00  0.00    -0.075 A 
ATOM     63  C31 non d ame     -33.079  10.647  30.671  0.00  0.00    -0.082 A 
ATOM     64  H49 non d ame     -32.282  12.189  31.953  0.00  0.00     0.084 H 
ATOM     65  C32 non d ame     -33.158  10.155  29.365  0.00  0.00    -0.083 A 
ATOM     66  H50 non d ame     -33.587  10.129  31.484  0.00  0.00     0.083 H 
ATOM     67  C33 non d ame     -32.507  10.821  28.336  0.00  0.00    -0.082 A 
ATOM     68  H51 non d ame     -33.728   9.251  29.150  0.00  0.00     0.083 H 
ATOM     69  C34 non d ame     -31.777  11.979  28.595  0.00  0.00    -0.075 A 
ATOM     70  H52 non d ame     -32.569  10.432  27.319  0.00  0.00     0.083 H 
ATOM     71  H53 non d ame     -31.269  12.497  27.781  0.00  0.00     0.084 H 
ENDBRANCH  58  61
ENDBRANCH  57  58
ENDBRANCH  55  57
ENDBRANCH  52  55
ENDBRANCH  49  52
ENDBRANCH  47  49
BRANCH  47  72
ATOM     72  C24 non d ame     -34.590  16.378  25.710  0.00  0.00    -0.039 C 
ATOM     73  H35 non d ame     -34.686  16.043  24.677  0.00  0.00     0.036 H 
ATOM     74  H36 non d ame     -35.323  16.066  26.454  0.00  0.00     0.036 H 
BRANCH  72  75
ATOM     75  C25 non d ame     -34.592  17.980  25.689  0.00  0.00    -0.001 C 
ATOM     76  C26 non d ame     -33.084  18.546  26.023  0.00  0.00    -0.035 C 
ATOM     77  C27 non d ame     -33.172  19.461  27.017  0.00  0.00     0.085 C 
ATOM     78  H38 non d ame     -32.476  17.754  26.458  0.00  0.00     0.036 H 
ATOM     79  H39 non d ame     -32.706  19.123  25.179  0.00  0.00     0.036 H 
ATOM     80  N5  non d ame     -34.552  19.332  27.615  0.00  0.00    -0.049 N 
ATOM     81  H40 non d ame     -32.433  19.156  27.759  0.00  0.00     0.075 H 
ATOM     82  H41 non d ame     -33.085  20.431  26.529  0.00  0.00     0.075 H 
ATOM     83  C28 non d ame     -35.411  18.459  26.565  0.00  0.00     0.193 C 
ATOM     84  H42 non d ame     -34.446  18.799  28.467  0.00  0.00     0.280 HD
ATOM     85  H43 non d ame     -34.937  20.266  27.648  0.00  0.00     0.280 HD
ATOM     86  H44 non d ame     -36.141  18.938  25.912  0.00  0.00     0.129 H 
ATOM     87  H37 non d ame     -35.087  18.381  24.805  0.00  0.00     0.046 H 
BRANCH  83  88
ATOM     88  O6  non d ame     -36.129  17.430  27.250  0.00  0.00    -0.369 OA
ATOM     89  H45 non d ame     -36.082  16.616  26.743  0.00  0.00     0.212 HD
ENDBRANCH  83  88
ENDBRANCH  72  75
ENDBRANCH  47  72
ENDBRANCH  45  47
ENDBRANCH   1  43
BRANCH   1  90
ATOM     90  C16 non d ame     -31.249  14.554  22.182  0.00  0.00    -0.035 C 
ATOM     91  H21 non d ame     -31.781  13.679  21.811  0.00  0.00     0.037 H 
ATOM     92  H22 non d ame     -31.780  15.496  22.323  0.00  0.00     0.037 H 
BRANCH  90  93
ATOM     93  C17 non d ame     -30.105  14.841  21.158  0.00  0.00    -0.059 C 
ATOM     94  H23 non d ame     -29.814  13.890  20.712  0.00  0.00     0.038 H 
BRANCH  93  95
ATOM     95  C18 non d ame     -30.571  15.785  20.003  0.00  0.00    -0.073 C 
ATOM     96  H24 non d ame     -31.035  15.193  19.215  0.00  0.00     0.028 H 
ATOM     97  H25 non d ame     -31.294  16.503  20.390  0.00  0.00     0.028 H 
ATOM     98  H26 non d ame     -29.711  16.317  19.600  0.00  0.00     0.028 H 
ENDBRANCH  93  95
BRANCH  93  99
ATOM     99  C19 non d ame     -28.871  15.410  21.862  0.00  0.00    -0.073 C 
ATOM    100  H27 non d ame     -28.216  15.878  21.126  0.00  0.00     0.028 H 
ATOM    101  H28 non d ame     -29.181  16.153  22.596  0.00  0.00     0.028 H 
ATOM    102  H29 non d ame     -28.336  14.605  22.365  0.00  0.00     0.028 H 
ENDBRANCH  93  99
ENDBRANCH  90  93
ENDBRANCH   1  90
TORSDOF 26
ENDMDL
MODEL 11
REMARK VINA RESULT:      -6.8      3.056      9.065
REMARK  26 active torsions:
REMARK  status: ('A' for Active; 'I' for Inactive)
REMARK    1  A    between atoms: C2_2  and  C3_3 
REMARK    2  A    between atoms: C4_6  and  C5_7 
REMARK       I    between atoms: C5_7  and  N2_9 
REMARK    3  A    between atoms: N2_9  and  C6_10 
REMARK    4  A    between atoms: C6_10  and  C7_11 
REMARK    5  A    between atoms: C6_10  and  C8_13 
REMARK       I    between atoms: C7_11  and  N3_14 
REMARK    6  A    between atoms: N3_14  and  C9_15 
REMARK    7  A    between atoms: C9_15  and  C10_16 
REMARK    8  A    between atoms: C9_15  and  C11_18 
REMARK       I    between atoms: C10_16  and  N4_21 
REMARK    9  A    between atoms: C11_18  and  C12_19 
REMARK   10  A    between atoms: C11_18  and  C13_20 
REMARK   11  A    between atoms: N4_21  and  C14_22 
REMARK   12  A    between atoms: C14_22  and  C15_23 
REMARK   13  A    between atoms: C14_22  and  C16_25 
REMARK       I    between atoms: C15_23  and  N6_40 
REMARK   14  A    between atoms: C16_25  and  C17_26 
REMARK   15  A    between atoms: C17_26  and  C18_27 
REMARK   16  A    between atoms: C17_26  and  C19_28 
REMARK   17  A    between atoms: C20_29  and  C21_30 
REMARK   18  A    between atoms: C20_29  and  C24_33 
REMARK   19  A    between atoms: C20_29  and  N6_40 
REMARK   20  A    between atoms: C21_30  and  C22_31 
REMARK   21  A    between atoms: C22_31  and  C23_32 
REMARK   22  A    between atoms: C23_32  and  O8_43 
REMARK   23  A    between atoms: C24_33  and  C25_34 
REMARK   24  A    between atoms: C28_38  and  O6_39 
REMARK   25  A    between atoms: C29_42  and  O8_43 
REMARK   26  A    between atoms: C29_42  and  C35_49 
ROOT
ATOM      1  C14 non d ame     -33.623   6.911  27.578  0.00  0.00     0.089 C 
ATOM      2  H20 non d ame     -33.115   6.586  28.487  0.00  0.00     0.087 H 
ENDROOT
BRANCH   1   3
ATOM      3  N4  non d ame     -34.052   8.287  27.784  0.00  0.00    -0.346 N 
ATOM      4  C10 non d ame     -34.634   8.713  29.107  0.00  0.00     0.241 C 
ATOM      5  O4  non d ame     -34.751   7.931  29.992  0.00  0.00    -0.271 OA
ATOM      6  H19 non d ame     -33.946   8.937  27.017  0.00  0.00     0.163 HD
BRANCH   4   7
ATOM      7  C9  non d ame     -35.068  10.142  29.304  0.00  0.00     0.092 C 
ATOM      8  H11 non d ame     -35.394  10.279  30.335  0.00  0.00     0.088 H 
BRANCH   7   9
ATOM      9  N3  non d ame     -33.924  11.034  29.089  0.00  0.00    -0.346 N 
ATOM     10  C7  non d ame     -32.955  11.229  30.139  0.00  0.00     0.240 C 
ATOM     11  O3  non d ame     -33.080  10.677  31.164  0.00  0.00    -0.271 OA
ATOM     12  H10 non d ame     -33.804  11.519  28.211  0.00  0.00     0.163 HD
BRANCH  10  13
ATOM     13  C6  non d ame     -31.742  12.182  29.906  0.00  0.00     0.086 C 
ATOM     14  H6  non d ame     -31.191  11.948  28.995  0.00  0.00     0.086 H 
BRANCH  13  15
ATOM     15  N2  non d ame     -32.232  13.542  29.757  0.00  0.00    -0.343 N 
ATOM     16  C5  non d ame     -31.542  14.463  28.852  0.00  0.00     0.273 C 
ATOM     17  O2  non d ame     -30.591  14.101  28.250  0.00  0.00    -0.266 OA
ATOM     18  H5  non d ame     -33.044  13.843  30.278  0.00  0.00     0.163 HD
BRANCH  16  19
ATOM     19  C4  non d ame     -32.051  15.903  28.684  0.00  0.00     0.154 A 
ATOM     20  C1  non d ame     -32.765  16.443  27.568  0.00  0.00    -0.017 A 
ATOM     21  C2  non d ame     -32.998  17.796  27.905  0.00  0.00     0.077 A 
ATOM     22  H1  non d ame     -33.069  15.933  26.654  0.00  0.00     0.091 H 
ATOM     23  O1  non d ame     -32.475  17.997  29.079  0.00  0.00    -0.218 OA
ATOM     24  N1  non d ame     -31.917  16.908  29.554  0.00  0.00    -0.123 NA
BRANCH  21  25
ATOM     25  C3  non d ame     -33.726  18.825  27.052  0.00  0.00    -0.029 C 
ATOM     26  H2  non d ame     -34.753  18.927  27.402  0.00  0.00     0.036 H 
ATOM     27  H3  non d ame     -33.219  19.786  27.130  0.00  0.00     0.036 H 
ATOM     28  H4  non d ame     -33.728  18.499  26.012  0.00  0.00     0.036 H 
ENDBRANCH  21  25
ENDBRANCH  16  19
ENDBRANCH  13  15
BRANCH  13  29
ATOM     29  C8  non d ame     -30.800  12.098  31.080  0.00  0.00    -0.049 C 
ATOM     30  H7  non d ame     -29.869  11.624  30.766  0.00  0.00     0.030 H 
ATOM     31  H8  non d ame     -30.590  13.101  31.449  0.00  0.00     0.030 H 
ATOM     32  H9  non d ame     -31.258  11.507  31.872  0.00  0.00     0.030 H 
ENDBRANCH  13  29
ENDBRANCH  10  13
ENDBRANCH   7   9
BRANCH   7  33
ATOM     33  C11 non d ame     -36.191  10.489  28.284  0.00  0.00    -0.033 C 
ATOM     34  H12 non d ame     -36.277   9.651  27.592  0.00  0.00     0.042 H 
BRANCH  33  35
ATOM     35  C12 non d ame     -37.572  10.654  28.993  0.00  0.00    -0.071 C 
ATOM     36  H13 non d ame     -37.508  10.263  30.009  0.00  0.00     0.028 H 
ATOM     37  H14 non d ame     -37.839  11.709  29.026  0.00  0.00     0.028 H 
ATOM     38  H15 non d ame     -38.332  10.103  28.440  0.00  0.00     0.028 H 
ENDBRANCH  33  35
BRANCH  33  39
ATOM     39  C13 non d ame     -35.823  11.762  27.458  0.00  0.00    -0.071 C 
ATOM     40  H16 non d ame     -35.770  12.624  28.123  0.00  0.00     0.028 H 
ATOM     41  H17 non d ame     -34.857  11.615  26.974  0.00  0.00     0.028 H 
ATOM     42  H18 non d ame     -36.585  11.936  26.698  0.00  0.00     0.028 H 
ENDBRANCH  33  39
ENDBRANCH   7  33
ENDBRANCH   4   7
ENDBRANCH   1   3
BRANCH   1  43
ATOM     43  C15 non d ame     -32.688   6.864  26.335  0.00  0.00     0.240 C 
ATOM     44  O5  non d ame     -31.809   6.066  26.287  0.00  0.00    -0.271 OA
ATOM     45  N6  non d ame     -32.895   7.809  25.201  0.00  0.00    -0.355 N 
ATOM     46  H46 non d ame     -33.642   8.488  25.228  0.00  0.00     0.162 HD
BRANCH  45  47
ATOM     47  C20 non d ame     -31.999   7.751  24.026  0.00  0.00     0.013 C 
ATOM     48  H30 non d ame     -31.064   7.287  24.340  0.00  0.00     0.072 H 
BRANCH  47  49
ATOM     49  C21 non d ame     -31.738   9.154  23.527  0.00  0.00    -0.038 C 
ATOM     50  H31 non d ame     -30.695   9.362  23.765  0.00  0.00     0.036 H 
ATOM     51  H32 non d ame     -32.073   9.164  22.489  0.00  0.00     0.036 H 
BRANCH  49  52
ATOM     52  C22 non d ame     -32.576  10.219  24.266  0.00  0.00     0.018 C 
ATOM     53  H33 non d ame     -32.743  11.017  23.544  0.00  0.00     0.048 H 
ATOM     54  H34 non d ame     -33.424   9.683  24.693  0.00  0.00     0.048 H 
BRANCH  52  55
ATOM     55  C23 non d ame     -31.837  10.875  25.466  0.00  0.00     0.259 C 
ATOM     56  O7  non d ame     -32.041  10.504  26.576  0.00  0.00    -0.265 OA
BRANCH  55  57
ATOM     57  O8  non d ame     -30.921  11.936  25.224  0.00  0.00    -0.317 OA
BRANCH  57  58
ATOM     58  C29 non d ame     -31.541  13.213  25.051  0.00  0.00     0.052 C 
ATOM     59  H47 non d ame     -32.601  13.008  24.900  0.00  0.00     0.082 H 
ATOM     60  H48 non d ame     -31.218  13.815  25.899  0.00  0.00     0.082 H 
BRANCH  58  61
ATOM     61  C35 non d ame     -30.974  13.849  23.753  0.00  0.00    -0.034 A 
ATOM     62  C30 non d ame     -31.366  15.130  23.377  0.00  0.00    -0.075 A 
ATOM     63  C31 non d ame     -30.857  15.701  22.211  0.00  0.00    -0.082 A 
ATOM     64  H49 non d ame     -32.071  15.686  23.995  0.00  0.00     0.084 H 
ATOM     65  C32 non d ame     -29.955  14.985  21.419  0.00  0.00    -0.083 A 
ATOM     66  H50 non d ame     -31.164  16.706  21.920  0.00  0.00     0.083 H 
ATOM     67  C33 non d ame     -29.571  13.706  21.797  0.00  0.00    -0.082 A 
ATOM     68  H51 non d ame     -29.552  15.424  20.507  0.00  0.00     0.083 H 
ATOM     69  C34 non d ame     -30.075  13.132  22.962  0.00  0.00    -0.075 A 
ATOM     70  H52 non d ame     -28.869  13.149  21.176  0.00  0.00     0.083 H 
ATOM     71  H53 non d ame     -29.767  12.127  23.253  0.00  0.00     0.084 H 
ENDBRANCH  58  61
ENDBRANCH  57  58
ENDBRANCH  55  57
ENDBRANCH  52  55
ENDBRANCH  49  52
ENDBRANCH  47  49
BRANCH  47  72
ATOM     72  C24 non d ame     -32.654   6.929  22.917  0.00  0.00    -0.039 C 
ATOM     73  H35 non d ame     -31.943   6.135  22.686  0.00  0.00     0.036 H 
ATOM     74  H36 non d ame     -33.647   6.678  23.290  0.00  0.00     0.036 H 
BRANCH  72  75
ATOM     75  C25 non d ame     -32.853   7.788  21.581  0.00  0.00    -0.001 C 
ATOM     76  C26 non d ame     -34.453   8.081  21.336  0.00  0.00    -0.035 C 
ATOM     77  C27 non d ame     -34.774   7.720  20.070  0.00  0.00     0.085 C 
ATOM     78  H38 non d ame     -35.053   7.412  21.952  0.00  0.00     0.036 H 
ATOM     79  H39 non d ame     -34.643   9.154  21.351  0.00  0.00     0.036 H 
ATOM     80  N5  non d ame     -33.619   6.906  19.537  0.00  0.00    -0.049 N 
ATOM     81  H40 non d ame     -35.649   7.077  20.164  0.00  0.00     0.075 H 
ATOM     82  H41 non d ame     -34.840   8.652  19.510  0.00  0.00     0.075 H 
ATOM     83  C28 non d ame     -32.389   7.165  20.550  0.00  0.00     0.193 C 
ATOM     84  H42 non d ame     -33.895   5.937  19.607  0.00  0.00     0.280 HD
ATOM     85  H43 non d ame     -33.384   7.301  18.637  0.00  0.00     0.280 HD
ATOM     86  H44 non d ame     -31.570   7.827  20.269  0.00  0.00     0.129 H 
ATOM     87  H37 non d ame     -32.180   8.645  21.536  0.00  0.00     0.046 H 
BRANCH  83  88
ATOM     88  O6  non d ame     -31.772   5.925  20.903  0.00  0.00    -0.369 OA
ATOM     89  H45 non d ame     -31.269   6.037  21.712  0.00  0.00     0.212 HD
ENDBRANCH  83  88
ENDBRANCH  72  75
ENDBRANCH  47  72
ENDBRANCH  45  47
ENDBRANCH   1  43
BRANCH   1  90
ATOM     90  C16 non d ame     -34.845   6.042  27.332  0.00  0.00    -0.035 C 
ATOM     91  H21 non d ame     -35.677   6.577  27.789  0.00  0.00     0.037 H 
ATOM     92  H22 non d ame     -34.848   5.845  26.259  0.00  0.00     0.037 H 
BRANCH  90  93
ATOM     93  C17 non d ame     -34.776   4.650  28.036  0.00  0.00    -0.059 C 
ATOM     94  H23 non d ame     -35.749   4.460  28.490  0.00  0.00     0.038 H 
BRANCH  93  95
ATOM     95  C18 non d ame     -34.487   3.492  27.027  0.00  0.00    -0.073 C 
ATOM     96  H24 non d ame     -34.967   3.713  26.074  0.00  0.00     0.028 H 
ATOM     97  H25 non d ame     -33.412   3.399  26.879  0.00  0.00     0.028 H 
ATOM     98  H26 non d ame     -34.881   2.557  27.424  0.00  0.00     0.028 H 
ENDBRANCH  93  95
BRANCH  93  99
ATOM     99  C19 non d ame     -33.742   4.659  29.165  0.00  0.00    -0.073 C 
ATOM    100  H27 non d ame     -33.231   5.622  29.182  0.00  0.00     0.028 H 
ATOM    101  H28 non d ame     -34.244   4.497  30.119  0.00  0.00     0.028 H 
ATOM    102  H29 non d ame     -33.015   3.864  28.999  0.00  0.00     0.028 H 
ENDBRANCH  93  99
ENDBRANCH  90  93
ENDBRANCH   1  90
TORSDOF 26
ENDMDL
MODEL 12
REMARK VINA RESULT:      -6.8      2.429      6.039
REMARK  26 active torsions:
REMARK  status: ('A' for Active; 'I' for Inactive)
REMARK    1  A    between atoms: C2_2  and  C3_3 
REMARK    2  A    between atoms: C4_6  and  C5_7 
REMARK       I    between atoms: C5_7  and  N2_9 
REMARK    3  A    between atoms: N2_9  and  C6_10 
REMARK    4  A    between atoms: C6_10  and  C7_11 
REMARK    5  A    between atoms: C6_10  and  C8_13 
REMARK       I    between atoms: C7_11  and  N3_14 
REMARK    6  A    between atoms: N3_14  and  C9_15 
REMARK    7  A    between atoms: C9_15  and  C10_16 
REMARK    8  A    between atoms: C9_15  and  C11_18 
REMARK       I    between atoms: C10_16  and  N4_21 
REMARK    9  A    between atoms: C11_18  and  C12_19 
REMARK   10  A    between atoms: C11_18  and  C13_20 
REMARK   11  A    between atoms: N4_21  and  C14_22 
REMARK   12  A    between atoms: C14_22  and  C15_23 
REMARK   13  A    between atoms: C14_22  and  C16_25 
REMARK       I    between atoms: C15_23  and  N6_40 
REMARK   14  A    between atoms: C16_25  and  C17_26 
REMARK   15  A    between atoms: C17_26  and  C18_27 
REMARK   16  A    between atoms: C17_26  and  C19_28 
REMARK   17  A    between atoms: C20_29  and  C21_30 
REMARK   18  A    between atoms: C20_29  and  C24_33 
REMARK   19  A    between atoms: C20_29  and  N6_40 
REMARK   20  A    between atoms: C21_30  and  C22_31 
REMARK   21  A    between atoms: C22_31  and  C23_32 
REMARK   22  A    between atoms: C23_32  and  O8_43 
REMARK   23  A    between atoms: C24_33  and  C25_34 
REMARK   24  A    between atoms: C28_38  and  O6_39 
REMARK   25  A    between atoms: C29_42  and  O8_43 
REMARK   26  A    between atoms: C29_42  and  C35_49 
ROOT
ATOM      1  C14 non d ame     -31.187  13.690  24.509  0.00  0.00     0.089 C 
ATOM      2  H20 non d ame     -30.220  13.680  25.013  0.00  0.00     0.087 H 
ENDROOT
BRANCH   1   3
ATOM      3  N4  non d ame     -31.434  12.346  24.009  0.00  0.00    -0.346 N 
ATOM      4  C10 non d ame     -31.215  11.150  24.900  0.00  0.00     0.241 C 
ATOM      5  O4  non d ame     -30.837  11.294  26.016  0.00  0.00    -0.271 OA
ATOM      6  H19 non d ame     -31.754  12.245  23.056  0.00  0.00     0.163 HD
BRANCH   4   7
ATOM      7  C9  non d ame     -31.482   9.766  24.368  0.00  0.00     0.092 C 
ATOM      8  H11 non d ame     -30.812   9.059  24.858  0.00  0.00     0.088 H 
BRANCH   7   9
ATOM      9  N3  non d ame     -32.852   9.369  24.703  0.00  0.00    -0.346 N 
ATOM     10  C7  non d ame     -33.094   8.484  25.816  0.00  0.00     0.240 C 
ATOM     11  O3  non d ame     -32.197   8.081  26.452  0.00  0.00    -0.271 OA
ATOM     12  H10 non d ame     -33.636   9.706  24.163  0.00  0.00     0.163 HD
BRANCH  10  13
ATOM     13  C6  non d ame     -34.555   8.062  26.166  0.00  0.00     0.086 C 
ATOM     14  H6  non d ame     -34.667   6.984  26.280  0.00  0.00     0.086 H 
BRANCH  13  15
ATOM     15  N2  non d ame     -34.924   8.654  27.441  0.00  0.00    -0.343 N 
ATOM     16  C5  non d ame     -34.870   7.841  28.658  0.00  0.00     0.273 C 
ATOM     17  O2  non d ame     -34.530   6.710  28.600  0.00  0.00    -0.266 OA
ATOM     18  H5  non d ame     -35.216   9.621  27.481  0.00  0.00     0.163 HD
BRANCH  16  19
ATOM     19  C4  non d ame     -35.256   8.455  30.012  0.00  0.00     0.154 A 
ATOM     20  C1  non d ame     -34.705   9.629  30.618  0.00  0.00    -0.017 A 
ATOM     21  C2  non d ame     -35.395   9.763  31.844  0.00  0.00     0.077 A 
ATOM     22  H1  non d ame     -33.925  10.283  30.228  0.00  0.00     0.091 H 
ATOM     23  O1  non d ame     -36.240   8.777  31.922  0.00  0.00    -0.218 OA
ATOM     24  N1  non d ame     -36.178   8.001  30.866  0.00  0.00    -0.123 NA
BRANCH  21  25
ATOM     25  C3  non d ame     -35.186  10.859  32.880  0.00  0.00    -0.029 C 
ATOM     26  H2  non d ame     -35.924  10.753  33.675  0.00  0.00     0.036 H 
ATOM     27  H3  non d ame     -34.185  10.774  33.302  0.00  0.00     0.036 H 
ATOM     28  H4  non d ame     -35.299  11.834  32.406  0.00  0.00     0.036 H 
ENDBRANCH  21  25
ENDBRANCH  16  19
ENDBRANCH  13  15
BRANCH  13  29
ATOM     29  C8  non d ame     -35.491   8.538  25.085  0.00  0.00    -0.049 C 
ATOM     30  H7  non d ame     -36.173   7.731  24.814  0.00  0.00     0.030 H 
ATOM     31  H8  non d ame     -36.064   9.390  25.450  0.00  0.00     0.030 H 
ATOM     32  H9  non d ame     -34.914   8.835  24.209  0.00  0.00     0.030 H 
ENDBRANCH  13  29
ENDBRANCH  10  13
ENDBRANCH   7   9
BRANCH   7  33
ATOM     33  C11 non d ame     -31.307   9.763  22.821  0.00  0.00    -0.033 C 
ATOM     34  H12 non d ame     -31.709  10.703  22.443  0.00  0.00     0.042 H 
BRANCH  33  35
ATOM     35  C12 non d ame     -29.801   9.701  22.419  0.00  0.00    -0.071 C 
ATOM     36  H13 non d ame     -29.322   8.865  22.930  0.00  0.00     0.028 H 
ATOM     37  H14 non d ame     -29.718   9.564  21.341  0.00  0.00     0.028 H 
ATOM     38  H15 non d ame     -29.310  10.631  22.707  0.00  0.00     0.028 H 
ENDBRANCH  33  35
BRANCH  33  39
ATOM     39  C13 non d ame     -32.116   8.595  22.169  0.00  0.00    -0.071 C 
ATOM     40  H16 non d ame     -33.044   8.985  21.751  0.00  0.00     0.028 H 
ATOM     41  H17 non d ame     -31.522   8.141  21.376  0.00  0.00     0.028 H 
ATOM     42  H18 non d ame     -32.344   7.845  22.926  0.00  0.00     0.028 H 
ENDBRANCH  33  39
ENDBRANCH   7  33
ENDBRANCH   4   7
ENDBRANCH   1   3
BRANCH   1  43
ATOM     43  C15 non d ame     -32.346  14.083  25.469  0.00  0.00     0.240 C 
ATOM     44  O5  non d ame     -33.394  13.528  25.388  0.00  0.00    -0.271 OA
ATOM     45  N6  non d ame     -32.146  15.144  26.497  0.00  0.00    -0.355 N 
ATOM     46  H46 non d ame     -31.259  15.618  26.579  0.00  0.00     0.162 HD
BRANCH  45  47
ATOM     47  C20 non d ame     -33.258  15.505  27.403  0.00  0.00     0.013 C 
ATOM     48  H30 non d ame     -34.066  14.791  27.243  0.00  0.00     0.072 H 
BRANCH  47  49
ATOM     49  C21 non d ame     -33.732  16.903  27.080  0.00  0.00    -0.038 C 
ATOM     50  H31 non d ame     -34.313  16.813  26.162  0.00  0.00     0.036 H 
ATOM     51  H32 non d ame     -34.206  17.271  27.991  0.00  0.00     0.036 H 
BRANCH  49  52
ATOM     52  C22 non d ame     -32.572  17.873  26.770  0.00  0.00     0.018 C 
ATOM     53  H33 non d ame     -31.710  17.486  27.312  0.00  0.00     0.048 H 
ATOM     54  H34 non d ame     -32.539  17.957  25.683  0.00  0.00     0.048 H 
BRANCH  52  55
ATOM     55  C23 non d ame     -32.800  19.315  27.304  0.00  0.00     0.259 C 
ATOM     56  O7  non d ame     -32.383  19.637  28.369  0.00  0.00    -0.265 OA
BRANCH  55  57
ATOM     57  O8  non d ame     -33.526  20.245  26.510  0.00  0.00    -0.317 OA
BRANCH  57  58
ATOM     58  C29 non d ame     -34.784  20.631  27.070  0.00  0.00     0.052 C 
ATOM     59  H47 non d ame     -34.681  20.499  28.147  0.00  0.00     0.082 H 
ATOM     60  H48 non d ame     -34.999  21.618  26.660  0.00  0.00     0.082 H 
BRANCH  58  61
ATOM     61  C35 non d ame     -35.862  19.641  26.554  0.00  0.00    -0.034 A 
ATOM     62  C30 non d ame     -36.713  19.007  27.454  0.00  0.00    -0.075 A 
ATOM     63  C31 non d ame     -37.681  18.117  26.992  0.00  0.00    -0.082 A 
ATOM     64  H49 non d ame     -36.620  19.206  28.522  0.00  0.00     0.084 H 
ATOM     65  C32 non d ame     -37.796  17.860  25.623  0.00  0.00    -0.083 A 
ATOM     66  H50 non d ame     -38.347  17.622  27.699  0.00  0.00     0.083 H 
ATOM     67  C33 non d ame     -36.943  18.494  24.729  0.00  0.00    -0.082 A 
ATOM     68  H51 non d ame     -38.550  17.167  25.252  0.00  0.00     0.083 H 
ATOM     69  C34 non d ame     -35.975  19.385  25.187  0.00  0.00    -0.075 A 
ATOM     70  H52 non d ame     -37.034  18.290  23.661  0.00  0.00     0.083 H 
ATOM     71  H53 non d ame     -35.310  19.879  24.478  0.00  0.00     0.084 H 
ENDBRANCH  58  61
ENDBRANCH  57  58
ENDBRANCH  55  57
ENDBRANCH  52  55
ENDBRANCH  49  52
ENDBRANCH  47  49
BRANCH  47  72
ATOM     72  C24 non d ame     -32.781  15.450  28.853  0.00  0.00    -0.039 C 
ATOM     73  H35 non d ame     -32.329  16.423  29.046  0.00  0.00     0.036 H 
ATOM     74  H36 non d ame     -33.646  15.127  29.431  0.00  0.00     0.036 H 
BRANCH  72  75
ATOM     75  C25 non d ame     -31.636  14.348  29.059  0.00  0.00    -0.001 C 
ATOM     76  C26 non d ame     -32.310  12.920  29.519  0.00  0.00    -0.035 C 
ATOM     77  C27 non d ame     -31.674  12.476  30.630  0.00  0.00     0.085 C 
ATOM     78  H38 non d ame     -33.333  13.082  29.858  0.00  0.00     0.036 H 
ATOM     79  H39 non d ame     -32.096  12.150  28.779  0.00  0.00     0.036 H 
ATOM     80  N5  non d ame     -30.851  13.626  31.157  0.00  0.00    -0.049 N 
ATOM     81  H40 non d ame     -32.464  12.247  31.345  0.00  0.00     0.075 H 
ATOM     82  H41 non d ame     -31.005  11.688  30.287  0.00  0.00     0.075 H 
ATOM     83  C28 non d ame     -30.793  14.714  29.965  0.00  0.00     0.193 C 
ATOM     84  H42 non d ame     -31.371  14.021  31.928  0.00  0.00     0.280 HD
ATOM     85  H43 non d ame     -29.920  13.265  31.309  0.00  0.00     0.280 HD
ATOM     86  H44 non d ame     -29.891  14.827  29.363  0.00  0.00     0.129 H 
ATOM     87  H37 non d ame     -30.936  14.319  28.224  0.00  0.00     0.046 H 
BRANCH  83  88
ATOM     88  O6  non d ame     -31.079  16.018  30.474  0.00  0.00    -0.369 OA
ATOM     89  H45 non d ame     -30.262  16.513  30.564  0.00  0.00     0.212 HD
ENDBRANCH  83  88
ENDBRANCH  72  75
ENDBRANCH  47  72
ENDBRANCH  45  47
ENDBRANCH   1  43
BRANCH   1  90
ATOM     90  C16 non d ame     -31.146  14.656  23.335  0.00  0.00    -0.035 C 
ATOM     91  H21 non d ame     -32.107  14.542  22.834  0.00  0.00     0.037 H 
ATOM     92  H22 non d ame     -30.865  15.619  23.764  0.00  0.00     0.037 H 
BRANCH  90  93
ATOM     93  C17 non d ame     -30.052  14.309  22.276  0.00  0.00    -0.059 C 
ATOM     94  H23 non d ame     -29.980  13.223  22.219  0.00  0.00     0.038 H 
BRANCH  93  95
ATOM     95  C18 non d ame     -30.422  14.837  20.852  0.00  0.00    -0.073 C 
ATOM     96  H24 non d ame     -31.488  15.058  20.813  0.00  0.00     0.028 H 
ATOM     97  H25 non d ame     -29.855  15.743  20.643  0.00  0.00     0.028 H 
ATOM     98  H26 non d ame     -30.181  14.077  20.109  0.00  0.00     0.028 H 
ENDBRANCH  93  95
BRANCH  93  99
ATOM     99  C19 non d ame     -28.682  14.833  22.712  0.00  0.00    -0.073 C 
ATOM    100  H27 non d ame     -27.906  14.386  22.090  0.00  0.00     0.028 H 
ATOM    101  H28 non d ame     -28.656  15.918  22.602  0.00  0.00     0.028 H 
ATOM    102  H29 non d ame     -28.508  14.570  23.755  0.00  0.00     0.028 H 
ENDBRANCH  93  99
ENDBRANCH  90  93
ENDBRANCH   1  90
TORSDOF 26
ENDMDL
MODEL 13
REMARK VINA RESULT:      -6.7      2.238      8.531
REMARK  26 active torsions:
REMARK  status: ('A' for Active; 'I' for Inactive)
REMARK    1  A    between atoms: C2_2  and  C3_3 
REMARK    2  A    between atoms: C4_6  and  C5_7 
REMARK       I    between atoms: C5_7  and  N2_9 
REMARK    3  A    between atoms: N2_9  and  C6_10 
REMARK    4  A    between atoms: C6_10  and  C7_11 
REMARK    5  A    between atoms: C6_10  and  C8_13 
REMARK       I    between atoms: C7_11  and  N3_14 
REMARK    6  A    between atoms: N3_14  and  C9_15 
REMARK    7  A    between atoms: C9_15  and  C10_16 
REMARK    8  A    between atoms: C9_15  and  C11_18 
REMARK       I    between atoms: C10_16  and  N4_21 
REMARK    9  A    between atoms: C11_18  and  C12_19 
REMARK   10  A    between atoms: C11_18  and  C13_20 
REMARK   11  A    between atoms: N4_21  and  C14_22 
REMARK   12  A    between atoms: C14_22  and  C15_23 
REMARK   13  A    between atoms: C14_22  and  C16_25 
REMARK       I    between atoms: C15_23  and  N6_40 
REMARK   14  A    between atoms: C16_25  and  C17_26 
REMARK   15  A    between atoms: C17_26  and  C18_27 
REMARK   16  A    between atoms: C17_26  and  C19_28 
REMARK   17  A    between atoms: C20_29  and  C21_30 
REMARK   18  A    between atoms: C20_29  and  C24_33 
REMARK   19  A    between atoms: C20_29  and  N6_40 
REMARK   20  A    between atoms: C21_30  and  C22_31 
REMARK   21  A    between atoms: C22_31  and  C23_32 
REMARK   22  A    between atoms: C23_32  and  O8_43 
REMARK   23  A    between atoms: C24_33  and  C25_34 
REMARK   24  A    between atoms: C28_38  and  O6_39 
REMARK   25  A    between atoms: C29_42  and  O8_43 
REMARK   26  A    between atoms: C29_42  and  C35_49 
ROOT
ATOM      1  C14 non d ame     -37.530  13.740  25.107  0.00  0.00     0.089 C 
ATOM      2  H20 non d ame     -38.554  13.814  25.476  0.00  0.00     0.087 H 
ENDROOT
BRANCH   1   3
ATOM      3  N4  non d ame     -36.959  15.078  25.130  0.00  0.00    -0.346 N 
ATOM      4  C10 non d ame     -37.397  16.076  26.172  0.00  0.00     0.241 C 
ATOM      5  O4  non d ame     -38.214  15.780  26.980  0.00  0.00    -0.271 OA
ATOM      6  H19 non d ame     -36.267  15.311  24.431  0.00  0.00     0.163 HD
BRANCH   4   7
ATOM      7  C9  non d ame     -36.790  17.455  26.184  0.00  0.00     0.092 C 
ATOM      8  H11 non d ame     -37.225  18.031  27.001  0.00  0.00     0.088 H 
BRANCH   7   9
ATOM      9  N3  non d ame     -35.351  17.354  26.443  0.00  0.00    -0.346 N 
ATOM     10  C7  non d ame     -34.788  17.958  27.626  0.00  0.00     0.240 C 
ATOM     11  O3  non d ame     -35.478  18.531  28.378  0.00  0.00    -0.271 OA
ATOM     12  H10 non d ame     -34.743  16.864  25.803  0.00  0.00     0.163 HD
BRANCH  10  13
ATOM     13  C6  non d ame     -33.255  17.850  27.895  0.00  0.00     0.086 C 
ATOM     14  H6  non d ame     -32.953  18.346  28.817  0.00  0.00     0.086 H 
BRANCH  13  15
ATOM     15  N2  non d ame     -32.900  16.448  28.042  0.00  0.00    -0.343 N 
ATOM     16  C5  non d ame     -32.103  16.022  29.195  0.00  0.00     0.273 C 
ATOM     17  O2  non d ame     -31.751  16.816  29.997  0.00  0.00    -0.266 OA
ATOM     18  H5  non d ame     -33.203  15.777  27.350  0.00  0.00     0.163 HD
BRANCH  16  19
ATOM     19  C4  non d ame     -31.722  14.543  29.363  0.00  0.00     0.154 A 
ATOM     20  C1  non d ame     -32.527  13.502  29.924  0.00  0.00    -0.017 A 
ATOM     21  C2  non d ame     -31.724  12.341  29.848  0.00  0.00     0.077 A 
ATOM     22  H1  non d ame     -33.538  13.576  30.325  0.00  0.00     0.091 H 
ATOM     23  O1  non d ame     -30.594  12.687  29.305  0.00  0.00    -0.218 OA
ATOM     24  N1  non d ame     -30.569  13.967  29.013  0.00  0.00    -0.123 NA
BRANCH  21  25
ATOM     25  C3  non d ame     -32.112  10.945  30.316  0.00  0.00    -0.029 C 
ATOM     26  H2  non d ame     -33.194  10.831  30.262  0.00  0.00     0.036 H 
ATOM     27  H3  non d ame     -31.637  10.203  29.675  0.00  0.00     0.036 H 
ATOM     28  H4  non d ame     -31.782  10.801  31.345  0.00  0.00     0.036 H 
ENDBRANCH  21  25
ENDBRANCH  16  19
ENDBRANCH  13  15
BRANCH  13  29
ATOM     29  C8  non d ame     -32.495  18.457  26.743  0.00  0.00    -0.049 C 
ATOM     30  H7  non d ame     -31.670  19.057  27.128  0.00  0.00     0.030 H 
ATOM     31  H8  non d ame     -32.102  17.663  26.109  0.00  0.00     0.030 H 
ATOM     32  H9  non d ame     -33.164  19.091  26.161  0.00  0.00     0.030 H 
ENDBRANCH  13  29
ENDBRANCH  10  13
ENDBRANCH   7   9
BRANCH   7  33
ATOM     33  C11 non d ame     -37.019  18.134  24.802  0.00  0.00    -0.033 C 
ATOM     34  H12 non d ame     -36.466  17.560  24.058  0.00  0.00     0.042 H 
BRANCH  33  35
ATOM     35  C12 non d ame     -38.525  18.102  24.394  0.00  0.00    -0.071 C 
ATOM     36  H13 non d ame     -38.707  18.843  23.616  0.00  0.00     0.028 H 
ATOM     37  H14 non d ame     -38.778  17.111  24.019  0.00  0.00     0.028 H 
ATOM     38  H15 non d ame     -39.141  18.330  25.264  0.00  0.00     0.028 H 
ENDBRANCH  33  35
BRANCH  33  39
ATOM     39  C13 non d ame     -36.462  19.594  24.797  0.00  0.00    -0.071 C 
ATOM     40  H16 non d ame     -35.729  19.706  25.596  0.00  0.00     0.028 H 
ATOM     41  H17 non d ame     -35.988  19.799  23.837  0.00  0.00     0.028 H 
ATOM     42  H18 non d ame     -37.281  20.296  24.954  0.00  0.00     0.028 H 
ENDBRANCH  33  39
ENDBRANCH   7  33
ENDBRANCH   4   7
ENDBRANCH   1   3
BRANCH   1  43
ATOM     43  C15 non d ame     -36.652  12.811  25.993  0.00  0.00     0.240 C 
ATOM     44  O5  non d ame     -36.852  12.749  27.163  0.00  0.00    -0.271 OA
ATOM     45  N6  non d ame     -35.567  11.992  25.381  0.00  0.00    -0.355 N 
ATOM     46  H46 non d ame     -35.391  12.033  24.388  0.00  0.00     0.162 HD
BRANCH  45  47
ATOM     47  C20 non d ame     -34.742  11.113  26.237  0.00  0.00     0.013 C 
ATOM     48  H30 non d ame     -35.401  10.636  26.962  0.00  0.00     0.072 H 
BRANCH  47  49
ATOM     49  C21 non d ame     -33.702  11.945  26.954  0.00  0.00    -0.038 C 
ATOM     50  H31 non d ame     -34.255  12.741  27.453  0.00  0.00     0.036 H 
ATOM     51  H32 non d ame     -33.113  11.239  27.540  0.00  0.00     0.036 H 
BRANCH  49  52
ATOM     52  C22 non d ame     -32.718  12.637  25.986  0.00  0.00     0.018 C 
ATOM     53  H33 non d ame     -31.732  12.518  26.434  0.00  0.00     0.048 H 
ATOM     54  H34 non d ame     -32.924  12.214  25.002  0.00  0.00     0.048 H 
BRANCH  52  55
ATOM     55  C23 non d ame     -32.945  14.168  25.850  0.00  0.00     0.259 C 
ATOM     56  O7  non d ame     -34.037  14.627  25.947  0.00  0.00    -0.265 OA
BRANCH  55  57
ATOM     57  O8  non d ame     -31.833  15.018  25.596  0.00  0.00    -0.317 OA
BRANCH  57  58
ATOM     58  C29 non d ame     -30.693  14.340  25.060  0.00  0.00     0.052 C 
ATOM     59  H47 non d ame     -29.832  14.749  25.588  0.00  0.00     0.082 H 
ATOM     60  H48 non d ame     -30.921  13.277  25.131  0.00  0.00     0.082 H 
BRANCH  58  61
ATOM     61  C35 non d ame     -30.574  14.716  23.559  0.00  0.00    -0.034 A 
ATOM     62  C30 non d ame     -31.145  15.895  23.089  0.00  0.00    -0.075 A 
ATOM     63  C31 non d ame     -31.038  16.233  21.740  0.00  0.00    -0.082 A 
ATOM     64  H49 non d ame     -31.676  16.553  23.776  0.00  0.00     0.084 H 
ATOM     65  C32 non d ame     -30.359  15.385  20.860  0.00  0.00    -0.083 A 
ATOM     66  H50 non d ame     -31.485  17.158  21.375  0.00  0.00     0.083 H 
ATOM     67  C33 non d ame     -29.795  14.209  21.333  0.00  0.00    -0.082 A 
ATOM     68  H51 non d ame     -30.271  15.643  19.805  0.00  0.00     0.083 H 
ATOM     69  C34 non d ame     -29.897  13.868  22.680  0.00  0.00    -0.075 A 
ATOM     70  H52 non d ame     -29.268  13.549  20.643  0.00  0.00     0.083 H 
ATOM     71  H53 non d ame     -29.450  12.943  23.045  0.00  0.00     0.084 H 
ENDBRANCH  58  61
ENDBRANCH  57  58
ENDBRANCH  55  57
ENDBRANCH  52  55
ENDBRANCH  49  52
ENDBRANCH  47  49
BRANCH  47  72
ATOM     72  C24 non d ame     -34.047  10.059  25.378  0.00  0.00    -0.039 C 
ATOM     73  H35 non d ame     -34.645   9.987  24.468  0.00  0.00     0.036 H 
ATOM     74  H36 non d ame     -33.005  10.371  25.321  0.00  0.00     0.036 H 
BRANCH  72  75
ATOM     75  C25 non d ame     -34.071   8.616  26.074  0.00  0.00    -0.001 C 
ATOM     76  C26 non d ame     -34.942   8.681  27.467  0.00  0.00    -0.035 C 
ATOM     77  C27 non d ame     -34.201   8.151  28.470  0.00  0.00     0.085 C 
ATOM     78  H38 non d ame     -35.080   9.718  27.774  0.00  0.00     0.036 H 
ATOM     79  H39 non d ame     -35.800   8.013  27.404  0.00  0.00     0.036 H 
ATOM     80  N5  non d ame     -32.786   8.030  27.957  0.00  0.00    -0.049 N 
ATOM     81  H40 non d ame     -34.227   8.888  29.272  0.00  0.00     0.075 H 
ATOM     82  H41 non d ame     -34.606   7.153  28.634  0.00  0.00     0.075 H 
ATOM     83  C28 non d ame     -32.877   8.213  26.355  0.00  0.00     0.193 C 
ATOM     84  H42 non d ame     -32.275   8.811  28.341  0.00  0.00     0.280 HD
ATOM     85  H43 non d ame     -32.490   7.085  28.156  0.00  0.00     0.280 HD
ATOM     86  H44 non d ame     -32.798   7.350  25.694  0.00  0.00     0.129 H 
ATOM     87  H37 non d ame     -34.321   7.822  25.370  0.00  0.00     0.046 H 
BRANCH  83  88
ATOM     88  O6  non d ame     -31.879   9.131  25.907  0.00  0.00    -0.369 OA
ATOM     89  H45 non d ame     -31.697   9.770  26.600  0.00  0.00     0.212 HD
ENDBRANCH  83  88
ENDBRANCH  72  75
ENDBRANCH  47  72
ENDBRANCH  45  47
ENDBRANCH   1  43
BRANCH   1  90
ATOM     90  C16 non d ame     -37.535  13.227  23.676  0.00  0.00    -0.035 C 
ATOM     91  H21 non d ame     -36.669  13.687  23.201  0.00  0.00     0.037 H 
ATOM     92  H22 non d ame     -37.599  12.142  23.759  0.00  0.00     0.037 H 
BRANCH  90  93
ATOM     93  C17 non d ame     -38.781  13.681  22.851  0.00  0.00    -0.059 C 
ATOM     94  H23 non d ame     -39.175  12.804  22.338  0.00  0.00     0.038 H 
BRANCH  93  95
ATOM     95  C18 non d ame     -39.916  14.248  23.763  0.00  0.00    -0.073 C 
ATOM     96  H24 non d ame     -39.502  15.004  24.430  0.00  0.00     0.028 H 
ATOM     97  H25 non d ame     -40.690  14.698  23.142  0.00  0.00     0.028 H 
ATOM     98  H26 non d ame     -40.347  13.439  24.352  0.00  0.00     0.028 H 
ENDBRANCH  93  95
BRANCH  93  99
ATOM     99  C19 non d ame     -38.386  14.697  21.777  0.00  0.00    -0.073 C 
ATOM    100  H27 non d ame     -39.202  14.808  21.063  0.00  0.00     0.028 H 
ATOM    101  H28 non d ame     -38.180  15.660  22.246  0.00  0.00     0.028 H 
ATOM    102  H29 non d ame     -37.493  14.349  21.258  0.00  0.00     0.028 H 
ENDBRANCH  93  99
ENDBRANCH  90  93
ENDBRANCH   1  90
TORSDOF 26
ENDMDL
MODEL 14
REMARK VINA RESULT:      -6.7      2.704      7.551
REMARK  26 active torsions:
REMARK  status: ('A' for Active; 'I' for Inactive)
REMARK    1  A    between atoms: C2_2  and  C3_3 
REMARK    2  A    between atoms: C4_6  and  C5_7 
REMARK       I    between atoms: C5_7  and  N2_9 
REMARK    3  A    between atoms: N2_9  and  C6_10 
REMARK    4  A    between atoms: C6_10  and  C7_11 
REMARK    5  A    between atoms: C6_10  and  C8_13 
REMARK       I    between atoms: C7_11  and  N3_14 
REMARK    6  A    between atoms: N3_14  and  C9_15 
REMARK    7  A    between atoms: C9_15  and  C10_16 
REMARK    8  A    between atoms: C9_15  and  C11_18 
REMARK       I    between atoms: C10_16  and  N4_21 
REMARK    9  A    between atoms: C11_18  and  C12_19 
REMARK   10  A    between atoms: C11_18  and  C13_20 
REMARK   11  A    between atoms: N4_21  and  C14_22 
REMARK   12  A    between atoms: C14_22  and  C15_23 
REMARK   13  A    between atoms: C14_22  and  C16_25 
REMARK       I    between atoms: C15_23  and  N6_40 
REMARK   14  A    between atoms: C16_25  and  C17_26 
REMARK   15  A    between atoms: C17_26  and  C18_27 
REMARK   16  A    between atoms: C17_26  and  C19_28 
REMARK   17  A    between atoms: C20_29  and  C21_30 
REMARK   18  A    between atoms: C20_29  and  C24_33 
REMARK   19  A    between atoms: C20_29  and  N6_40 
REMARK   20  A    between atoms: C21_30  and  C22_31 
REMARK   21  A    between atoms: C22_31  and  C23_32 
REMARK   22  A    between atoms: C23_32  and  O8_43 
REMARK   23  A    between atoms: C24_33  and  C25_34 
REMARK   24  A    between atoms: C28_38  and  O6_39 
REMARK   25  A    between atoms: C29_42  and  O8_43 
REMARK   26  A    between atoms: C29_42  and  C35_49 
ROOT
ATOM      1  C14 non d ame     -37.264  16.240  26.992  0.00  0.00     0.089 C 
ATOM      2  H20 non d ame     -37.572  16.353  28.032  0.00  0.00     0.087 H 
ENDROOT
BRANCH   1   3
ATOM      3  N4  non d ame     -35.816  16.383  26.946  0.00  0.00    -0.346 N 
ATOM      4  C10 non d ame     -35.100  17.216  27.978  0.00  0.00     0.241 C 
ATOM      5  O4  non d ame     -35.710  17.766  28.835  0.00  0.00    -0.271 OA
ATOM      6  H19 non d ame     -35.316  15.909  26.207  0.00  0.00     0.163 HD
BRANCH   4   7
ATOM      7  C9  non d ame     -33.601  17.348  27.919  0.00  0.00     0.092 C 
ATOM      8  H11 non d ame     -33.265  17.997  28.728  0.00  0.00     0.088 H 
BRANCH   7   9
ATOM      9  N3  non d ame     -32.985  16.035  28.131  0.00  0.00    -0.346 N 
ATOM     10  C7  non d ame     -32.074  15.836  29.232  0.00  0.00     0.240 C 
ATOM     11  O3  non d ame     -31.824  16.722  29.954  0.00  0.00    -0.271 OA
ATOM     12  H10 non d ame     -33.190  15.262  27.515  0.00  0.00     0.163 HD
BRANCH  10  13
ATOM     13  C6  non d ame     -31.420  14.437  29.451  0.00  0.00     0.086 C 
ATOM     14  H6  non d ame     -30.689  14.435  30.260  0.00  0.00     0.086 H 
BRANCH  13  15
ATOM     15  N2  non d ame     -32.454  13.486  29.824  0.00  0.00    -0.343 N 
ATOM     16  C5  non d ame     -32.101  12.316  30.631  0.00  0.00     0.273 C 
ATOM     17  O2  non d ame     -30.982  12.148  30.973  0.00  0.00    -0.266 OA
ATOM     18  H5  non d ame     -33.407  13.637  29.525  0.00  0.00     0.163 HD
BRANCH  16  19
ATOM     19  C4  non d ame     -33.185  11.304  31.034  0.00  0.00     0.154 A 
ATOM     20  C1  non d ame     -33.552  10.108  30.339  0.00  0.00    -0.017 A 
ATOM     21  C2  non d ame     -34.587   9.540  31.115  0.00  0.00     0.077 A 
ATOM     22  H1  non d ame     -33.132   9.713  29.414  0.00  0.00     0.091 H 
ATOM     23  O1  non d ame     -34.782  10.325  32.134  0.00  0.00    -0.218 OA
ATOM     24  N1  non d ame     -33.976  11.361  32.109  0.00  0.00    -0.123 NA
BRANCH  21  25
ATOM     25  C3  non d ame     -35.335   8.248  30.813  0.00  0.00    -0.029 C 
ATOM     26  H2  non d ame     -35.250   7.572  31.664  0.00  0.00     0.036 H 
ATOM     27  H3  non d ame     -36.386   8.471  30.630  0.00  0.00     0.036 H 
ATOM     28  H4  non d ame     -34.904   7.777  29.930  0.00  0.00     0.036 H 
ENDBRANCH  21  25
ENDBRANCH  16  19
ENDBRANCH  13  15
BRANCH  13  29
ATOM     29  C8  non d ame     -30.742  13.991  28.181  0.00  0.00    -0.049 C 
ATOM     30  H7  non d ame     -29.979  14.718  27.902  0.00  0.00     0.030 H 
ATOM     31  H8  non d ame     -30.276  13.019  28.339  0.00  0.00     0.030 H 
ATOM     32  H9  non d ame     -31.480  13.915  27.382  0.00  0.00     0.030 H 
ENDBRANCH  13  29
ENDBRANCH  10  13
ENDBRANCH   7   9
BRANCH   7  33
ATOM     33  C11 non d ame     -33.183  17.893  26.521  0.00  0.00    -0.033 C 
ATOM     34  H12 non d ame     -34.085  17.962  25.912  0.00  0.00     0.042 H 
BRANCH  33  35
ATOM     35  C12 non d ame     -32.580  19.329  26.628  0.00  0.00    -0.071 C 
ATOM     36  H13 non d ame     -32.592  19.652  27.669  0.00  0.00     0.028 H 
ATOM     37  H14 non d ame     -31.553  19.319  26.262  0.00  0.00     0.028 H 
ATOM     38  H15 non d ame     -33.174  20.018  26.028  0.00  0.00     0.028 H 
ENDBRANCH  33  35
BRANCH  33  39
ATOM     39  C13 non d ame     -32.194  16.914  25.812  0.00  0.00    -0.071 C 
ATOM     40  H16 non d ame     -31.459  17.487  25.245  0.00  0.00     0.028 H 
ATOM     41  H17 non d ame     -31.683  16.308  26.560  0.00  0.00     0.028 H 
ATOM     42  H18 non d ame     -32.748  16.264  25.135  0.00  0.00     0.028 H 
ENDBRANCH  33  39
ENDBRANCH   7  33
ENDBRANCH   4   7
ENDBRANCH   1   3
BRANCH   1  43
ATOM     43  C15 non d ame     -37.643  14.846  26.416  0.00  0.00     0.240 C 
ATOM     44  O5  non d ame     -38.661  14.327  26.744  0.00  0.00    -0.271 OA
ATOM     45  N6  non d ame     -36.741  14.161  25.447  0.00  0.00    -0.355 N 
ATOM     46  H46 non d ame     -35.876  14.593  25.157  0.00  0.00     0.162 HD
BRANCH  45  47
ATOM     47  C20 non d ame     -37.116  12.836  24.907  0.00  0.00     0.013 C 
ATOM     48  H30 non d ame     -38.038  12.523  25.396  0.00  0.00     0.072 H 
BRANCH  47  49
ATOM     49  C21 non d ame     -36.013  11.845  25.203  0.00  0.00    -0.038 C 
ATOM     50  H31 non d ame     -36.411  10.869  24.924  0.00  0.00     0.036 H 
ATOM     51  H32 non d ame     -35.126  12.235  24.704  0.00  0.00     0.036 H 
BRANCH  49  52
ATOM     52  C22 non d ame     -35.668  11.763  26.706  0.00  0.00     0.018 C 
ATOM     53  H33 non d ame     -36.453  12.317  27.220  0.00  0.00     0.048 H 
ATOM     54  H34 non d ame     -35.520  10.704  26.917  0.00  0.00     0.048 H 
BRANCH  52  55
ATOM     55  C23 non d ame     -34.334  12.465  27.081  0.00  0.00     0.259 C 
ATOM     56  O7  non d ame     -34.289  13.645  27.214  0.00  0.00    -0.265 OA
BRANCH  55  57
ATOM     57  O8  non d ame     -33.158  11.682  27.252  0.00  0.00    -0.317 OA
BRANCH  57  58
ATOM     58  C29 non d ame     -33.269  10.349  26.747  0.00  0.00     0.052 C 
ATOM     59  H47 non d ame     -32.764   9.714  27.476  0.00  0.00     0.082 H 
ATOM     60  H48 non d ame     -34.327  10.200  26.535  0.00  0.00     0.082 H 
BRANCH  58  61
ATOM     61  C35 non d ame     -32.486  10.277  25.409  0.00  0.00    -0.034 A 
ATOM     62  C30 non d ame     -31.364  11.077  25.214  0.00  0.00    -0.075 A 
ATOM     63  C31 non d ame     -30.661  11.013  24.012  0.00  0.00    -0.082 A 
ATOM     64  H49 non d ame     -31.036  11.754  26.004  0.00  0.00     0.084 H 
ATOM     65  C32 non d ame     -31.085  10.147  23.001  0.00  0.00    -0.083 A 
ATOM     66  H50 non d ame     -29.781  11.640  23.864  0.00  0.00     0.083 H 
ATOM     67  C33 non d ame     -32.207   9.354  23.198  0.00  0.00    -0.082 A 
ATOM     68  H51 non d ame     -30.541  10.091  22.058  0.00  0.00     0.083 H 
ATOM     69  C34 non d ame     -32.911   9.413  24.399  0.00  0.00    -0.075 A 
ATOM     70  H52 non d ame     -32.537   8.681  22.406  0.00  0.00     0.083 H 
ATOM     71  H53 non d ame     -33.791   8.785  24.546  0.00  0.00     0.084 H 
ENDBRANCH  58  61
ENDBRANCH  57  58
ENDBRANCH  55  57
ENDBRANCH  52  55
ENDBRANCH  49  52
ENDBRANCH  47  49
BRANCH  47  72
ATOM     72  C24 non d ame     -37.323  12.933  23.397  0.00  0.00    -0.039 C 
ATOM     73  H35 non d ame     -36.416  13.398  23.010  0.00  0.00     0.036 H 
ATOM     74  H36 non d ame     -37.600  11.929  23.077  0.00  0.00     0.036 H 
BRANCH  72  75
ATOM     75  C25 non d ame     -38.544  13.902  23.027  0.00  0.00    -0.001 C 
ATOM     76  C26 non d ame     -39.972  13.132  23.301  0.00  0.00    -0.035 C 
ATOM     77  C27 non d ame     -40.740  13.231  22.190  0.00  0.00     0.085 C 
ATOM     78  H38 non d ame     -39.805  12.060  23.401  0.00  0.00     0.036 H 
ATOM     79  H39 non d ame     -40.546  13.668  24.057  0.00  0.00     0.036 H 
ATOM     80  N5  non d ame     -39.844  13.711  21.074  0.00  0.00    -0.049 N 
ATOM     81  H40 non d ame     -41.067  12.214  21.972  0.00  0.00     0.075 H 
ATOM     82  H41 non d ame     -41.476  14.004  22.413  0.00  0.00     0.075 H 
ATOM     83  C28 non d ame     -38.501  14.255  21.786  0.00  0.00     0.193 C 
ATOM     84  H42 non d ame     -39.610  12.897  20.525  0.00  0.00     0.280 HD
ATOM     85  H43 non d ame     -40.319  14.492  20.643  0.00  0.00     0.280 HD
ATOM     86  H44 non d ame     -38.325  15.326  21.891  0.00  0.00     0.129 H 
ATOM     87  H37 non d ame     -38.427  14.897  23.457  0.00  0.00     0.046 H 
BRANCH  83  88
ATOM     88  O6  non d ame     -37.347  13.742  21.119  0.00  0.00    -0.369 OA
ATOM     89  H45 non d ame     -37.402  12.784  21.076  0.00  0.00     0.212 HD
ENDBRANCH  83  88
ENDBRANCH  72  75
ENDBRANCH  47  72
ENDBRANCH  45  47
ENDBRANCH   1  43
BRANCH   1  90
ATOM     90  C16 non d ame     -37.897  17.333  26.146  0.00  0.00    -0.035 C 
ATOM     91  H21 non d ame     -38.812  16.895  25.747  0.00  0.00     0.037 H 
ATOM     92  H22 non d ame     -37.949  18.207  26.795  0.00  0.00     0.037 H 
BRANCH  90  93
ATOM     93  C17 non d ame     -37.034  17.749  24.912  0.00  0.00    -0.059 C 
ATOM     94  H23 non d ame     -36.134  17.135  24.916  0.00  0.00     0.038 H 
BRANCH  93  95
ATOM     95  C18 non d ame     -37.778  17.497  23.561  0.00  0.00    -0.073 C 
ATOM     96  H24 non d ame     -38.488  18.304  23.381  0.00  0.00     0.028 H 
ATOM     97  H25 non d ame     -37.053  17.465  22.748  0.00  0.00     0.028 H 
ATOM     98  H26 non d ame     -38.311  16.548  23.611  0.00  0.00     0.028 H 
ENDBRANCH  93  95
BRANCH  93  99
ATOM     99  C19 non d ame     -36.589  19.209  25.025  0.00  0.00    -0.073 C 
ATOM    100  H27 non d ame     -35.892  19.440  24.218  0.00  0.00     0.028 H 
ATOM    101  H28 non d ame     -37.459  19.862  24.951  0.00  0.00     0.028 H 
ATOM    102  H29 non d ame     -36.098  19.367  25.985  0.00  0.00     0.028 H 
ENDBRANCH  93  99
ENDBRANCH  90  93
ENDBRANCH   1  90
TORSDOF 26
ENDMDL
MODEL 15
REMARK VINA RESULT:      -6.6      3.268      5.027
REMARK  26 active torsions:
REMARK  status: ('A' for Active; 'I' for Inactive)
REMARK    1  A    between atoms: C2_2  and  C3_3 
REMARK    2  A    between atoms: C4_6  and  C5_7 
REMARK       I    between atoms: C5_7  and  N2_9 
REMARK    3  A    between atoms: N2_9  and  C6_10 
REMARK    4  A    between atoms: C6_10  and  C7_11 
REMARK    5  A    between atoms: C6_10  and  C8_13 
REMARK       I    between atoms: C7_11  and  N3_14 
REMARK    6  A    between atoms: N3_14  and  C9_15 
REMARK    7  A    between atoms: C9_15  and  C10_16 
REMARK    8  A    between atoms: C9_15  and  C11_18 
REMARK       I    between atoms: C10_16  and  N4_21 
REMARK    9  A    between atoms: C11_18  and  C12_19 
REMARK   10  A    between atoms: C11_18  and  C13_20 
REMARK   11  A    between atoms: N4_21  and  C14_22 
REMARK   12  A    between atoms: C14_22  and  C15_23 
REMARK   13  A    between atoms: C14_22  and  C16_25 
REMARK       I    between atoms: C15_23  and  N6_40 
REMARK   14  A    between atoms: C16_25  and  C17_26 
REMARK   15  A    between atoms: C17_26  and  C18_27 
REMARK   16  A    between atoms: C17_26  and  C19_28 
REMARK   17  A    between atoms: C20_29  and  C21_30 
REMARK   18  A    between atoms: C20_29  and  C24_33 
REMARK   19  A    between atoms: C20_29  and  N6_40 
REMARK   20  A    between atoms: C21_30  and  C22_31 
REMARK   21  A    between atoms: C22_31  and  C23_32 
REMARK   22  A    between atoms: C23_32  and  O8_43 
REMARK   23  A    between atoms: C24_33  and  C25_34 
REMARK   24  A    between atoms: C28_38  and  O6_39 
REMARK   25  A    between atoms: C29_42  and  O8_43 
REMARK   26  A    between atoms: C29_42  and  C35_49 
ROOT
ATOM      1  C14 non d ame     -33.112  11.514  25.756  0.00  0.00     0.089 C 
ATOM      2  H20 non d ame     -33.081  12.133  24.858  0.00  0.00     0.087 H 
ENDROOT
BRANCH   1   3
ATOM      3  N4  non d ame     -32.973  10.128  25.337  0.00  0.00    -0.346 N 
ATOM      4  C10 non d ame     -32.191   9.782  24.095  0.00  0.00     0.241 C 
ATOM      5  O4  non d ame     -31.685  10.637  23.447  0.00  0.00    -0.271 OA
ATOM      6  H19 non d ame     -33.414   9.415  25.901  0.00  0.00     0.163 HD
BRANCH   4   7
ATOM      7  C9  non d ame     -32.053   8.340  23.680  0.00  0.00     0.092 C 
ATOM      8  H11 non d ame     -31.069   7.975  23.975  0.00  0.00     0.088 H 
BRANCH   7   9
ATOM      9  N3  non d ame     -33.047   7.529  24.389  0.00  0.00    -0.346 N 
ATOM     10  C7  non d ame     -32.641   6.323  25.067  0.00  0.00     0.240 C 
ATOM     11  O3  non d ame     -31.520   5.989  25.052  0.00  0.00    -0.271 OA
ATOM     12  H10 non d ame     -34.019   7.804  24.409  0.00  0.00     0.163 HD
BRANCH  10  13
ATOM     13  C6  non d ame     -33.705   5.462  25.817  0.00  0.00     0.086 C 
ATOM     14  H6  non d ame     -33.355   5.112  26.788  0.00  0.00     0.086 H 
BRANCH  13  15
ATOM     15  N2  non d ame     -34.880   6.280  26.070  0.00  0.00    -0.343 N 
ATOM     16  C5  non d ame     -35.020   6.965  27.356  0.00  0.00     0.273 C 
ATOM     17  O2  non d ame     -34.182   6.851  28.183  0.00  0.00    -0.266 OA
ATOM     18  H5  non d ame     -35.592   6.370  25.359  0.00  0.00     0.163 HD
BRANCH  16  19
ATOM     19  C4  non d ame     -36.256   7.834  27.636  0.00  0.00     0.154 A 
ATOM     20  C1  non d ame     -36.277   9.222  27.983  0.00  0.00    -0.017 A 
ATOM     21  C2  non d ame     -37.646   9.539  28.131  0.00  0.00     0.077 A 
ATOM     22  H1  non d ame     -35.429   9.896  28.109  0.00  0.00     0.091 H 
ATOM     23  O1  non d ame     -38.323   8.454  27.893  0.00  0.00    -0.218 OA
ATOM     24  N1  non d ame     -37.534   7.445  27.602  0.00  0.00    -0.123 NA
BRANCH  21  25
ATOM     25  C3  non d ame     -38.221  10.900  28.500  0.00  0.00    -0.029 C 
ATOM     26  H2  non d ame     -37.970  11.132  29.535  0.00  0.00     0.036 H 
ATOM     27  H3  non d ame     -37.800  11.662  27.845  0.00  0.00     0.036 H 
ATOM     28  H4  non d ame     -39.304  10.880  28.385  0.00  0.00     0.036 H 
ENDBRANCH  21  25
ENDBRANCH  16  19
ENDBRANCH  13  15
BRANCH  13  29
ATOM     29  C8  non d ame     -34.077   4.270  24.973  0.00  0.00    -0.049 C 
ATOM     30  H7  non d ame     -33.215   3.609  24.878  0.00  0.00     0.030 H 
ATOM     31  H8  non d ame     -34.897   3.731  25.448  0.00  0.00     0.030 H 
ATOM     32  H9  non d ame     -34.387   4.607  23.984  0.00  0.00     0.030 H 
ENDBRANCH  13  29
ENDBRANCH  10  13
ENDBRANCH   7   9
BRANCH   7  33
ATOM     33  C11 non d ame     -32.286   8.218  22.145  0.00  0.00    -0.033 C 
ATOM     34  H12 non d ame     -31.765   9.047  21.667  0.00  0.00     0.042 H 
BRANCH  33  35
ATOM     35  C12 non d ame     -31.681   6.895  21.582  0.00  0.00    -0.071 C 
ATOM     36  H13 non d ame     -31.647   6.945  20.493  0.00  0.00     0.028 H 
ATOM     37  H14 non d ame     -30.672   6.762  21.971  0.00  0.00     0.028 H 
ATOM     38  H15 non d ame     -32.302   6.053  21.886  0.00  0.00     0.028 H 
ENDBRANCH  33  35
BRANCH  33  39
ATOM     39  C13 non d ame     -33.805   8.339  21.800  0.00  0.00    -0.071 C 
ATOM     40  H16 non d ame     -34.268   9.081  22.450  0.00  0.00     0.028 H 
ATOM     41  H17 non d ame     -33.918   8.645  20.759  0.00  0.00     0.028 H 
ATOM     42  H18 non d ame     -34.289   7.373  21.947  0.00  0.00     0.028 H 
ENDBRANCH  33  39
ENDBRANCH   7  33
ENDBRANCH   4   7
ENDBRANCH   1   3
BRANCH   1  43
ATOM     43  C15 non d ame     -31.958  11.852  26.742  0.00  0.00     0.240 C 
ATOM     44  O5  non d ame     -30.834  11.609  26.442  0.00  0.00    -0.271 OA
ATOM     45  N6  non d ame     -32.253  12.486  28.059  0.00  0.00    -0.355 N 
ATOM     46  H46 non d ame     -33.203  12.702  28.323  0.00  0.00     0.162 HD
BRANCH  45  47
ATOM     47  C20 non d ame     -31.144  12.803  28.985  0.00  0.00     0.013 C 
ATOM     48  H30 non d ame     -30.238  12.339  28.594  0.00  0.00     0.072 H 
BRANCH  47  49
ATOM     49  C21 non d ame     -31.462  12.244  30.353  0.00  0.00    -0.038 C 
ATOM     50  H31 non d ame     -30.913  11.304  30.423  0.00  0.00     0.036 H 
ATOM     51  H32 non d ame     -31.253  13.050  31.056  0.00  0.00     0.036 H 
BRANCH  49  52
ATOM     52  C22 non d ame     -32.955  11.890  30.525  0.00  0.00     0.018 C 
ATOM     53  H33 non d ame     -33.208  12.166  31.548  0.00  0.00     0.048 H 
ATOM     54  H34 non d ame     -33.469  12.367  29.689  0.00  0.00     0.048 H 
BRANCH  52  55
ATOM     55  C23 non d ame     -33.257  10.371  30.404  0.00  0.00     0.259 C 
ATOM     56  O7  non d ame     -33.079   9.801  29.376  0.00  0.00    -0.265 OA
BRANCH  55  57
ATOM     57  O8  non d ame     -33.763   9.669  31.533  0.00  0.00    -0.317 OA
BRANCH  57  58
ATOM     58  C29 non d ame     -35.110  10.006  31.873  0.00  0.00     0.052 C 
ATOM     59  H47 non d ame     -35.106  10.193  32.947  0.00  0.00     0.082 H 
ATOM     60  H48 non d ame     -35.399  10.799  31.184  0.00  0.00     0.082 H 
BRANCH  58  61
ATOM     61  C35 non d ame     -36.000   8.765  31.594  0.00  0.00    -0.034 A 
ATOM     62  C30 non d ame     -37.386   8.880  31.626  0.00  0.00    -0.075 A 
ATOM     63  C31 non d ame     -38.185   7.766  31.375  0.00  0.00    -0.082 A 
ATOM     64  H49 non d ame     -37.846   9.844  31.847  0.00  0.00     0.084 H 
ATOM     65  C32 non d ame     -37.593   6.532  31.095  0.00  0.00    -0.083 A 
ATOM     66  H50 non d ame     -39.271   7.860  31.399  0.00  0.00     0.083 H 
ATOM     67  C33 non d ame     -36.209   6.421  31.068  0.00  0.00    -0.082 A 
ATOM     68  H51 non d ame     -38.210   5.655  30.897  0.00  0.00     0.083 H 
ATOM     69  C34 non d ame     -35.407   7.533  31.315  0.00  0.00    -0.075 A 
ATOM     70  H52 non d ame     -35.750   5.456  30.851  0.00  0.00     0.083 H 
ATOM     71  H53 non d ame     -34.321   7.438  31.291  0.00  0.00     0.084 H 
ENDBRANCH  58  61
ENDBRANCH  57  58
ENDBRANCH  55  57
ENDBRANCH  52  55
ENDBRANCH  49  52
ENDBRANCH  47  49
BRANCH  47  72
ATOM     72  C24 non d ame     -30.967  14.317  29.081  0.00  0.00    -0.039 C 
ATOM     73  H35 non d ame     -30.809  14.523  30.140  0.00  0.00     0.036 H 
ATOM     74  H36 non d ame     -30.192  14.565  28.356  0.00  0.00     0.036 H 
BRANCH  72  75
ATOM     75  C25 non d ame     -32.294  15.098  28.640  0.00  0.00    -0.001 C 
ATOM     76  C26 non d ame     -32.189  15.530  27.057  0.00  0.00    -0.035 C 
ATOM     77  C27 non d ame     -32.463  16.852  26.947  0.00  0.00     0.085 C 
ATOM     78  H38 non d ame     -31.157  15.455  26.717  0.00  0.00     0.036 H 
ATOM     79  H39 non d ame     -32.987  15.056  26.485  0.00  0.00     0.036 H 
ATOM     80  N5  non d ame     -32.425  17.429  28.341  0.00  0.00    -0.049 N 
ATOM     81  H40 non d ame     -31.643  17.272  26.365  0.00  0.00     0.075 H 
ATOM     82  H41 non d ame     -33.483  16.907  26.568  0.00  0.00     0.075 H 
ATOM     83  C28 non d ame     -32.465  16.166  29.345  0.00  0.00     0.193 C 
ATOM     84  H42 non d ame     -31.530  17.887  28.437  0.00  0.00     0.280 HD
ATOM     85  H43 non d ame     -33.278  17.958  28.455  0.00  0.00     0.280 HD
ATOM     86  H44 non d ame     -33.382  15.908  29.875  0.00  0.00     0.129 H 
ATOM     87  H37 non d ame     -33.201  14.581  28.953  0.00  0.00     0.046 H 
BRANCH  83  88
ATOM     88  O6  non d ame     -31.466  16.308  30.357  0.00  0.00    -0.369 OA
ATOM     89  H45 non d ame     -31.362  17.237  30.575  0.00  0.00     0.212 HD
ENDBRANCH  83  88
ENDBRANCH  72  75
ENDBRANCH  47  72
ENDBRANCH  45  47
ENDBRANCH   1  43
BRANCH   1  90
ATOM     90  C16 non d ame     -34.450  11.690  26.455  0.00  0.00    -0.035 C 
ATOM     91  H21 non d ame     -34.984  10.753  26.297  0.00  0.00     0.037 H 
ATOM     92  H22 non d ame     -34.207  12.013  27.468  0.00  0.00     0.037 H 
BRANCH  90  93
ATOM     93  C17 non d ame     -35.339  12.814  25.835  0.00  0.00    -0.059 C 
ATOM     94  H23 non d ame     -34.792  13.242  24.995  0.00  0.00     0.038 H 
BRANCH  93  95
ATOM     95  C18 non d ame     -36.694  12.260  25.288  0.00  0.00    -0.073 C 
ATOM     96  H24 non d ame     -37.496  12.956  25.531  0.00  0.00     0.028 H 
ATOM     97  H25 non d ame     -36.629  12.144  24.207  0.00  0.00     0.028 H 
ATOM     98  H26 non d ame     -36.902  11.293  25.746  0.00  0.00     0.028 H 
ENDBRANCH  93  95
BRANCH  93  99
ATOM     99  C19 non d ame     -35.579  13.940  26.843  0.00  0.00    -0.073 C 
ATOM    100  H27 non d ame     -35.991  14.808  26.328  0.00  0.00     0.028 H 
ATOM    101  H28 non d ame     -36.282  13.603  27.605  0.00  0.00     0.028 H 
ATOM    102  H29 non d ame     -34.636  14.212  27.316  0.00  0.00     0.028 H 
ENDBRANCH  93  99
ENDBRANCH  90  93
ENDBRANCH   1  90
TORSDOF 26
ENDMDL
MODEL 16
REMARK VINA RESULT:      -6.6      3.479      7.414
REMARK  26 active torsions:
REMARK  status: ('A' for Active; 'I' for Inactive)
REMARK    1  A    between atoms: C2_2  and  C3_3 
REMARK    2  A    between atoms: C4_6  and  C5_7 
REMARK       I    between atoms: C5_7  and  N2_9 
REMARK    3  A    between atoms: N2_9  and  C6_10 
REMARK    4  A    between atoms: C6_10  and  C7_11 
REMARK    5  A    between atoms: C6_10  and  C8_13 
REMARK       I    between atoms: C7_11  and  N3_14 
REMARK    6  A    between atoms: N3_14  and  C9_15 
REMARK    7  A    between atoms: C9_15  and  C10_16 
REMARK    8  A    between atoms: C9_15  and  C11_18 
REMARK       I    between atoms: C10_16  and  N4_21 
REMARK    9  A    between atoms: C11_18  and  C12_19 
REMARK   10  A    between atoms: C11_18  and  C13_20 
REMARK   11  A    between atoms: N4_21  and  C14_22 
REMARK   12  A    between atoms: C14_22  and  C15_23 
REMARK   13  A    between atoms: C14_22  and  C16_25 
REMARK       I    between atoms: C15_23  and  N6_40 
REMARK   14  A    between atoms: C16_25  and  C17_26 
REMARK   15  A    between atoms: C17_26  and  C18_27 
REMARK   16  A    between atoms: C17_26  and  C19_28 
REMARK   17  A    between atoms: C20_29  and  C21_30 
REMARK   18  A    between atoms: C20_29  and  C24_33 
REMARK   19  A    between atoms: C20_29  and  N6_40 
REMARK   20  A    between atoms: C21_30  and  C22_31 
REMARK   21  A    between atoms: C22_31  and  C23_32 
REMARK   22  A    between atoms: C23_32  and  O8_43 
REMARK   23  A    between atoms: C24_33  and  C25_34 
REMARK   24  A    between atoms: C28_38  and  O6_39 
REMARK   25  A    between atoms: C29_42  and  O8_43 
REMARK   26  A    between atoms: C29_42  and  C35_49 
ROOT
ATOM      1  C14 non d ame     -31.781   8.268  23.927  0.00  0.00     0.089 C 
ATOM      2  H20 non d ame     -30.797   7.994  24.309  0.00  0.00     0.087 H 
ENDROOT
BRANCH   1   3
ATOM      3  N4  non d ame     -32.641   7.101  24.055  0.00  0.00    -0.346 N 
ATOM      4  C10 non d ame     -32.562   6.227  25.281  0.00  0.00     0.241 C 
ATOM      5  O4  non d ame     -31.795   6.481  26.150  0.00  0.00    -0.271 OA
ATOM      6  H19 non d ame     -33.285   6.902  23.303  0.00  0.00     0.163 HD
BRANCH   4   7
ATOM      7  C9  non d ame     -33.464   5.027  25.399  0.00  0.00     0.092 C 
ATOM      8  H11 non d ame     -32.889   4.182  25.779  0.00  0.00     0.088 H 
BRANCH   7   9
ATOM      9  N3  non d ame     -34.523   5.305  26.374  0.00  0.00    -0.346 N 
ATOM     10  C7  non d ame     -34.390   4.842  27.733  0.00  0.00     0.240 C 
ATOM     11  O3  non d ame     -33.438   4.244  28.060  0.00  0.00    -0.271 OA
ATOM     12  H10 non d ame     -35.351   5.818  26.107  0.00  0.00     0.163 HD
BRANCH  10  13
ATOM     13  C6  non d ame     -35.522   5.139  28.766  0.00  0.00     0.086 C 
ATOM     14  H6  non d ame     -35.485   4.479  29.632  0.00  0.00     0.086 H 
BRANCH  13  15
ATOM     15  N2  non d ame     -35.359   6.493  29.268  0.00  0.00    -0.343 N 
ATOM     16  C5  non d ame     -35.109   6.708  30.695  0.00  0.00     0.273 C 
ATOM     17  O2  non d ame     -35.044   5.786  31.431  0.00  0.00    -0.266 OA
ATOM     18  H5  non d ame     -35.419   7.276  28.632  0.00  0.00     0.163 HD
BRANCH  16  19
ATOM     19  C4  non d ame     -34.934   8.135  31.239  0.00  0.00     0.154 A 
ATOM     20  C1  non d ame     -35.893   8.906  31.968  0.00  0.00    -0.017 A 
ATOM     21  C2  non d ame     -35.247  10.134  32.233  0.00  0.00     0.077 A 
ATOM     22  H1  non d ame     -36.904   8.619  32.259  0.00  0.00     0.091 H 
ATOM     23  O1  non d ame     -34.056  10.065  31.714  0.00  0.00    -0.218 OA
ATOM     24  N1  non d ame     -33.850   8.908  31.128  0.00  0.00    -0.123 NA
BRANCH  21  25
ATOM     25  C3  non d ame     -35.836  11.319  32.987  0.00  0.00    -0.029 C 
ATOM     26  H2  non d ame     -35.038  11.860  33.494  0.00  0.00     0.036 H 
ATOM     27  H3  non d ame     -36.337  11.984  32.284  0.00  0.00     0.036 H 
ATOM     28  H4  non d ame     -36.556  10.960  33.723  0.00  0.00     0.036 H 
ENDBRANCH  21  25
ENDBRANCH  16  19
ENDBRANCH  13  15
BRANCH  13  29
ATOM     29  C8  non d ame     -36.866   4.993  28.098  0.00  0.00    -0.049 C 
ATOM     30  H7  non d ame     -36.875   4.086  27.494  0.00  0.00     0.030 H 
ATOM     31  H8  non d ame     -37.644   4.931  28.858  0.00  0.00     0.030 H 
ATOM     32  H9  non d ame     -37.049   5.857  27.459  0.00  0.00     0.030 H 
ENDBRANCH  13  29
ENDBRANCH  10  13
ENDBRANCH   7   9
BRANCH   7  33
ATOM     33  C11 non d ame     -34.106   4.722  24.013  0.00  0.00    -0.033 C 
ATOM     34  H12 non d ame     -34.023   5.624  23.407  0.00  0.00     0.042 H 
BRANCH  33  35
ATOM     35  C12 non d ame     -33.338   3.585  23.270  0.00  0.00    -0.071 C 
ATOM     36  H13 non d ame     -33.273   3.824  22.208  0.00  0.00     0.028 H 
ATOM     37  H14 non d ame     -32.335   3.492  23.684  0.00  0.00     0.028 H 
ATOM     38  H15 non d ame     -33.872   2.643  23.396  0.00  0.00     0.028 H 
ENDBRANCH  33  35
BRANCH  33  39
ATOM     39  C13 non d ame     -35.622   4.378  24.163  0.00  0.00    -0.071 C 
ATOM     40  H16 non d ame     -36.159   5.254  24.527  0.00  0.00     0.028 H 
ATOM     41  H17 non d ame     -36.025   4.081  23.194  0.00  0.00     0.028 H 
ATOM     42  H18 non d ame     -35.741   3.557  24.871  0.00  0.00     0.028 H 
ENDBRANCH  33  39
ENDBRANCH   7  33
ENDBRANCH   4   7
ENDBRANCH   1   3
BRANCH   1  43
ATOM     43  C15 non d ame     -32.415   9.442  24.727  0.00  0.00     0.240 C 
ATOM     44  O5  non d ame     -33.561   9.713  24.569  0.00  0.00    -0.271 OA
ATOM     45  N6  non d ame     -31.595  10.221  25.698  0.00  0.00    -0.355 N 
ATOM     46  H46 non d ame     -30.622   9.997  25.845  0.00  0.00     0.162 HD
BRANCH  45  47
ATOM     47  C20 non d ame     -32.213  11.333  26.452  0.00  0.00     0.013 C 
ATOM     48  H30 non d ame     -33.239  11.448  26.101  0.00  0.00     0.072 H 
BRANCH  47  49
ATOM     49  C21 non d ame     -31.435  12.604  26.197  0.00  0.00    -0.038 C 
ATOM     50  H31 non d ame     -30.928  12.833  27.135  0.00  0.00     0.036 H 
ATOM     51  H32 non d ame     -30.852  12.416  25.295  0.00  0.00     0.036 H 
BRANCH  49  52
ATOM     52  C22 non d ame     -32.344  13.812  25.886  0.00  0.00     0.018 C 
ATOM     53  H33 non d ame     -32.333  13.919  24.802  0.00  0.00     0.048 H 
ATOM     54  H34 non d ame     -33.283  13.616  26.405  0.00  0.00     0.048 H 
BRANCH  52  55
ATOM     55  C23 non d ame     -31.814  15.158  26.454  0.00  0.00     0.259 C 
ATOM     56  O7  non d ame     -31.835  15.369  27.623  0.00  0.00    -0.265 OA
BRANCH  55  57
ATOM     57  O8  non d ame     -31.314  16.143  25.558  0.00  0.00    -0.317 OA
BRANCH  57  58
ATOM     58  C29 non d ame     -32.005  16.198  24.307  0.00  0.00     0.052 C 
ATOM     59  H47 non d ame     -32.778  15.431  24.364  0.00  0.00     0.082 H 
ATOM     60  H48 non d ame     -32.282  17.242  24.168  0.00  0.00     0.082 H 
BRANCH  58  61
ATOM     61  C35 non d ame     -31.003  15.804  23.189  0.00  0.00    -0.034 A 
ATOM     62  C30 non d ame     -29.952  14.937  23.469  0.00  0.00    -0.075 A 
ATOM     63  C31 non d ame     -29.052  14.583  22.465  0.00  0.00    -0.082 A 
ATOM     64  H49 non d ame     -29.832  14.535  24.476  0.00  0.00     0.084 H 
ATOM     65  C32 non d ame     -29.205  15.102  21.177  0.00  0.00    -0.083 A 
ATOM     66  H50 non d ame     -28.230  13.902  22.688  0.00  0.00     0.083 H 
ATOM     67  C33 non d ame     -30.253  15.969  20.903  0.00  0.00    -0.082 A 
ATOM     68  H51 non d ame     -28.506  14.830  20.386  0.00  0.00     0.083 H 
ATOM     69  C34 non d ame     -31.156  16.324  21.902  0.00  0.00    -0.075 A 
ATOM     70  H52 non d ame     -30.369  16.374  19.897  0.00  0.00     0.083 H 
ATOM     71  H53 non d ame     -31.978  17.005  21.679  0.00  0.00     0.084 H 
ENDBRANCH  58  61
ENDBRANCH  57  58
ENDBRANCH  55  57
ENDBRANCH  52  55
ENDBRANCH  49  52
ENDBRANCH  47  49
BRANCH  47  72
ATOM     72  C24 non d ame     -32.197  11.016  27.946  0.00  0.00    -0.039 C 
ATOM     73  H35 non d ame     -33.200  10.655  28.177  0.00  0.00     0.036 H 
ATOM     74  H36 non d ame     -31.336  10.365  28.095  0.00  0.00     0.036 H 
BRANCH  72  75
ATOM     75  C25 non d ame     -31.953  12.331  28.829  0.00  0.00    -0.001 C 
ATOM     76  C26 non d ame     -30.575  12.166  29.710  0.00  0.00    -0.035 C 
ATOM     77  C27 non d ame     -30.850  12.446  31.007  0.00  0.00     0.085 C 
ATOM     78  H38 non d ame     -30.270  11.120  29.735  0.00  0.00     0.036 H 
ATOM     79  H39 non d ame     -29.857  12.937  29.430  0.00  0.00     0.036 H 
ATOM     80  N5  non d ame     -32.353  12.468  31.144  0.00  0.00    -0.049 N 
ATOM     81  H40 non d ame     -30.453  11.606  31.577  0.00  0.00     0.075 H 
ATOM     82  H41 non d ame     -30.464  13.451  31.176  0.00  0.00     0.075 H 
ATOM     83  C28 non d ame     -32.936  12.538  29.640  0.00  0.00     0.193 C 
ATOM     84  H42 non d ame     -32.617  11.581  31.550  0.00  0.00     0.280 HD
ATOM     85  H43 non d ame     -32.584  13.329  31.619  0.00  0.00     0.280 HD
ATOM     86  H44 non d ame     -33.328  13.474  29.241  0.00  0.00     0.129 H 
ATOM     87  H37 non d ame     -32.062  13.245  28.246  0.00  0.00     0.046 H 
BRANCH  83  88
ATOM     88  O6  non d ame     -33.984  11.582  29.473  0.00  0.00    -0.369 OA
ATOM     89  H45 non d ame     -34.022  11.010  30.243  0.00  0.00     0.212 HD
ENDBRANCH  83  88
ENDBRANCH  72  75
ENDBRANCH  47  72
ENDBRANCH  45  47
ENDBRANCH   1  43
BRANCH   1  90
ATOM     90  C16 non d ame     -31.675   8.649  22.459  0.00  0.00    -0.035 C 
ATOM     91  H21 non d ame     -31.913   7.740  21.908  0.00  0.00     0.037 H 
ATOM     92  H22 non d ame     -32.300   9.535  22.345  0.00  0.00     0.037 H 
BRANCH  90  93
ATOM     93  C17 non d ame     -30.235   9.065  22.021  0.00  0.00    -0.059 C 
ATOM     94  H23 non d ame     -30.187   8.998  20.935  0.00  0.00     0.038 H 
BRANCH  93  95
ATOM     95  C18 non d ame     -29.900  10.537  22.423  0.00  0.00    -0.073 C 
ATOM     96  H24 non d ame     -30.438  10.797  23.334  0.00  0.00     0.028 H 
ATOM     97  H25 non d ame     -28.828  10.631  22.596  0.00  0.00     0.028 H 
ATOM     98  H26 non d ame     -30.198  11.210  21.619  0.00  0.00     0.028 H 
ENDBRANCH  93  95
BRANCH  93  99
ATOM     99  C19 non d ame     -29.192   8.096  22.583  0.00  0.00    -0.073 C 
ATOM    100  H27 non d ame     -29.632   7.518  23.396  0.00  0.00     0.028 H 
ATOM    101  H28 non d ame     -28.861   7.420  21.794  0.00  0.00     0.028 H 
ATOM    102  H29 non d ame     -28.338   8.659  22.959  0.00  0.00     0.028 H 
ENDBRANCH  93  99
ENDBRANCH  90  93
ENDBRANCH   1  90
TORSDOF 26
ENDMDL
MODEL 17
REMARK VINA RESULT:      -6.6      3.588      9.485
REMARK  26 active torsions:
REMARK  status: ('A' for Active; 'I' for Inactive)
REMARK    1  A    between atoms: C2_2  and  C3_3 
REMARK    2  A    between atoms: C4_6  and  C5_7 
REMARK       I    between atoms: C5_7  and  N2_9 
REMARK    3  A    between atoms: N2_9  and  C6_10 
REMARK    4  A    between atoms: C6_10  and  C7_11 
REMARK    5  A    between atoms: C6_10  and  C8_13 
REMARK       I    between atoms: C7_11  and  N3_14 
REMARK    6  A    between atoms: N3_14  and  C9_15 
REMARK    7  A    between atoms: C9_15  and  C10_16 
REMARK    8  A    between atoms: C9_15  and  C11_18 
REMARK       I    between atoms: C10_16  and  N4_21 
REMARK    9  A    between atoms: C11_18  and  C12_19 
REMARK   10  A    between atoms: C11_18  and  C13_20 
REMARK   11  A    between atoms: N4_21  and  C14_22 
REMARK   12  A    between atoms: C14_22  and  C15_23 
REMARK   13  A    between atoms: C14_22  and  C16_25 
REMARK       I    between atoms: C15_23  and  N6_40 
REMARK   14  A    between atoms: C16_25  and  C17_26 
REMARK   15  A    between atoms: C17_26  and  C18_27 
REMARK   16  A    between atoms: C17_26  and  C19_28 
REMARK   17  A    between atoms: C20_29  and  C21_30 
REMARK   18  A    between atoms: C20_29  and  C24_33 
REMARK   19  A    between atoms: C20_29  and  N6_40 
REMARK   20  A    between atoms: C21_30  and  C22_31 
REMARK   21  A    between atoms: C22_31  and  C23_32 
REMARK   22  A    between atoms: C23_32  and  O8_43 
REMARK   23  A    between atoms: C24_33  and  C25_34 
REMARK   24  A    between atoms: C28_38  and  O6_39 
REMARK   25  A    between atoms: C29_42  and  O8_43 
REMARK   26  A    between atoms: C29_42  and  C35_49 
ROOT
ATOM      1  C14 non d ame     -34.928   8.304  31.269  0.00  0.00     0.089 C 
ATOM      2  H20 non d ame     -34.514   8.383  32.275  0.00  0.00     0.087 H 
ENDROOT
BRANCH   1   3
ATOM      3  N4  non d ame     -34.059   9.057  30.377  0.00  0.00    -0.346 N 
ATOM      4  C10 non d ame     -33.511  10.397  30.799  0.00  0.00     0.241 C 
ATOM      5  O4  non d ame     -33.786  10.851  31.860  0.00  0.00    -0.271 OA
ATOM      6  H19 non d ame     -33.839   8.654  29.477  0.00  0.00     0.163 HD
BRANCH   4   7
ATOM      7  C9  non d ame     -32.608  11.159  29.865  0.00  0.00     0.092 C 
ATOM      8  H11 non d ame     -31.908  10.466  29.398  0.00  0.00     0.088 H 
BRANCH   7   9
ATOM      9  N3  non d ame     -33.407  11.757  28.792  0.00  0.00    -0.346 N 
ATOM     10  C7  non d ame     -33.333  11.223  27.454  0.00  0.00     0.240 C 
ATOM     11  O3  non d ame     -32.634  10.313  27.224  0.00  0.00    -0.271 OA
ATOM     12  H10 non d ame     -34.013  12.544  28.975  0.00  0.00     0.163 HD
BRANCH  10  13
ATOM     13  C6  non d ame     -34.184  11.866  26.315  0.00  0.00     0.086 C 
ATOM     14  H6  non d ame     -34.893  12.606  26.686  0.00  0.00     0.086 H 
BRANCH  13  15
ATOM     15  N2  non d ame     -33.296  12.563  25.399  0.00  0.00    -0.343 N 
ATOM     16  C5  non d ame     -32.810  13.901  25.743  0.00  0.00     0.273 C 
ATOM     17  O2  non d ame     -33.142  14.409  26.757  0.00  0.00    -0.266 OA
ATOM     18  H5  non d ame     -33.019  12.121  24.534  0.00  0.00     0.163 HD
BRANCH  16  19
ATOM     19  C4  non d ame     -31.870  14.648  24.785  0.00  0.00     0.154 A 
ATOM     20  C1  non d ame     -30.878  14.077  23.926  0.00  0.00    -0.017 A 
ATOM     21  C2  non d ame     -30.295  15.179  23.261  0.00  0.00     0.077 A 
ATOM     22  H1  non d ame     -30.620  13.025  23.805  0.00  0.00     0.091 H 
ATOM     23  O1  non d ame     -30.891  16.251  23.692  0.00  0.00    -0.218 OA
ATOM     24  N1  non d ame     -31.813  15.968  24.583  0.00  0.00    -0.123 NA
BRANCH  21  25
ATOM     25  C3  non d ame     -29.177  15.120  22.228  0.00  0.00    -0.029 C 
ATOM     26  H2  non d ame     -28.556  14.244  22.414  0.00  0.00     0.036 H 
ATOM     27  H3  non d ame     -29.609  15.052  21.229  0.00  0.00     0.036 H 
ATOM     28  H4  non d ame     -28.568  16.020  22.300  0.00  0.00     0.036 H 
ENDBRANCH  21  25
ENDBRANCH  16  19
ENDBRANCH  13  15
BRANCH  13  29
ATOM     29  C8  non d ame     -34.942  10.789  25.581  0.00  0.00    -0.049 C 
ATOM     30  H7  non d ame     -34.702   9.817  26.013  0.00  0.00     0.030 H 
ATOM     31  H8  non d ame     -36.012  10.973  25.672  0.00  0.00     0.030 H 
ATOM     32  H9  non d ame     -34.659  10.799  24.528  0.00  0.00     0.030 H 
ENDBRANCH  13  29
ENDBRANCH  10  13
ENDBRANCH   7   9
BRANCH   7  33
ATOM     33  C11 non d ame     -31.878  12.285  30.654  0.00  0.00    -0.033 C 
ATOM     34  H12 non d ame     -32.376  12.388  31.618  0.00  0.00     0.042 H 
BRANCH  33  35
ATOM     35  C12 non d ame     -30.389  11.910  30.933  0.00  0.00    -0.071 C 
ATOM     36  H13 non d ame     -29.798  12.820  31.037  0.00  0.00     0.028 H 
ATOM     37  H14 non d ame     -30.327  11.330  31.854  0.00  0.00     0.028 H 
ATOM     38  H15 non d ame     -30.002  11.318  30.104  0.00  0.00     0.028 H 
ENDBRANCH  33  35
BRANCH  33  39
ATOM     39  C13 non d ame     -31.986  13.653  29.906  0.00  0.00    -0.071 C 
ATOM     40  H16 non d ame     -31.097  13.803  29.293  0.00  0.00     0.028 H 
ATOM     41  H17 non d ame     -32.871  13.649  29.269  0.00  0.00     0.028 H 
ATOM     42  H18 non d ame     -32.067  14.460  30.634  0.00  0.00     0.028 H 
ENDBRANCH  33  39
ENDBRANCH   7  33
ENDBRANCH   4   7
ENDBRANCH   1   3
BRANCH   1  43
ATOM     43  C15 non d ame     -34.991   6.831  30.774  0.00  0.00     0.240 C 
ATOM     44  O5  non d ame     -35.463   5.993  31.472  0.00  0.00    -0.271 OA
ATOM     45  N6  non d ame     -34.470   6.467  29.426  0.00  0.00    -0.355 N 
ATOM     46  H46 non d ame     -34.071   7.171  28.822  0.00  0.00     0.162 HD
BRANCH  45  47
ATOM     47  C20 non d ame     -34.538   5.062  28.969  0.00  0.00     0.013 C 
ATOM     48  H30 non d ame     -34.831   4.446  29.819  0.00  0.00     0.072 H 
BRANCH  47  49
ATOM     49  C21 non d ame     -33.178   4.634  28.465  0.00  0.00    -0.038 C 
ATOM     50  H31 non d ame     -32.463   5.306  28.939  0.00  0.00     0.036 H 
ATOM     51  H32 non d ame     -33.122   3.560  28.647  0.00  0.00     0.036 H 
BRANCH  49  52
ATOM     52  C22 non d ame     -33.016   4.828  26.942  0.00  0.00     0.018 C 
ATOM     53  H33 non d ame     -32.436   3.972  26.596  0.00  0.00     0.048 H 
ATOM     54  H34 non d ame     -34.021   4.997  26.556  0.00  0.00     0.048 H 
BRANCH  52  55
ATOM     55  C23 non d ame     -32.191   6.087  26.555  0.00  0.00     0.259 C 
ATOM     56  O7  non d ame     -32.051   6.977  27.330  0.00  0.00    -0.265 OA
BRANCH  55  57
ATOM     57  O8  non d ame     -31.615   6.171  25.257  0.00  0.00    -0.317 OA
BRANCH  57  58
ATOM     58  C29 non d ame     -32.446   6.824  24.293  0.00  0.00     0.052 C 
ATOM     59  H47 non d ame     -32.637   6.081  23.518  0.00  0.00     0.082 H 
ATOM     60  H48 non d ame     -33.276   7.248  24.857  0.00  0.00     0.082 H 
BRANCH  58  61
ATOM     61  C35 non d ame     -31.631   7.987  23.668  0.00  0.00    -0.034 A 
ATOM     62  C30 non d ame     -30.607   7.715  22.765  0.00  0.00    -0.075 A 
ATOM     63  C31 non d ame     -29.875   8.760  22.204  0.00  0.00    -0.082 A 
ATOM     64  H49 non d ame     -30.379   6.683  22.498  0.00  0.00     0.084 H 
ATOM     65  C32 non d ame     -30.168  10.082  22.550  0.00  0.00    -0.083 A 
ATOM     66  H50 non d ame     -29.075   8.543  21.496  0.00  0.00     0.083 H 
ATOM     67  C33 non d ame     -31.187  10.348  23.454  0.00  0.00    -0.082 A 
ATOM     68  H51 non d ame     -29.600  10.905  22.116  0.00  0.00     0.083 H 
ATOM     69  C34 non d ame     -31.923   9.307  24.016  0.00  0.00    -0.075 A 
ATOM     70  H52 non d ame     -31.412  11.381  23.724  0.00  0.00     0.083 H 
ATOM     71  H53 non d ame     -32.724   9.525  24.724  0.00  0.00     0.084 H 
ENDBRANCH  58  61
ENDBRANCH  57  58
ENDBRANCH  55  57
ENDBRANCH  52  55
ENDBRANCH  49  52
ENDBRANCH  47  49
BRANCH  47  72
ATOM     72  C24 non d ame     -35.563   4.934  27.843  0.00  0.00    -0.039 C 
ATOM     73  H35 non d ame     -35.096   5.395  26.973  0.00  0.00     0.036 H 
ATOM     74  H36 non d ame     -35.837   3.879  27.820  0.00  0.00     0.036 H 
BRANCH  72  75
ATOM     75  C25 non d ame     -36.897   5.763  28.159  0.00  0.00    -0.001 C 
ATOM     76  C26 non d ame     -37.913   4.858  29.083  0.00  0.00    -0.035 C 
ATOM     77  C27 non d ame     -39.138   4.850  28.505  0.00  0.00     0.085 C 
ATOM     78  H38 non d ame     -37.611   3.811  29.055  0.00  0.00     0.036 H 
ATOM     79  H39 non d ame     -38.086   5.350  30.040  0.00  0.00     0.036 H 
ATOM     80  N5  non d ame     -38.969   5.393  27.107  0.00  0.00    -0.049 N 
ATOM     81  H40 non d ame     -39.425   3.800  28.447  0.00  0.00     0.075 H 
ATOM     82  H41 non d ame     -39.738   5.548  29.087  0.00  0.00     0.075 H 
ATOM     83  C28 non d ame     -37.513   6.089  27.072  0.00  0.00     0.193 C 
ATOM     84  H42 non d ame     -38.959   4.594  26.489  0.00  0.00     0.280 HD
ATOM     85  H43 non d ame     -39.671   6.110  26.992  0.00  0.00     0.280 HD
ATOM     86  H44 non d ame     -37.417   7.174  27.108  0.00  0.00     0.129 H 
ATOM     87  H37 non d ame     -36.682   6.775  28.504  0.00  0.00     0.046 H 
BRANCH  83  88
ATOM     88  O6  non d ame     -36.799   5.680  25.905  0.00  0.00    -0.369 OA
ATOM     89  H45 non d ame     -35.903   6.023  25.941  0.00  0.00     0.212 HD
ENDBRANCH  83  88
ENDBRANCH  72  75
ENDBRANCH  47  72
ENDBRANCH  45  47
ENDBRANCH   1  43
BRANCH   1  90
ATOM     90  C16 non d ame     -36.320   8.914  31.237  0.00  0.00    -0.035 C 
ATOM     91  H21 non d ame     -36.929   8.279  31.879  0.00  0.00     0.037 H 
ATOM     92  H22 non d ame     -36.180   9.967  31.485  0.00  0.00     0.037 H 
BRANCH  90  93
ATOM     93  C17 non d ame     -36.987   8.880  29.824  0.00  0.00    -0.059 C 
ATOM     94  H23 non d ame     -36.457   8.137  29.227  0.00  0.00     0.038 H 
BRANCH  93  95
ATOM     95  C18 non d ame     -38.488   8.454  29.891  0.00  0.00    -0.073 C 
ATOM     96  H24 non d ame     -38.633   7.761  30.719  0.00  0.00     0.028 H 
ATOM     97  H25 non d ame     -39.110   9.337  30.044  0.00  0.00     0.028 H 
ATOM     98  H26 non d ame     -38.770   7.969  28.957  0.00  0.00     0.028 H 
ENDBRANCH  93  95
BRANCH  93  99
ATOM     99  C19 non d ame     -36.833  10.227  29.114  0.00  0.00    -0.073 C 
ATOM    100  H27 non d ame     -35.875  10.258  28.596  0.00  0.00     0.028 H 
ATOM    101  H28 non d ame     -37.641  10.352  28.392  0.00  0.00     0.028 H 
ATOM    102  H29 non d ame     -36.876  11.032  29.848  0.00  0.00     0.028 H 
ENDBRANCH  93  99
ENDBRANCH  90  93
ENDBRANCH   1  90
TORSDOF 26
ENDMDL
MODEL 18
REMARK VINA RESULT:      -6.6      3.202      8.425
REMARK  26 active torsions:
REMARK  status: ('A' for Active; 'I' for Inactive)
REMARK    1  A    between atoms: C2_2  and  C3_3 
REMARK    2  A    between atoms: C4_6  and  C5_7 
REMARK       I    between atoms: C5_7  and  N2_9 
REMARK    3  A    between atoms: N2_9  and  C6_10 
REMARK    4  A    between atoms: C6_10  and  C7_11 
REMARK    5  A    between atoms: C6_10  and  C8_13 
REMARK       I    between atoms: C7_11  and  N3_14 
REMARK    6  A    between atoms: N3_14  and  C9_15 
REMARK    7  A    between atoms: C9_15  and  C10_16 
REMARK    8  A    between atoms: C9_15  and  C11_18 
REMARK       I    between atoms: C10_16  and  N4_21 
REMARK    9  A    between atoms: C11_18  and  C12_19 
REMARK   10  A    between atoms: C11_18  and  C13_20 
REMARK   11  A    between atoms: N4_21  and  C14_22 
REMARK   12  A    between atoms: C14_22  and  C15_23 
REMARK   13  A    between atoms: C14_22  and  C16_25 
REMARK       I    between atoms: C15_23  and  N6_40 
REMARK   14  A    between atoms: C16_25  and  C17_26 
REMARK   15  A    between atoms: C17_26  and  C18_27 
REMARK   16  A    between atoms: C17_26  and  C19_28 
REMARK   17  A    between atoms: C20_29  and  C21_30 
REMARK   18  A    between atoms: C20_29  and  C24_33 
REMARK   19  A    between atoms: C20_29  and  N6_40 
REMARK   20  A    between atoms: C21_30  and  C22_31 
REMARK   21  A    between atoms: C22_31  and  C23_32 
REMARK   22  A    between atoms: C23_32  and  O8_43 
REMARK   23  A    between atoms: C24_33  and  C25_34 
REMARK   24  A    between atoms: C28_38  and  O6_39 
REMARK   25  A    between atoms: C29_42  and  O8_43 
REMARK   26  A    between atoms: C29_42  and  C35_49 
ROOT
ATOM      1  C14 non d ame     -35.706   9.817  28.467  0.00  0.00     0.089 C 
ATOM      2  H20 non d ame     -35.383   9.024  29.141  0.00  0.00     0.087 H 
ENDROOT
BRANCH   1   3
ATOM      3  N4  non d ame     -34.784  10.931  28.628  0.00  0.00    -0.346 N 
ATOM      4  C10 non d ame     -33.305  10.679  28.780  0.00  0.00     0.241 C 
ATOM      5  O4  non d ame     -32.881   9.571  28.773  0.00  0.00    -0.271 OA
ATOM      6  H19 non d ame     -35.164  11.867  28.633  0.00  0.00     0.163 HD
BRANCH   4   7
ATOM      7  C9  non d ame     -32.363  11.844  28.940  0.00  0.00     0.092 C 
ATOM      8  H11 non d ame     -31.401  11.591  28.495  0.00  0.00     0.088 H 
BRANCH   7   9
ATOM      9  N3  non d ame     -32.888  13.001  28.208  0.00  0.00    -0.346 N 
ATOM     10  C7  non d ame     -32.426  13.277  26.869  0.00  0.00     0.240 C 
ATOM     11  O3  non d ame     -31.631  12.579  26.367  0.00  0.00    -0.271 OA
ATOM     12  H10 non d ame     -33.573  13.613  28.628  0.00  0.00     0.163 HD
BRANCH  10  13
ATOM     13  C6  non d ame     -32.986  14.511  26.096  0.00  0.00     0.086 C 
ATOM     14  H6  non d ame     -32.743  15.457  26.580  0.00  0.00     0.086 H 
BRANCH  13  15
ATOM     15  N2  non d ame     -32.383  14.553  24.775  0.00  0.00    -0.343 N 
ATOM     16  C5  non d ame     -31.343  15.543  24.487  0.00  0.00     0.273 C 
ATOM     17  O2  non d ame     -31.001  16.304  25.325  0.00  0.00    -0.266 OA
ATOM     18  H5  non d ame     -32.683  13.901  24.064  0.00  0.00     0.163 HD
BRANCH  16  19
ATOM     19  C4  non d ame     -30.695  15.598  23.095  0.00  0.00     0.154 A 
ATOM     20  C1  non d ame     -31.362  15.743  21.837  0.00  0.00    -0.017 A 
ATOM     21  C2  non d ame     -30.327  15.736  20.875  0.00  0.00     0.077 A 
ATOM     22  H1  non d ame     -32.431  15.839  21.650  0.00  0.00     0.091 H 
ATOM     23  O1  non d ame     -29.203  15.603  21.516  0.00  0.00    -0.218 OA
ATOM     24  N1  non d ame     -29.392  15.520  22.812  0.00  0.00    -0.123 NA
BRANCH  21  25
ATOM     25  C3  non d ame     -30.497  15.862  19.366  0.00  0.00    -0.029 C 
ATOM     26  H2  non d ame     -31.557  15.944  19.126  0.00  0.00     0.036 H 
ATOM     27  H3  non d ame     -29.975  16.752  19.015  0.00  0.00     0.036 H 
ATOM     28  H4  non d ame     -30.081  14.981  18.879  0.00  0.00     0.036 H 
ENDBRANCH  21  25
ENDBRANCH  16  19
ENDBRANCH  13  15
BRANCH  13  29
ATOM     29  C8  non d ame     -34.484  14.395  25.977  0.00  0.00    -0.049 C 
ATOM     30  H7  non d ame     -34.840  13.595  26.626  0.00  0.00     0.030 H 
ATOM     31  H8  non d ame     -34.946  15.336  26.275  0.00  0.00     0.030 H 
ATOM     32  H9  non d ame     -34.750  14.170  24.944  0.00  0.00     0.030 H 
ENDBRANCH  13  29
ENDBRANCH  10  13
ENDBRANCH   7   9
BRANCH   7  33
ATOM     33  C11 non d ame     -32.235  12.204  30.449  0.00  0.00    -0.033 C 
ATOM     34  H12 non d ame     -32.422  13.273  30.549  0.00  0.00     0.042 H 
BRANCH  33  35
ATOM     35  C12 non d ame     -33.306  11.459  31.304  0.00  0.00    -0.071 C 
ATOM     36  H13 non d ame     -33.816  10.720  30.685  0.00  0.00     0.028 H 
ATOM     37  H14 non d ame     -32.819  10.958  32.140  0.00  0.00     0.028 H 
ATOM     38  H15 non d ame     -34.033  12.177  31.684  0.00  0.00     0.028 H 
ENDBRANCH  33  35
BRANCH  33  39
ATOM     39  C13 non d ame     -30.791  11.915  30.972  0.00  0.00    -0.071 C 
ATOM     40  H16 non d ame     -30.840  11.209  31.802  0.00  0.00     0.028 H 
ATOM     41  H17 non d ame     -30.192  11.488  30.167  0.00  0.00     0.028 H 
ATOM     42  H18 non d ame     -30.334  12.844  31.311  0.00  0.00     0.028 H 
ENDBRANCH  33  39
ENDBRANCH   7  33
ENDBRANCH   4   7
ENDBRANCH   1   3
BRANCH   1  43
ATOM     43  C15 non d ame     -35.685   9.368  26.978  0.00  0.00     0.240 C 
ATOM     44  O5  non d ame     -36.520   9.763  26.229  0.00  0.00    -0.271 OA
ATOM     45  N6  non d ame     -34.620   8.451  26.483  0.00  0.00    -0.355 N 
ATOM     46  H46 non d ame     -33.903   8.112  27.108  0.00  0.00     0.162 HD
BRANCH  45  47
ATOM     47  C20 non d ame     -34.613   8.033  25.064  0.00  0.00     0.013 C 
ATOM     48  H30 non d ame     -35.105   8.813  24.483  0.00  0.00     0.072 H 
BRANCH  47  49
ATOM     49  C21 non d ame     -35.367   6.730  24.922  0.00  0.00    -0.038 C 
ATOM     50  H31 non d ame     -36.180   6.781  25.646  0.00  0.00     0.036 H 
ATOM     51  H32 non d ame     -35.588   6.632  23.859  0.00  0.00     0.036 H 
BRANCH  49  52
ATOM     52  C22 non d ame     -34.516   5.501  25.307  0.00  0.00     0.018 C 
ATOM     53  H33 non d ame     -34.879   4.684  24.684  0.00  0.00     0.048 H 
ATOM     54  H34 non d ame     -33.477   5.825  25.231  0.00  0.00     0.048 H 
BRANCH  52  55
ATOM     55  C23 non d ame     -34.713   5.038  26.777  0.00  0.00     0.259 C 
ATOM     56  O7  non d ame     -35.498   4.187  27.041  0.00  0.00    -0.265 OA
BRANCH  55  57
ATOM     57  O8  non d ame     -33.951   5.653  27.809  0.00  0.00    -0.317 OA
BRANCH  57  58
ATOM     58  C29 non d ame     -34.659   5.806  29.043  0.00  0.00     0.052 C 
ATOM     59  H47 non d ame     -34.537   6.852  29.324  0.00  0.00     0.082 H 
ATOM     60  H48 non d ame     -35.655   5.402  28.864  0.00  0.00     0.082 H 
BRANCH  58  61
ATOM     61  C35 non d ame     -33.956   4.926  30.111  0.00  0.00    -0.034 A 
ATOM     62  C30 non d ame     -34.405   4.937  31.427  0.00  0.00    -0.075 A 
ATOM     63  C31 non d ame     -33.775   4.146  32.387  0.00  0.00    -0.082 A 
ATOM     64  H49 non d ame     -35.251   5.565  31.708  0.00  0.00     0.084 H 
ATOM     65  C32 non d ame     -32.689   3.344  32.026  0.00  0.00    -0.083 A 
ATOM     66  H50 non d ame     -34.130   4.156  33.418  0.00  0.00     0.083 H 
ATOM     67  C33 non d ame     -32.242   3.339  30.711  0.00  0.00    -0.082 A 
ATOM     68  H51 non d ame     -32.190   2.722  32.769  0.00  0.00     0.083 H 
ATOM     69  C34 non d ame     -32.871   4.126  29.749  0.00  0.00    -0.075 A 
ATOM     70  H52 non d ame     -31.393   2.714  30.433  0.00  0.00     0.083 H 
ATOM     71  H53 non d ame     -32.515   4.116  28.718  0.00  0.00     0.084 H 
ENDBRANCH  58  61
ENDBRANCH  57  58
ENDBRANCH  55  57
ENDBRANCH  52  55
ENDBRANCH  49  52
ENDBRANCH  47  49
BRANCH  47  72
ATOM     72  C24 non d ame     -33.174   7.844  24.588  0.00  0.00    -0.039 C 
ATOM     73  H35 non d ame     -32.574   7.785  25.496  0.00  0.00     0.036 H 
ATOM     74  H36 non d ame     -33.205   7.000  23.899  0.00  0.00     0.036 H 
BRANCH  72  75
ATOM     75  C25 non d ame     -32.653   9.112  23.759  0.00  0.00    -0.001 C 
ATOM     76  C26 non d ame     -31.778   8.610  22.460  0.00  0.00    -0.035 C 
ATOM     77  C27 non d ame     -30.589   9.260  22.457  0.00  0.00     0.085 C 
ATOM     78  H38 non d ame     -31.497   7.565  22.580  0.00  0.00     0.036 H 
ATOM     79  H39 non d ame     -32.253   8.945  21.537  0.00  0.00     0.036 H 
ATOM     80  N5  non d ame     -30.439   9.912  23.810  0.00  0.00    -0.049 N 
ATOM     81  H40 non d ame     -29.833   8.482  22.351  0.00  0.00     0.075 H 
ATOM     82  H41 non d ame     -30.683  10.035  21.697  0.00  0.00     0.075 H 
ATOM     83  C28 non d ame     -31.904   9.872  24.487  0.00  0.00     0.193 C 
ATOM     84  H42 non d ame     -29.821   9.321  24.346  0.00  0.00     0.280 HD
ATOM     85  H43 non d ame     -30.192  10.876  23.636  0.00  0.00     0.280 HD
ATOM     86  H44 non d ame     -32.519  10.771  24.532  0.00  0.00     0.129 H 
ATOM     87  H37 non d ame     -33.444   9.838  23.573  0.00  0.00     0.046 H 
BRANCH  83  88
ATOM     88  O6  non d ame     -31.812   9.405  25.834  0.00  0.00    -0.369 OA
ATOM     89  H45 non d ame     -32.669   9.080  26.120  0.00  0.00     0.212 HD
ENDBRANCH  83  88
ENDBRANCH  72  75
ENDBRANCH  47  72
ENDBRANCH  45  47
ENDBRANCH   1  43
BRANCH   1  90
ATOM     90  C16 non d ame     -37.106  10.275  28.843  0.00  0.00    -0.035 C 
ATOM     91  H21 non d ame     -37.005  11.328  29.105  0.00  0.00     0.037 H 
ATOM     92  H22 non d ame     -37.741   9.980  28.007  0.00  0.00     0.037 H 
BRANCH  90  93
ATOM     93  C17 non d ame     -37.681   9.559  30.107  0.00  0.00    -0.059 C 
ATOM     94  H23 non d ame     -38.701   9.913  30.252  0.00  0.00     0.038 H 
BRANCH  93  95
ATOM     95  C18 non d ame     -37.735   8.008  29.932  0.00  0.00    -0.073 C 
ATOM     96  H24 non d ame     -38.587   7.742  29.308  0.00  0.00     0.028 H 
ATOM     97  H25 non d ame     -36.817   7.663  29.458  0.00  0.00     0.028 H 
ATOM     98  H26 non d ame     -37.839   7.536  30.909  0.00  0.00     0.028 H 
ENDBRANCH  93  95
BRANCH  93  99
ATOM     99  C19 non d ame     -36.886   9.939  31.359  0.00  0.00    -0.073 C 
ATOM    100  H27 non d ame     -35.911   9.451  31.332  0.00  0.00     0.028 H 
ATOM    101  H28 non d ame     -36.749  11.020  31.390  0.00  0.00     0.028 H 
ATOM    102  H29 non d ame     -37.430   9.617  32.247  0.00  0.00     0.028 H 
ENDBRANCH  93  99
ENDBRANCH  90  93
ENDBRANCH   1  90
TORSDOF 26
ENDMDL
MODEL 19
REMARK VINA RESULT:      -6.5      3.148      7.771
REMARK  26 active torsions:
REMARK  status: ('A' for Active; 'I' for Inactive)
REMARK    1  A    between atoms: C2_2  and  C3_3 
REMARK    2  A    between atoms: C4_6  and  C5_7 
REMARK       I    between atoms: C5_7  and  N2_9 
REMARK    3  A    between atoms: N2_9  and  C6_10 
REMARK    4  A    between atoms: C6_10  and  C7_11 
REMARK    5  A    between atoms: C6_10  and  C8_13 
REMARK       I    between atoms: C7_11  and  N3_14 
REMARK    6  A    between atoms: N3_14  and  C9_15 
REMARK    7  A    between atoms: C9_15  and  C10_16 
REMARK    8  A    between atoms: C9_15  and  C11_18 
REMARK       I    between atoms: C10_16  and  N4_21 
REMARK    9  A    between atoms: C11_18  and  C12_19 
REMARK   10  A    between atoms: C11_18  and  C13_20 
REMARK   11  A    between atoms: N4_21  and  C14_22 
REMARK   12  A    between atoms: C14_22  and  C15_23 
REMARK   13  A    between atoms: C14_22  and  C16_25 
REMARK       I    between atoms: C15_23  and  N6_40 
REMARK   14  A    between atoms: C16_25  and  C17_26 
REMARK   15  A    between atoms: C17_26  and  C18_27 
REMARK   16  A    between atoms: C17_26  and  C19_28 
REMARK   17  A    between atoms: C20_29  and  C21_30 
REMARK   18  A    between atoms: C20_29  and  C24_33 
REMARK   19  A    between atoms: C20_29  and  N6_40 
REMARK   20  A    between atoms: C21_30  and  C22_31 
REMARK   21  A    between atoms: C22_31  and  C23_32 
REMARK   22  A    between atoms: C23_32  and  O8_43 
REMARK   23  A    between atoms: C24_33  and  C25_34 
REMARK   24  A    between atoms: C28_38  and  O6_39 
REMARK   25  A    between atoms: C29_42  and  O8_43 
REMARK   26  A    between atoms: C29_42  and  C35_49 
ROOT
ATOM      1  C14 non d ame     -31.087  11.184  25.214  0.00  0.00     0.089 C 
ATOM      2  H20 non d ame     -30.010  11.048  25.120  0.00  0.00     0.087 H 
ENDROOT
BRANCH   1   3
ATOM      3  N4  non d ame     -31.420  12.471  24.623  0.00  0.00    -0.346 N 
ATOM      4  C10 non d ame     -30.668  12.972  23.415  0.00  0.00     0.241 C 
ATOM      5  O4  non d ame     -29.796  12.321  22.939  0.00  0.00    -0.271 OA
ATOM      6  H19 non d ame     -32.163  13.010  25.044  0.00  0.00     0.163 HD
BRANCH   4   7
ATOM      7  C9  non d ame     -31.029  14.304  22.812  0.00  0.00     0.092 C 
ATOM      8  H11 non d ame     -32.048  14.259  22.429  0.00  0.00     0.088 H 
BRANCH   7   9
ATOM      9  N3  non d ame     -31.003  15.335  23.854  0.00  0.00    -0.346 N 
ATOM     10  C7  non d ame     -32.218  15.696  24.541  0.00  0.00     0.240 C 
ATOM     11  O3  non d ame     -33.226  15.168  24.267  0.00  0.00    -0.271 OA
ATOM     12  H10 non d ame     -30.141  15.801  24.099  0.00  0.00     0.163 HD
BRANCH  10  13
ATOM     13  C6  non d ame     -32.184  16.797  25.646  0.00  0.00     0.086 C 
ATOM     14  H6  non d ame     -31.384  17.521  25.496  0.00  0.00     0.086 H 
BRANCH  13  15
ATOM     15  N2  non d ame     -33.432  17.543  25.607  0.00  0.00    -0.343 N 
ATOM     16  C5  non d ame     -33.490  18.881  26.198  0.00  0.00     0.273 C 
ATOM     17  O2  non d ame     -32.530  19.348  26.705  0.00  0.00    -0.266 OA
ATOM     18  H5  non d ame     -34.248  17.135  25.174  0.00  0.00     0.163 HD
BRANCH  16  19
ATOM     19  C4  non d ame     -34.802  19.682  26.163  0.00  0.00     0.154 A 
ATOM     20  C1  non d ame     -35.948  19.428  25.344  0.00  0.00    -0.017 A 
ATOM     21  C2  non d ame     -36.872  20.439  25.690  0.00  0.00     0.077 A 
ATOM     22  H1  non d ame     -36.087  18.633  24.612  0.00  0.00     0.091 H 
ATOM     23  O1  non d ame     -36.314  21.180  26.601  0.00  0.00    -0.218 OA
ATOM     24  N1  non d ame     -35.105  20.758  26.894  0.00  0.00    -0.123 NA
BRANCH  21  25
ATOM     25  C3  non d ame     -38.265  20.625  25.103  0.00  0.00    -0.029 C 
ATOM     26  H2  non d ame     -38.768  19.660  25.046  0.00  0.00     0.036 H 
ATOM     27  H3  non d ame     -38.840  21.297  25.740  0.00  0.00     0.036 H 
ATOM     28  H4  non d ame     -38.185  21.052  24.104  0.00  0.00     0.036 H 
ENDBRANCH  21  25
ENDBRANCH  16  19
ENDBRANCH  13  15
BRANCH  13  29
ATOM     29  C8  non d ame     -32.010  16.152  26.997  0.00  0.00    -0.049 C 
ATOM     30  H7  non d ame     -32.565  15.213  27.025  0.00  0.00     0.030 H 
ATOM     31  H8  non d ame     -30.953  15.954  27.172  0.00  0.00     0.030 H 
ATOM     32  H9  non d ame     -32.388  16.820  27.771  0.00  0.00     0.030 H 
ENDBRANCH  13  29
ENDBRANCH  10  13
ENDBRANCH   7   9
BRANCH   7  33
ATOM     33  C11 non d ame     -30.001  14.666  21.701  0.00  0.00    -0.033 C 
ATOM     34  H12 non d ame     -29.579  13.733  21.327  0.00  0.00     0.042 H 
BRANCH  33  35
ATOM     35  C12 non d ame     -30.691  15.384  20.500  0.00  0.00    -0.071 C 
ATOM     36  H13 non d ame     -31.534  15.971  20.863  0.00  0.00     0.028 H 
ATOM     37  H14 non d ame     -29.974  16.042  20.009  0.00  0.00     0.028 H 
ATOM     38  H15 non d ame     -31.048  14.639  19.788  0.00  0.00     0.028 H 
ENDBRANCH  33  35
BRANCH  33  39
ATOM     39  C13 non d ame     -28.832  15.527  22.279  0.00  0.00    -0.071 C 
ATOM     40  H16 non d ame     -28.669  15.263  23.325  0.00  0.00     0.028 H 
ATOM     41  H17 non d ame     -27.922  15.334  21.710  0.00  0.00     0.028 H 
ATOM     42  H18 non d ame     -29.089  16.583  22.207  0.00  0.00     0.028 H 
ENDBRANCH  33  39
ENDBRANCH   7  33
ENDBRANCH   4   7
ENDBRANCH   1   3
BRANCH   1  43
ATOM     43  C15 non d ame     -31.887  10.076  24.471  0.00  0.00     0.240 C 
ATOM     44  O5  non d ame     -33.031  10.252  24.202  0.00  0.00    -0.271 OA
ATOM     45  N6  non d ame     -31.223   8.797  24.088  0.00  0.00    -0.355 N 
ATOM     46  H46 non d ame     -30.251   8.637  24.307  0.00  0.00     0.162 HD
BRANCH  45  47
ATOM     47  C20 non d ame     -31.997   7.754  23.380  0.00  0.00     0.013 C 
ATOM     48  H30 non d ame     -33.047   8.046  23.396  0.00  0.00     0.072 H 
BRANCH  47  49
ATOM     49  C21 non d ame     -31.819   6.431  24.091  0.00  0.00    -0.038 C 
ATOM     50  H31 non d ame     -31.972   5.665  23.331  0.00  0.00     0.036 H 
ATOM     51  H32 non d ame     -30.862   6.502  24.609  0.00  0.00     0.036 H 
BRANCH  49  52
ATOM     52  C22 non d ame     -32.887   6.187  25.179  0.00  0.00     0.018 C 
ATOM     53  H33 non d ame     -33.688   6.895  24.971  0.00  0.00     0.048 H 
ATOM     54  H34 non d ame     -33.088   5.115  25.160  0.00  0.00     0.048 H 
BRANCH  52  55
ATOM     55  C23 non d ame     -32.398   6.504  26.620  0.00  0.00     0.259 C 
ATOM     56  O7  non d ame     -32.184   7.626  26.950  0.00  0.00    -0.265 OA
BRANCH  55  57
ATOM     57  O8  non d ame     -32.194   5.437  27.538  0.00  0.00    -0.317 OA
BRANCH  57  58
ATOM     58  C29 non d ame     -33.367   4.659  27.794  0.00  0.00     0.052 C 
ATOM     59  H47 non d ame     -34.186   5.193  27.314  0.00  0.00     0.082 H 
ATOM     60  H48 non d ame     -33.121   3.644  27.483  0.00  0.00     0.082 H 
BRANCH  58  61
ATOM     61  C35 non d ame     -33.614   4.656  29.327  0.00  0.00    -0.034 A 
ATOM     62  C30 non d ame     -32.793   3.907  30.163  0.00  0.00    -0.075 A 
ATOM     63  C31 non d ame     -33.015   3.904  31.540  0.00  0.00    -0.082 A 
ATOM     64  H49 non d ame     -31.976   3.321  29.741  0.00  0.00     0.084 H 
ATOM     65  C32 non d ame     -34.065   4.653  32.079  0.00  0.00    -0.083 A 
ATOM     66  H50 non d ame     -32.369   3.317  32.193  0.00  0.00     0.083 H 
ATOM     67  C33 non d ame     -34.883   5.397  31.239  0.00  0.00    -0.082 A 
ATOM     68  H51 non d ame     -34.245   4.657  33.153  0.00  0.00     0.083 H 
ATOM     69  C34 non d ame     -34.664   5.404  29.863  0.00  0.00    -0.075 A 
ATOM     70  H52 non d ame     -35.703   5.978  31.663  0.00  0.00     0.083 H 
ATOM     71  H53 non d ame     -35.310   5.991  29.211  0.00  0.00     0.084 H 
ENDBRANCH  58  61
ENDBRANCH  57  58
ENDBRANCH  55  57
ENDBRANCH  52  55
ENDBRANCH  49  52
ENDBRANCH  47  49
BRANCH  47  72
ATOM     72  C24 non d ame     -31.501   7.630  21.941  0.00  0.00    -0.039 C 
ATOM     73  H35 non d ame     -30.904   8.524  21.762  0.00  0.00     0.036 H 
ATOM     74  H36 non d ame     -31.040   6.645  21.877  0.00  0.00     0.036 H 
BRANCH  72  75
ATOM     75  C25 non d ame     -32.713   7.653  20.893  0.00  0.00    -0.001 C 
ATOM     76  C26 non d ame     -34.122   7.986  21.673  0.00  0.00    -0.035 C 
ATOM     77  C27 non d ame     -35.040   7.050  21.334  0.00  0.00     0.085 C 
ATOM     78  H38 non d ame     -33.997   7.844  22.746  0.00  0.00     0.036 H 
ATOM     79  H39 non d ame     -34.550   8.913  21.292  0.00  0.00     0.036 H 
ATOM     80  N5  non d ame     -34.295   5.927  20.654  0.00  0.00    -0.049 N 
ATOM     81  H40 non d ame     -35.447   6.687  22.278  0.00  0.00     0.075 H 
ATOM     82  H41 non d ame     -35.694   7.532  20.609  0.00  0.00     0.075 H 
ATOM     83  C28 non d ame     -32.835   6.516  20.294  0.00  0.00     0.193 C 
ATOM     84  H42 non d ame     -34.186   5.197  21.344  0.00  0.00     0.280 HD
ATOM     85  H43 non d ame     -34.787   5.738  19.793  0.00  0.00     0.280 HD
ATOM     86  H44 non d ame     -32.591   6.803  19.272  0.00  0.00     0.129 H 
ATOM     87  H37 non d ame     -32.483   8.249  20.009  0.00  0.00     0.046 H 
BRANCH  83  88
ATOM     88  O6  non d ame     -31.820   5.589  20.684  0.00  0.00    -0.369 OA
ATOM     89  H45 non d ame     -31.657   4.973  19.967  0.00  0.00     0.212 HD
ENDBRANCH  83  88
ENDBRANCH  72  75
ENDBRANCH  47  72
ENDBRANCH  45  47
ENDBRANCH   1  43
BRANCH   1  90
ATOM     90  C16 non d ame     -31.477  11.198  26.684  0.00  0.00    -0.035 C 
ATOM     91  H21 non d ame     -32.403  10.625  26.742  0.00  0.00     0.037 H 
ATOM     92  H22 non d ame     -30.592  10.858  27.221  0.00  0.00     0.037 H 
BRANCH  90  93
ATOM     93  C17 non d ame     -31.806  12.623  27.231  0.00  0.00    -0.059 C 
ATOM     94  H23 non d ame     -31.578  13.341  26.443  0.00  0.00     0.038 H 
BRANCH  93  95
ATOM     95  C18 non d ame     -33.317  12.780  27.596  0.00  0.00    -0.073 C 
ATOM     96  H24 non d ame     -33.432  12.775  28.680  0.00  0.00     0.028 H 
ATOM     97  H25 non d ame     -33.692  13.722  27.197  0.00  0.00     0.028 H 
ATOM     98  H26 non d ame     -33.882  11.953  27.167  0.00  0.00     0.028 H 
ENDBRANCH  93  95
BRANCH  93  99
ATOM     99  C19 non d ame     -30.918  12.967  28.430  0.00  0.00    -0.073 C 
ATOM    100  H27 non d ame     -31.409  13.724  29.041  0.00  0.00     0.028 H 
ATOM    101  H28 non d ame     -30.751  12.070  29.028  0.00  0.00     0.028 H 
ATOM    102  H29 non d ame     -29.962  13.350  28.076  0.00  0.00     0.028 H 
ENDBRANCH  93  99
ENDBRANCH  90  93
ENDBRANCH   1  90
TORSDOF 26
ENDMDL
MODEL 20
REMARK VINA RESULT:      -6.5      2.933      7.902
REMARK  26 active torsions:
REMARK  status: ('A' for Active; 'I' for Inactive)
REMARK    1  A    between atoms: C2_2  and  C3_3 
REMARK    2  A    between atoms: C4_6  and  C5_7 
REMARK       I    between atoms: C5_7  and  N2_9 
REMARK    3  A    between atoms: N2_9  and  C6_10 
REMARK    4  A    between atoms: C6_10  and  C7_11 
REMARK    5  A    between atoms: C6_10  and  C8_13 
REMARK       I    between atoms: C7_11  and  N3_14 
REMARK    6  A    between atoms: N3_14  and  C9_15 
REMARK    7  A    between atoms: C9_15  and  C10_16 
REMARK    8  A    between atoms: C9_15  and  C11_18 
REMARK       I    between atoms: C10_16  and  N4_21 
REMARK    9  A    between atoms: C11_18  and  C12_19 
REMARK   10  A    between atoms: C11_18  and  C13_20 
REMARK   11  A    between atoms: N4_21  and  C14_22 
REMARK   12  A    between atoms: C14_22  and  C15_23 
REMARK   13  A    between atoms: C14_22  and  C16_25 
REMARK       I    between atoms: C15_23  and  N6_40 
REMARK   14  A    between atoms: C16_25  and  C17_26 
REMARK   15  A    between atoms: C17_26  and  C18_27 
REMARK   16  A    between atoms: C17_26  and  C19_28 
REMARK   17  A    between atoms: C20_29  and  C21_30 
REMARK   18  A    between atoms: C20_29  and  C24_33 
REMARK   19  A    between atoms: C20_29  and  N6_40 
REMARK   20  A    between atoms: C21_30  and  C22_31 
REMARK   21  A    between atoms: C22_31  and  C23_32 
REMARK   22  A    between atoms: C23_32  and  O8_43 
REMARK   23  A    between atoms: C24_33  and  C25_34 
REMARK   24  A    between atoms: C28_38  and  O6_39 
REMARK   25  A    between atoms: C29_42  and  O8_43 
REMARK   26  A    between atoms: C29_42  and  C35_49 
ROOT
ATOM      1  C14 non d ame     -33.026   9.157  27.513  0.00  0.00     0.089 C 
ATOM      2  H20 non d ame     -32.026   8.723  27.486  0.00  0.00     0.087 H 
ENDROOT
BRANCH   1   3
ATOM      3  N4  non d ame     -32.884  10.564  27.853  0.00  0.00    -0.346 N 
ATOM      4  C10 non d ame     -31.782  11.389  27.238  0.00  0.00     0.241 C 
ATOM      5  O4  non d ame     -31.019  10.897  26.473  0.00  0.00    -0.271 OA
ATOM      6  H19 non d ame     -33.541  10.964  28.508  0.00  0.00     0.163 HD
BRANCH   4   7
ATOM      7  C9  non d ame     -31.652  12.846  27.597  0.00  0.00     0.092 C 
ATOM      8  H11 non d ame     -30.617  13.159  27.461  0.00  0.00     0.088 H 
BRANCH   7   9
ATOM      9  N3  non d ame     -32.471  13.650  26.684  0.00  0.00    -0.346 N 
ATOM     10  C7  non d ame     -31.839  14.431  25.649  0.00  0.00     0.240 C 
ATOM     11  O3  non d ame     -30.674  14.425  25.537  0.00  0.00    -0.271 OA
ATOM     12  H10 non d ame     -33.477  13.666  26.770  0.00  0.00     0.163 HD
BRANCH  10  13
ATOM     13  C6  non d ame     -32.716  15.286  24.682  0.00  0.00     0.086 C 
ATOM     14  H6  non d ame     -33.618  14.767  24.360  0.00  0.00     0.086 H 
BRANCH  13  15
ATOM     15  N2  non d ame     -33.152  16.485  25.378  0.00  0.00    -0.343 N 
ATOM     16  C5  non d ame     -34.372  16.445  26.189  0.00  0.00     0.273 C 
ATOM     17  O2  non d ame     -34.995  15.444  26.272  0.00  0.00    -0.266 OA
ATOM     18  H5  non d ame     -32.615  17.337  25.300  0.00  0.00     0.163 HD
BRANCH  16  19
ATOM     19  C4  non d ame     -34.844  17.704  26.931  0.00  0.00     0.154 A 
ATOM     20  C1  non d ame     -35.655  18.762  26.411  0.00  0.00    -0.017 A 
ATOM     21  C2  non d ame     -35.802  19.670  27.483  0.00  0.00     0.077 A 
ATOM     22  H1  non d ame     -36.073  18.857  25.408  0.00  0.00     0.091 H 
ATOM     23  O1  non d ame     -35.150  19.180  28.497  0.00  0.00    -0.218 OA
ATOM     24  N1  non d ame     -34.582  18.034  28.199  0.00  0.00    -0.123 NA
BRANCH  21  25
ATOM     25  C3  non d ame     -36.581  20.978  27.457  0.00  0.00    -0.029 C 
ATOM     26  H2  non d ame     -37.649  20.764  27.413  0.00  0.00     0.036 H 
ATOM     27  H3  non d ame     -36.362  21.549  28.359  0.00  0.00     0.036 H 
ATOM     28  H4  non d ame     -36.290  21.557  26.581  0.00  0.00     0.036 H 
ENDBRANCH  21  25
ENDBRANCH  16  19
ENDBRANCH  13  15
BRANCH  13  29
ATOM     29  C8  non d ame     -31.908  15.661  23.466  0.00  0.00    -0.049 C 
ATOM     30  H7  non d ame     -32.159  14.992  22.642  0.00  0.00     0.030 H 
ATOM     31  H8  non d ame     -32.134  16.688  23.182  0.00  0.00     0.030 H 
ATOM     32  H9  non d ame     -30.845  15.572  23.694  0.00  0.00     0.030 H 
ENDBRANCH  13  29
ENDBRANCH  10  13
ENDBRANCH   7   9
BRANCH   7  33
ATOM     33  C11 non d ame     -32.143  13.065  29.058  0.00  0.00    -0.033 C 
ATOM     34  H12 non d ame     -32.961  12.367  29.239  0.00  0.00     0.042 H 
BRANCH  33  35
ATOM     35  C12 non d ame     -31.017  12.745  30.090  0.00  0.00    -0.071 C 
ATOM     36  H13 non d ame     -30.731  13.658  30.611  0.00  0.00     0.028 H 
ATOM     37  H14 non d ame     -31.383  12.014  30.812  0.00  0.00     0.028 H 
ATOM     38  H15 non d ame     -30.151  12.338  29.568  0.00  0.00     0.028 H 
ENDBRANCH  33  35
BRANCH  33  39
ATOM     39  C13 non d ame     -32.693  14.515  29.252  0.00  0.00    -0.071 C 
ATOM     40  H16 non d ame     -33.757  14.471  29.487  0.00  0.00     0.028 H 
ATOM     41  H17 non d ame     -32.160  14.999  30.071  0.00  0.00     0.028 H 
ATOM     42  H18 non d ame     -32.545  15.085  28.336  0.00  0.00     0.028 H 
ENDBRANCH  33  39
ENDBRANCH   7  33
ENDBRANCH   4   7
ENDBRANCH   1   3
BRANCH   1  43
ATOM     43  C15 non d ame     -33.749   9.050  26.140  0.00  0.00     0.240 C 
ATOM     44  O5  non d ame     -34.789   9.602  25.975  0.00  0.00    -0.271 OA
ATOM     45  N6  non d ame     -33.142   8.266  25.027  0.00  0.00    -0.355 N 
ATOM     46  H46 non d ame     -32.257   7.797  25.153  0.00  0.00     0.162 HD
BRANCH  45  47
ATOM     47  C20 non d ame     -33.841   8.176  23.727  0.00  0.00     0.013 C 
ATOM     48  H30 non d ame     -34.766   8.748  23.803  0.00  0.00     0.072 H 
BRANCH  47  49
ATOM     49  C21 non d ame     -34.153   6.727  23.427  0.00  0.00    -0.038 C 
ATOM     50  H31 non d ame     -35.166   6.561  23.796  0.00  0.00     0.036 H 
ATOM     51  H32 non d ame     -33.929   6.591  22.369  0.00  0.00     0.036 H 
BRANCH  49  52
ATOM     52  C22 non d ame     -33.242   5.746  24.197  0.00  0.00     0.018 C 
ATOM     53  H33 non d ame     -32.908   5.015  23.461  0.00  0.00     0.048 H 
ATOM     54  H34 non d ame     -32.513   6.367  24.718  0.00  0.00     0.048 H 
BRANCH  52  55
ATOM     55  C23 non d ame     -33.982   4.937  25.298  0.00  0.00     0.259 C 
ATOM     56  O7  non d ame     -34.156   3.768  25.174  0.00  0.00    -0.265 OA
BRANCH  55  57
ATOM     57  O8  non d ame     -34.462   5.612  26.455  0.00  0.00    -0.317 OA
BRANCH  57  58
ATOM     58  C29 non d ame     -35.626   5.017  27.035  0.00  0.00     0.052 C 
ATOM     59  H47 non d ame     -36.473   5.568  26.628  0.00  0.00     0.082 H 
ATOM     60  H48 non d ame     -35.533   3.947  26.852  0.00  0.00     0.082 H 
BRANCH  58  61
ATOM     61  C35 non d ame     -35.574   5.259  28.567  0.00  0.00    -0.034 A 
ATOM     62  C30 non d ame     -36.694   5.744  29.235  0.00  0.00    -0.075 A 
ATOM     63  C31 non d ame     -36.647   5.961  30.611  0.00  0.00    -0.082 A 
ATOM     64  H49 non d ame     -37.608   5.954  28.679  0.00  0.00     0.084 H 
ATOM     65  C32 non d ame     -35.473   5.694  31.320  0.00  0.00    -0.083 A 
ATOM     66  H50 non d ame     -37.527   6.340  31.131  0.00  0.00     0.083 H 
ATOM     67  C33 non d ame     -34.357   5.213  30.649  0.00  0.00    -0.082 A 
ATOM     68  H51 non d ame     -35.428   5.861  32.396  0.00  0.00     0.083 H 
ATOM     69  C34 non d ame     -34.399   4.992  29.274  0.00  0.00    -0.075 A 
ATOM     70  H52 non d ame     -33.441   5.008  31.205  0.00  0.00     0.083 H 
ATOM     71  H53 non d ame     -33.519   4.613  28.755  0.00  0.00     0.084 H 
ENDBRANCH  58  61
ENDBRANCH  57  58
ENDBRANCH  55  57
ENDBRANCH  52  55
ENDBRANCH  49  52
ENDBRANCH  47  49
BRANCH  47  72
ATOM     72  C24 non d ame     -32.954   8.745  22.622  0.00  0.00    -0.039 C 
ATOM     73  H35 non d ame     -33.101   8.089  21.764  0.00  0.00     0.036 H 
ATOM     74  H36 non d ame     -33.218   9.800  22.552  0.00  0.00     0.036 H 
BRANCH  72  75
ATOM     75  C25 non d ame     -31.401   8.672  23.012  0.00  0.00    -0.001 C 
ATOM     76  C26 non d ame     -30.774  10.189  23.101  0.00  0.00    -0.035 C 
ATOM     77  C27 non d ame     -29.651  10.242  22.346  0.00  0.00     0.085 C 
ATOM     78  H38 non d ame     -31.442  10.899  22.614  0.00  0.00     0.036 H 
ATOM     79  H39 non d ame     -30.412  10.386  24.110  0.00  0.00     0.036 H 
ATOM     80  N5  non d ame     -29.635   8.998  21.491  0.00  0.00    -0.049 N 
ATOM     81  H40 non d ame     -29.773  11.114  21.703  0.00  0.00     0.075 H 
ATOM     82  H41 non d ame     -28.823  10.198  23.052  0.00  0.00     0.075 H 
ATOM     83  C28 non d ame     -30.730   8.003  22.135  0.00  0.00     0.193 C 
ATOM     84  H42 non d ame     -29.953   9.277  20.574  0.00  0.00     0.280 HD
ATOM     85  H43 non d ame     -28.719   8.586  21.604  0.00  0.00     0.280 HD
ATOM     86  H44 non d ame     -30.417   7.148  22.735  0.00  0.00     0.129 H 
ATOM     87  H37 non d ame     -31.219   8.009  23.858  0.00  0.00     0.046 H 
BRANCH  83  88
ATOM     88  O6  non d ame     -31.569   7.464  21.111  0.00  0.00    -0.369 OA
ATOM     89  H45 non d ame     -31.390   7.914  20.281  0.00  0.00     0.212 HD
ENDBRANCH  83  88
ENDBRANCH  72  75
ENDBRANCH  47  72
ENDBRANCH  45  47
ENDBRANCH   1  43
BRANCH   1  90
ATOM     90  C16 non d ame     -33.858   8.469  28.583  0.00  0.00    -0.035 C 
ATOM     91  H21 non d ame     -34.613   7.901  28.041  0.00  0.00     0.037 H 
ATOM     92  H22 non d ame     -33.139   7.952  29.219  0.00  0.00     0.037 H 
BRANCH  90  93
ATOM     93  C17 non d ame     -34.632   9.461  29.509  0.00  0.00    -0.059 C 
ATOM     94  H23 non d ame     -34.265  10.465  29.298  0.00  0.00     0.038 H 
BRANCH  93  95
ATOM     95  C18 non d ame     -36.170   9.448  29.230  0.00  0.00    -0.073 C 
ATOM     96  H24 non d ame     -36.350   9.645  28.174  0.00  0.00     0.028 H 
ATOM     97  H25 non d ame     -36.578   8.472  29.491  0.00  0.00     0.028 H 
ATOM     98  H26 non d ame     -36.654  10.217  29.832  0.00  0.00     0.028 H 
ENDBRANCH  93  95
BRANCH  93  99
ATOM     99  C19 non d ame     -34.343   9.171  30.984  0.00  0.00    -0.073 C 
ATOM    100  H27 non d ame     -34.693   8.169  31.233  0.00  0.00     0.028 H 
ATOM    101  H28 non d ame     -33.270   9.236  31.164  0.00  0.00     0.028 H 
ATOM    102  H29 non d ame     -34.860   9.902  31.606  0.00  0.00     0.028 H 
ENDBRANCH  93  99
ENDBRANCH  90  93
ENDBRANCH   1  90
TORSDOF 26
ENDMDL
