MODEL 1
REMARK VINA RESULT:      -7.6      0.000      0.000
REMARK  26 active torsions:
REMARK  status: ('A' for Active; 'I' for Inactive)
REMARK    1  A    between atoms: C2_2  and  C3_3 
REMARK    2  A    between atoms: C4_6  and  C5_7 
REMARK       I    between atoms: C5_7  and  N2_9 
REMARK    3  A    between atoms: N2_9  and  C6_10 
REMARK    4  A    between atoms: C6_10  and  C7_11 
REMARK    5  A    between atoms: C6_10  and  C8_13 
REMARK       I    between atoms: C7_11  and  N3_14 
REMARK    6  A    between atoms: N3_14  and  C9_15 
REMARK    7  A    between atoms: C9_15  and  C10_16 
REMARK    8  A    between atoms: C9_15  and  C11_18 
REMARK       I    between atoms: C10_16  and  N4_21 
REMARK    9  A    between atoms: C11_18  and  C12_19 
REMARK   10  A    between atoms: C11_18  and  C13_20 
REMARK   11  A    between atoms: N4_21  and  C14_22 
REMARK   12  A    between atoms: C14_22  and  C15_23 
REMARK   13  A    between atoms: C14_22  and  C16_25 
REMARK       I    between atoms: C15_23  and  N6_40 
REMARK   14  A    between atoms: C16_25  and  C17_26 
REMARK   15  A    between atoms: C17_26  and  C18_27 
REMARK   16  A    between atoms: C17_26  and  C19_28 
REMARK   17  A    between atoms: C20_29  and  C21_30 
REMARK   18  A    between atoms: C20_29  and  C24_33 
REMARK   19  A    between atoms: C20_29  and  N6_40 
REMARK   20  A    between atoms: C21_30  and  C22_31 
REMARK   21  A    between atoms: C22_31  and  C23_32 
REMARK   22  A    between atoms: C23_32  and  O8_43 
REMARK   23  A    between atoms: C24_33  and  C25_34 
REMARK   24  A    between atoms: C28_38  and  O6_39 
REMARK   25  A    between atoms: C29_42  and  O8_43 
REMARK   26  A    between atoms: C29_42  and  C35_49 
ROOT
ATOM      1  C14 non d ame     -30.695  14.287  23.793  0.00  0.00     0.089 C 
ATOM      2  H20 non d ame     -29.616  14.310  23.633  0.00  0.00     0.087 H 
ENDROOT
BRANCH   1   3
ATOM      3  N4  non d ame     -31.073  12.902  24.032  0.00  0.00    -0.346 N 
ATOM      4  C10 non d ame     -30.450  11.792  23.224  0.00  0.00     0.241 C 
ATOM      5  O4  non d ame     -29.648  12.038  22.384  0.00  0.00    -0.271 OA
ATOM      6  H19 non d ame     -31.759  12.714  24.750  0.00  0.00     0.163 HD
BRANCH   4   7
ATOM      7  C9  non d ame     -30.849  10.364  23.489  0.00  0.00     0.092 C 
ATOM      8  H11 non d ame     -30.398  10.033  24.424  0.00  0.00     0.088 H 
BRANCH   7   9
ATOM      9  N3  non d ame     -32.303  10.286  23.657  0.00  0.00    -0.346 N 
ATOM     10  C7  non d ame     -32.865  10.044  24.964  0.00  0.00     0.240 C 
ATOM     11  O3  non d ame     -32.162   9.908  25.889  0.00  0.00    -0.271 OA
ATOM     12  H10 non d ame     -32.923  10.399  22.868  0.00  0.00     0.163 HD
BRANCH  10  13
ATOM     13  C6  non d ame     -34.413   9.959  25.137  0.00  0.00     0.086 C 
ATOM     14  H6  non d ame     -34.708   9.558  26.106  0.00  0.00     0.086 H 
BRANCH  13  15
ATOM     15  N2  non d ame     -34.971  11.298  25.053  0.00  0.00    -0.343 N 
ATOM     16  C5  non d ame     -35.543  11.917  26.251  0.00  0.00     0.273 C 
ATOM     17  O2  non d ame     -35.552  11.328  27.276  0.00  0.00    -0.266 OA
ATOM     18  H5  non d ame     -34.962  11.793  24.173  0.00  0.00     0.163 HD
BRANCH  16  19
ATOM     19  C4  non d ame     -36.135  13.333  26.178  0.00  0.00     0.154 A 
ATOM     20  C1  non d ame     -35.820  14.354  25.225  0.00  0.00    -0.017 A 
ATOM     21  C2  non d ame     -36.629  15.454  25.590  0.00  0.00     0.077 A 
ATOM     22  H1  non d ame     -35.114  14.304  24.396  0.00  0.00     0.091 H 
ATOM     23  O1  non d ame     -37.323  15.096  26.631  0.00  0.00    -0.218 OA
ATOM     24  N1  non d ame     -37.052  13.863  26.993  0.00  0.00    -0.123 NA
BRANCH  21  25
ATOM     25  C3  non d ame     -36.678  16.807  24.893  0.00  0.00    -0.029 C 
ATOM     26  H2  non d ame     -37.289  16.731  23.995  0.00  0.00     0.036 H 
ATOM     27  H3  non d ame     -37.112  17.546  25.566  0.00  0.00     0.036 H 
ATOM     28  H4  non d ame     -35.668  17.113  24.621  0.00  0.00     0.036 H 
ENDBRANCH  21  25
ENDBRANCH  16  19
ENDBRANCH  13  15
BRANCH  13  29
ATOM     29  C8  non d ame     -34.996   9.088  24.052  0.00  0.00    -0.049 C 
ATOM     30  H7  non d ame     -34.394   9.182  23.148  0.00  0.00     0.030 H 
ATOM     31  H8  non d ame     -34.996   8.049  24.382  0.00  0.00     0.030 H 
ATOM     32  H9  non d ame     -36.018   9.403  23.842  0.00  0.00     0.030 H 
ENDBRANCH  13  29
ENDBRANCH  10  13
ENDBRANCH   7   9
BRANCH   7  33
ATOM     33  C11 non d ame     -30.421   9.474  22.285  0.00  0.00    -0.033 C 
ATOM     34  H12 non d ame     -30.269  10.130  21.429  0.00  0.00     0.042 H 
BRANCH  33  35
ATOM     35  C12 non d ame     -29.068   8.749  22.567  0.00  0.00    -0.071 C 
ATOM     36  H13 non d ame     -28.452   8.767  21.668  0.00  0.00     0.028 H 
ATOM     37  H14 non d ame     -28.545   9.259  23.376  0.00  0.00     0.028 H 
ATOM     38  H15 non d ame     -29.262   7.716  22.854  0.00  0.00     0.028 H 
ENDBRANCH  33  35
BRANCH  33  39
ATOM     39  C13 non d ame     -31.544   8.452  21.917  0.00  0.00    -0.071 C 
ATOM     40  H16 non d ame     -31.930   7.992  22.827  0.00  0.00     0.028 H 
ATOM     41  H17 non d ame     -32.353   8.971  21.402  0.00  0.00     0.028 H 
ATOM     42  H18 non d ame     -31.135   7.681  21.265  0.00  0.00     0.028 H 
ENDBRANCH  33  39
ENDBRANCH   7  33
ENDBRANCH   4   7
ENDBRANCH   1   3
BRANCH   1  43
ATOM     43  C15 non d ame     -31.124  15.137  25.023  0.00  0.00     0.240 C 
ATOM     44  O5  non d ame     -30.795  16.277  25.097  0.00  0.00    -0.271 OA
ATOM     45  N6  non d ame     -31.954  14.533  26.104  0.00  0.00    -0.355 N 
ATOM     46  H46 non d ame     -32.243  13.567  26.049  0.00  0.00     0.162 HD
BRANCH  45  47
ATOM     47  C20 non d ame     -32.355  15.355  27.266  0.00  0.00     0.013 C 
ATOM     48  H30 non d ame     -31.451  15.769  27.712  0.00  0.00     0.072 H 
BRANCH  47  49
ATOM     49  C21 non d ame     -33.074  14.483  28.270  0.00  0.00    -0.038 C 
ATOM     50  H31 non d ame     -33.789  15.137  28.769  0.00  0.00     0.036 H 
ATOM     51  H32 non d ame     -33.426  13.617  27.709  0.00  0.00     0.036 H 
BRANCH  49  52
ATOM     52  C22 non d ame     -32.138  13.939  29.371  0.00  0.00     0.018 C 
ATOM     53  H33 non d ame     -31.257  14.579  29.352  0.00  0.00     0.048 H 
ATOM     54  H34 non d ame     -32.747  13.877  30.273  0.00  0.00     0.048 H 
BRANCH  52  55
ATOM     55  C23 non d ame     -31.625  12.497  29.100  0.00  0.00     0.259 C 
ATOM     56  O7  non d ame     -30.996  12.254  28.122  0.00  0.00    -0.265 OA
BRANCH  55  57
ATOM     57  O8  non d ame     -31.927  11.464  30.031  0.00  0.00    -0.317 OA
BRANCH  57  58
ATOM     58  C29 non d ame     -32.872  10.504  29.549  0.00  0.00     0.052 C 
ATOM     59  H47 non d ame     -33.432  11.010  28.762  0.00  0.00     0.082 H 
ATOM     60  H48 non d ame     -32.292   9.611  29.316  0.00  0.00     0.082 H 
BRANCH  58  61
ATOM     61  C35 non d ame     -33.847  10.168  30.708  0.00  0.00    -0.034 A 
ATOM     62  C30 non d ame     -34.166  11.138  31.654  0.00  0.00    -0.075 A 
ATOM     63  C31 non d ame     -35.042  10.836  32.695  0.00  0.00    -0.082 A 
ATOM     64  H49 non d ame     -33.729  12.134  31.579  0.00  0.00     0.084 H 
ATOM     65  C32 non d ame     -35.598   9.558  32.791  0.00  0.00    -0.083 A 
ATOM     66  H50 non d ame     -35.291  11.599  33.434  0.00  0.00     0.083 H 
ATOM     67  C33 non d ame     -35.275   8.593  31.847  0.00  0.00    -0.082 A 
ATOM     68  H51 non d ame     -36.285   9.314  33.602  0.00  0.00     0.083 H 
ATOM     69  C34 non d ame     -34.402   8.890  30.803  0.00  0.00    -0.075 A 
ATOM     70  H52 non d ame     -35.709   7.596  31.926  0.00  0.00     0.083 H 
ATOM     71  H53 non d ame     -34.154   8.127  30.065  0.00  0.00     0.084 H 
ENDBRANCH  58  61
ENDBRANCH  57  58
ENDBRANCH  55  57
ENDBRANCH  52  55
ENDBRANCH  49  52
ENDBRANCH  47  49
BRANCH  47  72
ATOM     72  C24 non d ame     -33.283  16.478  26.808  0.00  0.00    -0.039 C 
ATOM     73  H35 non d ame     -32.745  16.992  26.012  0.00  0.00     0.036 H 
ATOM     74  H36 non d ame     -34.238  15.997  26.598  0.00  0.00     0.036 H 
BRANCH  72  75
ATOM     75  C25 non d ame     -33.538  17.548  27.973  0.00  0.00    -0.001 C 
ATOM     76  C26 non d ame     -35.145  17.880  28.086  0.00  0.00    -0.035 C 
ATOM     77  C27 non d ame     -35.316  19.223  28.056  0.00  0.00     0.085 C 
ATOM     78  H38 non d ame     -35.661  17.537  27.190  0.00  0.00     0.036 H 
ATOM     79  H39 non d ame     -35.517  17.597  29.071  0.00  0.00     0.036 H 
ATOM     80  N5  non d ame     -34.007  19.825  27.604  0.00  0.00    -0.049 N 
ATOM     81  H40 non d ame     -36.073  19.403  27.292  0.00  0.00     0.075 H 
ATOM     82  H41 non d ame     -35.504  19.516  29.088  0.00  0.00     0.075 H 
ATOM     83  C28 non d ame     -32.908  18.650  27.742  0.00  0.00     0.193 C 
ATOM     84  H42 non d ame     -34.118  20.049  26.626  0.00  0.00     0.280 HD
ATOM     85  H43 non d ame     -33.784  20.553  28.268  0.00  0.00     0.280 HD
ATOM     86  H44 non d ame     -32.198  18.650  28.569  0.00  0.00     0.129 H 
ATOM     87  H37 non d ame     -33.020  17.285  28.896  0.00  0.00     0.046 H 
BRANCH  83  88
ATOM     88  O6  non d ame     -32.113  18.578  26.556  0.00  0.00    -0.369 OA
ATOM     89  H45 non d ame     -31.835  17.671  26.412  0.00  0.00     0.212 HD
ENDBRANCH  83  88
ENDBRANCH  72  75
ENDBRANCH  47  72
ENDBRANCH  45  47
ENDBRANCH   1  43
BRANCH   1  90
ATOM     90  C16 non d ame     -31.410  14.789  22.549  0.00  0.00    -0.035 C 
ATOM     91  H21 non d ame     -31.688  13.893  21.995  0.00  0.00     0.037 H 
ATOM     92  H22 non d ame     -32.183  15.465  22.914  0.00  0.00     0.037 H 
BRANCH  90  93
ATOM     93  C17 non d ame     -30.500  15.630  21.599  0.00  0.00    -0.059 C 
ATOM     94  H23 non d ame     -30.783  16.677  21.711  0.00  0.00     0.038 H 
BRANCH  93  95
ATOM     95  C18 non d ame     -28.987  15.503  21.968  0.00  0.00    -0.073 C 
ATOM     96  H24 non d ame     -28.635  14.503  21.718  0.00  0.00     0.028 H 
ATOM     97  H25 non d ame     -28.413  16.240  21.406  0.00  0.00     0.028 H 
ATOM     98  H26 non d ame     -28.857  15.679  23.035  0.00  0.00     0.028 H 
ENDBRANCH  93  95
BRANCH  93  99
ATOM     99  C19 non d ame     -30.738  15.250  20.136  0.00  0.00    -0.073 C 
ATOM    100  H27 non d ame     -30.273  15.992  19.486  0.00  0.00     0.028 H 
ATOM    101  H28 non d ame     -30.300  14.271  19.938  0.00  0.00     0.028 H 
ATOM    102  H29 non d ame     -31.809  15.214  19.939  0.00  0.00     0.028 H 
ENDBRANCH  93  99
ENDBRANCH  90  93
ENDBRANCH   1  90
TORSDOF 26
ENDMDL
MODEL 2
REMARK VINA RESULT:      -7.5      1.430      2.190
REMARK  26 active torsions:
REMARK  status: ('A' for Active; 'I' for Inactive)
REMARK    1  A    between atoms: C2_2  and  C3_3 
REMARK    2  A    between atoms: C4_6  and  C5_7 
REMARK       I    between atoms: C5_7  and  N2_9 
REMARK    3  A    between atoms: N2_9  and  C6_10 
REMARK    4  A    between atoms: C6_10  and  C7_11 
REMARK    5  A    between atoms: C6_10  and  C8_13 
REMARK       I    between atoms: C7_11  and  N3_14 
REMARK    6  A    between atoms: N3_14  and  C9_15 
REMARK    7  A    between atoms: C9_15  and  C10_16 
REMARK    8  A    between atoms: C9_15  and  C11_18 
REMARK       I    between atoms: C10_16  and  N4_21 
REMARK    9  A    between atoms: C11_18  and  C12_19 
REMARK   10  A    between atoms: C11_18  and  C13_20 
REMARK   11  A    between atoms: N4_21  and  C14_22 
REMARK   12  A    between atoms: C14_22  and  C15_23 
REMARK   13  A    between atoms: C14_22  and  C16_25 
REMARK       I    between atoms: C15_23  and  N6_40 
REMARK   14  A    between atoms: C16_25  and  C17_26 
REMARK   15  A    between atoms: C17_26  and  C18_27 
REMARK   16  A    between atoms: C17_26  and  C19_28 
REMARK   17  A    between atoms: C20_29  and  C21_30 
REMARK   18  A    between atoms: C20_29  and  C24_33 
REMARK   19  A    between atoms: C20_29  and  N6_40 
REMARK   20  A    between atoms: C21_30  and  C22_31 
REMARK   21  A    between atoms: C22_31  and  C23_32 
REMARK   22  A    between atoms: C23_32  and  O8_43 
REMARK   23  A    between atoms: C24_33  and  C25_34 
REMARK   24  A    between atoms: C28_38  and  O6_39 
REMARK   25  A    between atoms: C29_42  and  O8_43 
REMARK   26  A    between atoms: C29_42  and  C35_49 
ROOT
ATOM      1  C14 non d ame     -30.749  14.432  23.575  0.00  0.00     0.089 C 
ATOM      2  H20 non d ame     -29.659  14.451  23.541  0.00  0.00     0.087 H 
ENDROOT
BRANCH   1   3
ATOM      3  N4  non d ame     -31.153  13.070  23.891  0.00  0.00    -0.346 N 
ATOM      4  C10 non d ame     -30.478  11.900  23.221  0.00  0.00     0.241 C 
ATOM      5  O4  non d ame     -29.614  12.079  22.428  0.00  0.00    -0.271 OA
ATOM      6  H19 non d ame     -31.893  12.939  24.567  0.00  0.00     0.163 HD
BRANCH   4   7
ATOM      7  C9  non d ame     -30.906  10.497  23.564  0.00  0.00     0.092 C 
ATOM      8  H11 non d ame     -30.476  10.216  24.525  0.00  0.00     0.088 H 
BRANCH   7   9
ATOM      9  N3  non d ame     -32.364  10.452  23.711  0.00  0.00    -0.346 N 
ATOM     10  C7  non d ame     -32.953   9.785  24.846  0.00  0.00     0.240 C 
ATOM     11  O3  non d ame     -32.269   9.278  25.650  0.00  0.00    -0.271 OA
ATOM     12  H10 non d ame     -32.967  10.884  23.026  0.00  0.00     0.163 HD
BRANCH  10  13
ATOM     13  C6  non d ame     -34.506   9.738  24.996  0.00  0.00     0.086 C 
ATOM     14  H6  non d ame     -34.825   9.301  25.942  0.00  0.00     0.086 H 
BRANCH  13  15
ATOM     15  N2  non d ame     -35.023  11.096  24.971  0.00  0.00    -0.343 N 
ATOM     16  C5  non d ame     -36.048  11.496  25.937  0.00  0.00     0.273 C 
ATOM     17  O2  non d ame     -36.452  10.717  26.729  0.00  0.00    -0.266 OA
ATOM     18  H5  non d ame     -34.674  11.755  24.289  0.00  0.00     0.163 HD
BRANCH  16  19
ATOM     19  C4  non d ame     -36.603  12.929  25.923  0.00  0.00     0.154 A 
ATOM     20  C1  non d ame     -36.678  13.816  24.802  0.00  0.00    -0.017 A 
ATOM     21  C2  non d ame     -37.262  14.997  25.312  0.00  0.00     0.077 A 
ATOM     22  H1  non d ame     -36.358  13.631  23.777  0.00  0.00     0.091 H 
ATOM     23  O1  non d ame     -37.492  14.800  26.577  0.00  0.00    -0.218 OA
ATOM     24  N1  non d ame     -37.116  13.601  26.957  0.00  0.00    -0.123 NA
BRANCH  21  25
ATOM     25  C3  non d ame     -37.566  16.265  24.525  0.00  0.00    -0.029 C 
ATOM     26  H2  non d ame     -36.788  16.425  23.779  0.00  0.00     0.036 H 
ATOM     27  H3  non d ame     -38.530  16.161  24.028  0.00  0.00     0.036 H 
ATOM     28  H4  non d ame     -37.598  17.116  25.205  0.00  0.00     0.036 H 
ENDBRANCH  21  25
ENDBRANCH  16  19
ENDBRANCH  13  15
BRANCH  13  29
ATOM     29  C8  non d ame     -35.098   8.939  23.864  0.00  0.00    -0.049 C 
ATOM     30  H7  non d ame     -34.965   7.875  24.062  0.00  0.00     0.030 H 
ATOM     31  H8  non d ame     -36.162   9.161  23.780  0.00  0.00     0.030 H 
ATOM     32  H9  non d ame     -34.597   9.201  22.932  0.00  0.00     0.030 H 
ENDBRANCH  13  29
ENDBRANCH  10  13
ENDBRANCH   7   9
BRANCH   7  33
ATOM     33  C11 non d ame     -30.473   9.529  22.424  0.00  0.00    -0.033 C 
ATOM     34  H12 non d ame     -30.234  10.136  21.551  0.00  0.00     0.042 H 
BRANCH  33  35
ATOM     35  C12 non d ame     -29.185   8.737  22.810  0.00  0.00    -0.071 C 
ATOM     36  H13 non d ame     -28.364   9.039  22.161  0.00  0.00     0.028 H 
ATOM     37  H14 non d ame     -28.926   8.948  23.847  0.00  0.00     0.028 H 
ATOM     38  H15 non d ame     -29.367   7.669  22.691  0.00  0.00     0.028 H 
ENDBRANCH  33  35
BRANCH  33  39
ATOM     39  C13 non d ame     -31.638   8.563  22.037  0.00  0.00    -0.071 C 
ATOM     40  H16 non d ame     -31.863   8.671  20.976  0.00  0.00     0.028 H 
ATOM     41  H17 non d ame     -31.341   7.534  22.244  0.00  0.00     0.028 H 
ATOM     42  H18 non d ame     -32.524   8.809  22.624  0.00  0.00     0.028 H 
ENDBRANCH  33  39
ENDBRANCH   7  33
ENDBRANCH   4   7
ENDBRANCH   1   3
BRANCH   1  43
ATOM     43  C15 non d ame     -31.319  15.383  24.666  0.00  0.00     0.240 C 
ATOM     44  O5  non d ame     -30.638  16.252  25.106  0.00  0.00    -0.271 OA
ATOM     45  N6  non d ame     -32.717  15.217  25.155  0.00  0.00    -0.355 N 
ATOM     46  H46 non d ame     -33.306  14.485  24.785  0.00  0.00     0.162 HD
BRANCH  45  47
ATOM     47  C20 non d ame     -33.244  16.131  26.191  0.00  0.00     0.013 C 
ATOM     48  H30 non d ame     -32.400  16.657  26.636  0.00  0.00     0.072 H 
BRANCH  47  49
ATOM     49  C21 non d ame     -33.965  15.325  27.248  0.00  0.00    -0.038 C 
ATOM     50  H31 non d ame     -35.028  15.457  27.045  0.00  0.00     0.036 H 
ATOM     51  H32 non d ame     -33.522  14.330  27.212  0.00  0.00     0.036 H 
BRANCH  49  52
ATOM     52  C22 non d ame     -33.724  15.859  28.677  0.00  0.00     0.018 C 
ATOM     53  H33 non d ame     -33.998  16.913  28.648  0.00  0.00     0.048 H 
ATOM     54  H34 non d ame     -34.254  15.175  29.341  0.00  0.00     0.048 H 
BRANCH  52  55
ATOM     55  C23 non d ame     -32.235  15.816  29.118  0.00  0.00     0.259 C 
ATOM     56  O7  non d ame     -31.821  16.589  29.920  0.00  0.00    -0.265 OA
BRANCH  55  57
ATOM     57  O8  non d ame     -31.365  14.848  28.543  0.00  0.00    -0.317 OA
BRANCH  57  58
ATOM     58  C29 non d ame     -30.840  13.906  29.483  0.00  0.00     0.052 C 
ATOM     59  H47 non d ame     -29.897  13.561  29.059  0.00  0.00     0.082 H 
ATOM     60  H48 non d ame     -30.851  14.413  30.447  0.00  0.00     0.082 H 
BRANCH  58  61
ATOM     61  C35 non d ame     -31.818  12.702  29.551  0.00  0.00    -0.034 A 
ATOM     62  C30 non d ame     -32.328  12.151  28.380  0.00  0.00    -0.075 A 
ATOM     63  C31 non d ame     -33.206  11.071  28.441  0.00  0.00    -0.082 A 
ATOM     64  H49 non d ame     -32.040  12.567  27.414  0.00  0.00     0.084 H 
ATOM     65  C32 non d ame     -33.576  10.542  29.681  0.00  0.00    -0.083 A 
ATOM     66  H50 non d ame     -33.603  10.640  27.521  0.00  0.00     0.083 H 
ATOM     67  C33 non d ame     -33.067  11.097  30.847  0.00  0.00    -0.082 A 
ATOM     68  H51 non d ame     -34.262   9.696  29.738  0.00  0.00     0.083 H 
ATOM     69  C34 non d ame     -32.188  12.176  30.790  0.00  0.00    -0.075 A 
ATOM     70  H52 non d ame     -33.360  10.683  31.813  0.00  0.00     0.083 H 
ATOM     71  H53 non d ame     -31.791  12.605  31.711  0.00  0.00     0.084 H 
ENDBRANCH  58  61
ENDBRANCH  57  58
ENDBRANCH  55  57
ENDBRANCH  52  55
ENDBRANCH  49  52
ENDBRANCH  47  49
BRANCH  47  72
ATOM     72  C24 non d ame     -34.215  17.125  25.557  0.00  0.00    -0.039 C 
ATOM     73  H35 non d ame     -34.134  16.964  24.482  0.00  0.00     0.036 H 
ATOM     74  H36 non d ame     -35.168  16.962  26.062  0.00  0.00     0.036 H 
BRANCH  72  75
ATOM     75  C25 non d ame     -33.782  18.641  25.843  0.00  0.00    -0.001 C 
ATOM     76  C26 non d ame     -32.424  18.670  26.770  0.00  0.00    -0.035 C 
ATOM     77  C27 non d ame     -32.638  19.484  27.831  0.00  0.00     0.085 C 
ATOM     78  H38 non d ame     -32.263  17.694  27.227  0.00  0.00     0.036 H 
ATOM     79  H39 non d ame     -31.614  19.161  26.231  0.00  0.00     0.036 H 
ATOM     80  N5  non d ame     -34.122  19.755  27.888  0.00  0.00    -0.049 N 
ATOM     81  H40 non d ame     -32.348  18.904  28.707  0.00  0.00     0.075 H 
ATOM     82  H41 non d ame     -32.117  20.412  27.595  0.00  0.00     0.075 H 
ATOM     83  C28 non d ame     -34.715  19.284  26.462  0.00  0.00     0.193 C 
ATOM     84  H42 non d ame     -34.495  19.151  28.607  0.00  0.00     0.280 HD
ATOM     85  H43 non d ame     -34.227  20.756  27.966  0.00  0.00     0.280 HD
ATOM     86  H44 non d ame     -34.984  20.020  25.705  0.00  0.00     0.129 H 
ATOM     87  H37 non d ame     -33.777  19.246  24.937  0.00  0.00     0.046 H 
BRANCH  83  88
ATOM     88  O6  non d ame     -35.885  18.487  26.654  0.00  0.00    -0.369 OA
ATOM     89  H45 non d ame     -35.974  17.869  25.924  0.00  0.00     0.212 HD
ENDBRANCH  83  88
ENDBRANCH  72  75
ENDBRANCH  47  72
ENDBRANCH  45  47
ENDBRANCH   1  43
BRANCH   1  90
ATOM     90  C16 non d ame     -31.314  14.815  22.217  0.00  0.00    -0.035 C 
ATOM     91  H21 non d ame     -31.901  13.955  21.896  0.00  0.00     0.037 H 
ATOM     92  H22 non d ame     -31.798  15.780  22.367  0.00  0.00     0.037 H 
BRANCH  90  93
ATOM     93  C17 non d ame     -30.221  15.034  21.123  0.00  0.00    -0.059 C 
ATOM     94  H23 non d ame     -29.998  14.064  20.678  0.00  0.00     0.038 H 
BRANCH  93  95
ATOM     95  C18 non d ame     -30.712  15.981  19.981  0.00  0.00    -0.073 C 
ATOM     96  H24 non d ame     -29.978  16.771  19.823  0.00  0.00     0.028 H 
ATOM     97  H25 non d ame     -30.832  15.408  19.061  0.00  0.00     0.028 H 
ATOM     98  H26 non d ame     -31.667  16.423  20.261  0.00  0.00     0.028 H 
ENDBRANCH  93  95
BRANCH  93  99
ATOM     99  C19 non d ame     -28.923  15.558  21.744  0.00  0.00    -0.073 C 
ATOM    100  H27 non d ame     -28.377  16.145  21.005  0.00  0.00     0.028 H 
ATOM    101  H28 non d ame     -29.159  16.185  22.604  0.00  0.00     0.028 H 
ATOM    102  H29 non d ame     -28.309  14.717  22.066  0.00  0.00     0.028 H 
ENDBRANCH  93  99
ENDBRANCH  90  93
ENDBRANCH   1  90
TORSDOF 26
ENDMDL
MODEL 3
REMARK VINA RESULT:      -7.4      3.193      7.421
REMARK  26 active torsions:
REMARK  status: ('A' for Active; 'I' for Inactive)
REMARK    1  A    between atoms: C2_2  and  C3_3 
REMARK    2  A    between atoms: C4_6  and  C5_7 
REMARK       I    between atoms: C5_7  and  N2_9 
REMARK    3  A    between atoms: N2_9  and  C6_10 
REMARK    4  A    between atoms: C6_10  and  C7_11 
REMARK    5  A    between atoms: C6_10  and  C8_13 
REMARK       I    between atoms: C7_11  and  N3_14 
REMARK    6  A    between atoms: N3_14  and  C9_15 
REMARK    7  A    between atoms: C9_15  and  C10_16 
REMARK    8  A    between atoms: C9_15  and  C11_18 
REMARK       I    between atoms: C10_16  and  N4_21 
REMARK    9  A    between atoms: C11_18  and  C12_19 
REMARK   10  A    between atoms: C11_18  and  C13_20 
REMARK   11  A    between atoms: N4_21  and  C14_22 
REMARK   12  A    between atoms: C14_22  and  C15_23 
REMARK   13  A    between atoms: C14_22  and  C16_25 
REMARK       I    between atoms: C15_23  and  N6_40 
REMARK   14  A    between atoms: C16_25  and  C17_26 
REMARK   15  A    between atoms: C17_26  and  C18_27 
REMARK   16  A    between atoms: C17_26  and  C19_28 
REMARK   17  A    between atoms: C20_29  and  C21_30 
REMARK   18  A    between atoms: C20_29  and  C24_33 
REMARK   19  A    between atoms: C20_29  and  N6_40 
REMARK   20  A    between atoms: C21_30  and  C22_31 
REMARK   21  A    between atoms: C22_31  and  C23_32 
REMARK   22  A    between atoms: C23_32  and  O8_43 
REMARK   23  A    between atoms: C24_33  and  C25_34 
REMARK   24  A    between atoms: C28_38  and  O6_39 
REMARK   25  A    between atoms: C29_42  and  O8_43 
REMARK   26  A    between atoms: C29_42  and  C35_49 
ROOT
ATOM      1  C14 non d ame     -31.153  13.518  24.725  0.00  0.00     0.089 C 
ATOM      2  H20 non d ame     -30.154  13.432  25.153  0.00  0.00     0.087 H 
ENDROOT
BRANCH   1   3
ATOM      3  N4  non d ame     -31.580  12.182  24.337  0.00  0.00    -0.346 N 
ATOM      4  C10 non d ame     -31.489  11.039  25.317  0.00  0.00     0.241 C 
ATOM      5  O4  non d ame     -31.067  11.219  26.412  0.00  0.00    -0.271 OA
ATOM      6  H19 non d ame     -31.934  12.049  23.401  0.00  0.00     0.163 HD
BRANCH   4   7
ATOM      7  C9  non d ame     -31.941   9.663  24.901  0.00  0.00     0.092 C 
ATOM      8  H11 non d ame     -31.187   8.934  25.197  0.00  0.00     0.088 H 
BRANCH   7   9
ATOM      9  N3  non d ame     -33.178   9.320  25.608  0.00  0.00    -0.346 N 
ATOM     10  C7  non d ame     -33.150   8.355  26.680  0.00  0.00     0.240 C 
ATOM     11  O3  non d ame     -32.142   7.846  26.986  0.00  0.00    -0.271 OA
ATOM     12  H10 non d ame     -34.056   9.750  25.354  0.00  0.00     0.163 HD
BRANCH  10  13
ATOM     13  C6  non d ame     -34.471   7.991  27.427  0.00  0.00     0.086 C 
ATOM     14  H6  non d ame     -35.099   7.302  26.862  0.00  0.00     0.086 H 
BRANCH  13  15
ATOM     15  N2  non d ame     -34.138   7.323  28.674  0.00  0.00    -0.343 N 
ATOM     16  C5  non d ame     -34.515   5.921  28.865  0.00  0.00     0.273 C 
ATOM     17  O2  non d ame     -35.088   5.340  28.009  0.00  0.00    -0.266 OA
ATOM     18  H5  non d ame     -33.651   7.828  29.401  0.00  0.00     0.163 HD
BRANCH  16  19
ATOM     19  C4  non d ame     -34.168   5.201  30.177  0.00  0.00     0.154 A 
ATOM     20  C1  non d ame     -33.120   4.251  30.392  0.00  0.00    -0.017 A 
ATOM     21  C2  non d ame     -33.225   3.896  31.755  0.00  0.00     0.077 A 
ATOM     22  H1  non d ame     -32.395   3.876  29.669  0.00  0.00     0.091 H 
ATOM     23  O1  non d ame     -34.219   4.570  32.256  0.00  0.00    -0.218 OA
ATOM     24  N1  non d ame     -34.785   5.338  31.354  0.00  0.00    -0.123 NA
BRANCH  21  25
ATOM     25  C3  non d ame     -32.338   2.907  32.500  0.00  0.00    -0.029 C 
ATOM     26  H2  non d ame     -31.315   3.282  32.523  0.00  0.00     0.036 H 
ATOM     27  H3  non d ame     -32.704   2.788  33.520  0.00  0.00     0.036 H 
ATOM     28  H4  non d ame     -32.360   1.944  31.991  0.00  0.00     0.036 H 
ENDBRANCH  21  25
ENDBRANCH  16  19
ENDBRANCH  13  15
BRANCH  13  29
ATOM     29  C8  non d ame     -35.256   9.247  27.708  0.00  0.00    -0.049 C 
ATOM     30  H7  non d ame     -35.788   9.140  28.653  0.00  0.00     0.030 H 
ATOM     31  H8  non d ame     -34.574  10.095  27.769  0.00  0.00     0.030 H 
ATOM     32  H9  non d ame     -35.973   9.415  26.904  0.00  0.00     0.030 H 
ENDBRANCH  13  29
ENDBRANCH  10  13
ENDBRANCH   7   9
BRANCH   7  33
ATOM     33  C11 non d ame     -32.202   9.646  23.366  0.00  0.00    -0.033 C 
ATOM     34  H12 non d ame     -32.388  10.673  23.053  0.00  0.00     0.042 H 
BRANCH  33  35
ATOM     35  C12 non d ame     -30.952   9.136  22.583  0.00  0.00    -0.071 C 
ATOM     36  H13 non d ame     -30.091   9.107  23.251  0.00  0.00     0.028 H 
ATOM     37  H14 non d ame     -31.148   8.136  22.197  0.00  0.00     0.028 H 
ATOM     38  H15 non d ame     -30.743   9.812  21.753  0.00  0.00     0.028 H 
ENDBRANCH  33  35
BRANCH  33  39
ATOM     39  C13 non d ame     -33.469   8.798  23.024  0.00  0.00    -0.071 C 
ATOM     40  H16 non d ame     -33.863   8.349  23.936  0.00  0.00     0.028 H 
ATOM     41  H17 non d ame     -34.228   9.443  22.579  0.00  0.00     0.028 H 
ATOM     42  H18 non d ame     -33.201   8.013  22.318  0.00  0.00     0.028 H 
ENDBRANCH  33  39
ENDBRANCH   7  33
ENDBRANCH   4   7
ENDBRANCH   1   3
BRANCH   1  43
ATOM     43  C15 non d ame     -32.181  14.090  25.743  0.00  0.00     0.240 C 
ATOM     44  O5  non d ame     -33.298  14.304  25.398  0.00  0.00    -0.271 OA
ATOM     45  N6  non d ame     -31.775  14.364  27.151  0.00  0.00    -0.355 N 
ATOM     46  H46 non d ame     -30.830  14.181  27.457  0.00  0.00     0.162 HD
BRANCH  45  47
ATOM     47  C20 non d ame     -32.764  14.906  28.107  0.00  0.00     0.013 C 
ATOM     48  H30 non d ame     -33.757  14.763  27.680  0.00  0.00     0.072 H 
BRANCH  47  49
ATOM     49  C21 non d ame     -32.500  16.380  28.317  0.00  0.00    -0.038 C 
ATOM     50  H31 non d ame     -32.672  16.562  29.378  0.00  0.00     0.036 H 
ATOM     51  H32 non d ame     -31.517  16.567  27.884  0.00  0.00     0.036 H 
BRANCH  49  52
ATOM     52  C22 non d ame     -33.493  17.282  27.552  0.00  0.00     0.018 C 
ATOM     53  H33 non d ame     -34.293  16.623  27.218  0.00  0.00     0.048 H 
ATOM     54  H34 non d ame     -33.714  18.112  28.223  0.00  0.00     0.048 H 
BRANCH  52  55
ATOM     55  C23 non d ame     -32.897  17.919  26.266  0.00  0.00     0.259 C 
ATOM     56  O7  non d ame     -32.022  17.375  25.673  0.00  0.00    -0.265 OA
BRANCH  55  57
ATOM     57  O8  non d ame     -33.401  19.168  25.809  0.00  0.00    -0.317 OA
BRANCH  57  58
ATOM     58  C29 non d ame     -34.041  19.944  26.826  0.00  0.00     0.052 C 
ATOM     59  H47 non d ame     -34.056  19.313  27.714  0.00  0.00     0.082 H 
ATOM     60  H48 non d ame     -33.515  20.898  26.845  0.00  0.00     0.082 H 
BRANCH  58  61
ATOM     61  C35 non d ame     -35.506  20.201  26.382  0.00  0.00    -0.034 A 
ATOM     62  C30 non d ame     -35.975  19.666  25.186  0.00  0.00    -0.075 A 
ATOM     63  C31 non d ame     -37.290  19.897  24.786  0.00  0.00    -0.082 A 
ATOM     64  H49 non d ame     -35.312  19.067  24.561  0.00  0.00     0.084 H 
ATOM     65  C32 non d ame     -38.138  20.667  25.587  0.00  0.00    -0.083 A 
ATOM     66  H50 non d ame     -37.655  19.475  23.849  0.00  0.00     0.083 H 
ATOM     67  C33 non d ame     -37.665  21.201  26.778  0.00  0.00    -0.082 A 
ATOM     68  H51 non d ame     -39.168  20.852  25.282  0.00  0.00     0.083 H 
ATOM     69  C34 non d ame     -36.351  20.972  27.182  0.00  0.00    -0.075 A 
ATOM     70  H52 non d ame     -38.328  21.804  27.399  0.00  0.00     0.083 H 
ATOM     71  H53 non d ame     -35.987  21.394  28.119  0.00  0.00     0.084 H 
ENDBRANCH  58  61
ENDBRANCH  57  58
ENDBRANCH  55  57
ENDBRANCH  52  55
ENDBRANCH  49  52
ENDBRANCH  47  49
BRANCH  47  72
ATOM     72  C24 non d ame     -32.650  14.172  29.441  0.00  0.00    -0.039 C 
ATOM     73  H35 non d ame     -31.991  14.787  30.055  0.00  0.00     0.036 H 
ATOM     74  H36 non d ame     -33.676  13.988  29.760  0.00  0.00     0.036 H 
BRANCH  72  75
ATOM     75  C25 non d ame     -31.944  12.744  29.273  0.00  0.00    -0.001 C 
ATOM     76  C26 non d ame     -33.074  11.551  29.332  0.00  0.00    -0.035 C 
ATOM     77  C27 non d ame     -32.684  10.625  30.241  0.00  0.00     0.085 C 
ATOM     78  H38 non d ame     -34.005  11.937  29.746  0.00  0.00     0.036 H 
ATOM     79  H39 non d ame     -33.084  10.998  28.393  0.00  0.00     0.036 H 
ATOM     80  N5  non d ame     -31.560  11.237  31.041  0.00  0.00    -0.049 N 
ATOM     81  H40 non d ame     -33.545  10.476  30.892  0.00  0.00     0.075 H 
ATOM     82  H41 non d ame     -32.292   9.792  29.658  0.00  0.00     0.075 H 
ATOM     83  C28 non d ame     -31.081  12.536  30.210  0.00  0.00     0.193 C 
ATOM     84  H42 non d ame     -31.965  11.545  31.914  0.00  0.00     0.280 HD
ATOM     85  H43 non d ame     -30.810  10.561  31.043  0.00  0.00     0.280 HD
ATOM     86  H44 non d ame     -30.159  12.512  29.628  0.00  0.00     0.129 H 
ATOM     87  H37 non d ame     -31.246  12.724  28.437  0.00  0.00     0.046 H 
BRANCH  83  88
ATOM     88  O6  non d ame     -30.952  13.660  31.083  0.00  0.00    -0.369 OA
ATOM     89  H45 non d ame     -30.579  14.400  30.599  0.00  0.00     0.212 HD
ENDBRANCH  83  88
ENDBRANCH  72  75
ENDBRANCH  47  72
ENDBRANCH  45  47
ENDBRANCH   1  43
BRANCH   1  90
ATOM     90  C16 non d ame     -31.110  14.403  23.490  0.00  0.00    -0.035 C 
ATOM     91  H21 non d ame     -31.770  13.923  22.768  0.00  0.00     0.037 H 
ATOM     92  H22 non d ame     -31.333  15.408  23.847  0.00  0.00     0.037 H 
BRANCH  90  93
ATOM     93  C17 non d ame     -29.701  14.474  22.819  0.00  0.00    -0.059 C 
ATOM     94  H23 non d ame     -28.963  14.589  23.613  0.00  0.00     0.038 H 
BRANCH  93  95
ATOM     95  C18 non d ame     -29.356  13.169  22.032  0.00  0.00    -0.073 C 
ATOM     96  H24 non d ame     -28.653  13.402  21.234  0.00  0.00     0.028 H 
ATOM     97  H25 non d ame     -28.908  12.444  22.710  0.00  0.00     0.028 H 
ATOM     98  H26 non d ame     -30.267  12.752  21.604  0.00  0.00     0.028 H 
ENDBRANCH  93  95
BRANCH  93  99
ATOM     99  C19 non d ame     -29.589  15.703  21.913  0.00  0.00    -0.073 C 
ATOM    100  H27 non d ame     -30.570  15.939  21.497  0.00  0.00     0.028 H 
ATOM    101  H28 non d ame     -29.227  16.552  22.493  0.00  0.00     0.028 H 
ATOM    102  H29 non d ame     -28.892  15.494  21.102  0.00  0.00     0.028 H 
ENDBRANCH  93  99
ENDBRANCH  90  93
ENDBRANCH   1  90
TORSDOF 26
ENDMDL
MODEL 4
REMARK VINA RESULT:      -7.4      1.733      2.687
REMARK  26 active torsions:
REMARK  status: ('A' for Active; 'I' for Inactive)
REMARK    1  A    between atoms: C2_2  and  C3_3 
REMARK    2  A    between atoms: C4_6  and  C5_7 
REMARK       I    between atoms: C5_7  and  N2_9 
REMARK    3  A    between atoms: N2_9  and  C6_10 
REMARK    4  A    between atoms: C6_10  and  C7_11 
REMARK    5  A    between atoms: C6_10  and  C8_13 
REMARK       I    between atoms: C7_11  and  N3_14 
REMARK    6  A    between atoms: N3_14  and  C9_15 
REMARK    7  A    between atoms: C9_15  and  C10_16 
REMARK    8  A    between atoms: C9_15  and  C11_18 
REMARK       I    between atoms: C10_16  and  N4_21 
REMARK    9  A    between atoms: C11_18  and  C12_19 
REMARK   10  A    between atoms: C11_18  and  C13_20 
REMARK   11  A    between atoms: N4_21  and  C14_22 
REMARK   12  A    between atoms: C14_22  and  C15_23 
REMARK   13  A    between atoms: C14_22  and  C16_25 
REMARK       I    between atoms: C15_23  and  N6_40 
REMARK   14  A    between atoms: C16_25  and  C17_26 
REMARK   15  A    between atoms: C17_26  and  C18_27 
REMARK   16  A    between atoms: C17_26  and  C19_28 
REMARK   17  A    between atoms: C20_29  and  C21_30 
REMARK   18  A    between atoms: C20_29  and  C24_33 
REMARK   19  A    between atoms: C20_29  and  N6_40 
REMARK   20  A    between atoms: C21_30  and  C22_31 
REMARK   21  A    between atoms: C22_31  and  C23_32 
REMARK   22  A    between atoms: C23_32  and  O8_43 
REMARK   23  A    between atoms: C24_33  and  C25_34 
REMARK   24  A    between atoms: C28_38  and  O6_39 
REMARK   25  A    between atoms: C29_42  and  O8_43 
REMARK   26  A    between atoms: C29_42  and  C35_49 
ROOT
ATOM      1  C14 non d ame     -31.127  14.122  24.399  0.00  0.00     0.089 C 
ATOM      2  H20 non d ame     -30.144  13.714  24.636  0.00  0.00     0.087 H 
ENDROOT
BRANCH   1   3
ATOM      3  N4  non d ame     -32.102  13.061  24.605  0.00  0.00    -0.346 N 
ATOM      4  C10 non d ame     -31.897  12.038  25.693  0.00  0.00     0.241 C 
ATOM      5  O4  non d ame     -30.937  12.087  26.389  0.00  0.00    -0.271 OA
ATOM      6  H19 non d ame     -32.911  13.036  24.000  0.00  0.00     0.163 HD
BRANCH   4   7
ATOM      7  C9  non d ame     -32.920  10.951  25.895  0.00  0.00     0.092 C 
ATOM      8  H11 non d ame     -33.072  10.796  26.963  0.00  0.00     0.088 H 
BRANCH   7   9
ATOM      9  N3  non d ame     -34.204  11.377  25.331  0.00  0.00    -0.346 N 
ATOM     10  C7  non d ame     -35.192  11.999  26.178  0.00  0.00     0.240 C 
ATOM     11  O3  non d ame     -34.971  12.163  27.316  0.00  0.00    -0.271 OA
ATOM     12  H10 non d ame     -34.410  11.240  24.352  0.00  0.00     0.163 HD
BRANCH  10  13
ATOM     13  C6  non d ame     -36.559  12.447  25.573  0.00  0.00     0.086 C 
ATOM     14  H6  non d ame     -37.403  12.219  26.223  0.00  0.00     0.086 H 
BRANCH  13  15
ATOM     15  N2  non d ame     -36.546  13.890  25.398  0.00  0.00    -0.343 N 
ATOM     16  C5  non d ame     -37.551  14.708  26.081  0.00  0.00     0.273 C 
ATOM     17  O2  non d ame     -38.366  14.196  26.766  0.00  0.00    -0.266 OA
ATOM     18  H5  non d ame     -35.847  14.319  24.808  0.00  0.00     0.163 HD
BRANCH  16  19
ATOM     19  C4  non d ame     -37.548  16.235  25.906  0.00  0.00     0.154 A 
ATOM     20  C1  non d ame     -37.142  16.972  24.749  0.00  0.00    -0.017 A 
ATOM     21  C2  non d ame     -37.331  18.328  25.098  0.00  0.00     0.077 A 
ATOM     22  H1  non d ame     -36.767  16.583  23.802  0.00  0.00     0.091 H 
ATOM     23  O1  non d ame     -37.793  18.355  26.313  0.00  0.00    -0.218 OA
ATOM     24  N1  non d ame     -37.928  17.146  26.806  0.00  0.00    -0.123 NA
BRANCH  21  25
ATOM     25  C3  non d ame     -37.046  19.534  24.212  0.00  0.00    -0.029 C 
ATOM     26  H2  non d ame     -37.267  20.449  24.762  0.00  0.00     0.036 H 
ATOM     27  H3  non d ame     -35.996  19.531  23.921  0.00  0.00     0.036 H 
ATOM     28  H4  non d ame     -37.671  19.486  23.321  0.00  0.00     0.036 H 
ENDBRANCH  21  25
ENDBRANCH  16  19
ENDBRANCH  13  15
BRANCH  13  29
ATOM     29  C8  non d ame     -36.770  11.767  24.244  0.00  0.00    -0.049 C 
ATOM     30  H7  non d ame     -37.198  12.478  23.537  0.00  0.00     0.030 H 
ATOM     31  H8  non d ame     -35.813  11.409  23.863  0.00  0.00     0.030 H 
ATOM     32  H9  non d ame     -37.450  10.925  24.370  0.00  0.00     0.030 H 
ENDBRANCH  13  29
ENDBRANCH  10  13
ENDBRANCH   7   9
BRANCH   7  33
ATOM     33  C11 non d ame     -32.446   9.653  25.177  0.00  0.00    -0.033 C 
ATOM     34  H12 non d ame     -31.372   9.743  25.011  0.00  0.00     0.042 H 
BRANCH  33  35
ATOM     35  C12 non d ame     -32.679   8.393  26.068  0.00  0.00    -0.071 C 
ATOM     36  H13 non d ame     -32.425   7.497  25.503  0.00  0.00     0.028 H 
ATOM     37  H14 non d ame     -32.049   8.455  26.956  0.00  0.00     0.028 H 
ATOM     38  H15 non d ame     -33.726   8.349  26.368  0.00  0.00     0.028 H 
ENDBRANCH  33  35
BRANCH  33  39
ATOM     39  C13 non d ame     -33.139   9.499  23.786  0.00  0.00    -0.071 C 
ATOM     40  H16 non d ame     -34.174   9.834  23.856  0.00  0.00     0.028 H 
ATOM     41  H17 non d ame     -32.611  10.102  23.047  0.00  0.00     0.028 H 
ATOM     42  H18 non d ame     -33.116   8.452  23.482  0.00  0.00     0.028 H 
ENDBRANCH  33  39
ENDBRANCH   7  33
ENDBRANCH   4   7
ENDBRANCH   1   3
BRANCH   1  43
ATOM     43  C15 non d ame     -31.500  15.323  25.315  0.00  0.00     0.240 C 
ATOM     44  O5  non d ame     -31.100  16.411  25.054  0.00  0.00    -0.271 OA
ATOM     45  N6  non d ame     -32.365  15.117  26.512  0.00  0.00    -0.355 N 
ATOM     46  H46 non d ame     -32.715  14.198  26.740  0.00  0.00     0.162 HD
BRANCH  45  47
ATOM     47  C20 non d ame     -32.712  16.270  27.371  0.00  0.00     0.013 C 
ATOM     48  H30 non d ame     -31.946  17.032  27.236  0.00  0.00     0.072 H 
BRANCH  47  49
ATOM     49  C21 non d ame     -32.747  15.823  28.815  0.00  0.00    -0.038 C 
ATOM     50  H31 non d ame     -31.838  16.219  29.268  0.00  0.00     0.036 H 
ATOM     51  H32 non d ame     -33.723  16.129  29.194  0.00  0.00     0.036 H 
BRANCH  49  52
ATOM     52  C22 non d ame     -32.680  14.288  28.970  0.00  0.00     0.018 C 
ATOM     53  H33 non d ame     -33.422  14.035  29.727  0.00  0.00     0.048 H 
ATOM     54  H34 non d ame     -32.771  13.886  27.961  0.00  0.00     0.048 H 
BRANCH  52  55
ATOM     55  C23 non d ame     -31.320  13.773  29.516  0.00  0.00     0.259 C 
ATOM     56  O7  non d ame     -30.320  13.936  28.895  0.00  0.00    -0.265 OA
BRANCH  55  57
ATOM     57  O8  non d ame     -31.283  13.089  30.763  0.00  0.00    -0.317 OA
BRANCH  57  58
ATOM     58  C29 non d ame     -31.105  11.675  30.647  0.00  0.00     0.052 C 
ATOM     59  H47 non d ame     -30.564  11.521  29.713  0.00  0.00     0.082 H 
ATOM     60  H48 non d ame     -30.664  11.355  31.590  0.00  0.00     0.082 H 
BRANCH  58  61
ATOM     61  C35 non d ame     -32.508  11.025  30.515  0.00  0.00    -0.034 A 
ATOM     62  C30 non d ame     -32.794  10.198  29.433  0.00  0.00    -0.075 A 
ATOM     63  C31 non d ame     -34.054   9.615  29.314  0.00  0.00    -0.082 A 
ATOM     64  H49 non d ame     -32.031  10.009  28.677  0.00  0.00     0.084 H 
ATOM     65  C32 non d ame     -35.032   9.861  30.281  0.00  0.00    -0.083 A 
ATOM     66  H50 non d ame     -34.274   8.966  28.465  0.00  0.00     0.083 H 
ATOM     67  C33 non d ame     -34.743  10.689  31.358  0.00  0.00    -0.082 A 
ATOM     68  H51 non d ame     -36.019   9.408  30.196  0.00  0.00     0.083 H 
ATOM     69  C34 non d ame     -33.484  11.273  31.482  0.00  0.00    -0.075 A 
ATOM     70  H52 non d ame     -35.508  10.882  32.110  0.00  0.00     0.083 H 
ATOM     71  H53 non d ame     -33.264  11.921  32.331  0.00  0.00     0.084 H 
ENDBRANCH  58  61
ENDBRANCH  57  58
ENDBRANCH  55  57
ENDBRANCH  52  55
ENDBRANCH  49  52
ENDBRANCH  47  49
BRANCH  47  72
ATOM     72  C24 non d ame     -34.082  16.817  26.973  0.00  0.00    -0.039 C 
ATOM     73  H35 non d ame     -34.316  16.344  26.019  0.00  0.00     0.036 H 
ATOM     74  H36 non d ame     -34.724  16.647  27.837  0.00  0.00     0.036 H 
BRANCH  72  75
ATOM     75  C25 non d ame     -34.037  18.398  26.720  0.00  0.00    -0.001 C 
ATOM     76  C26 non d ame     -32.497  18.948  26.884  0.00  0.00    -0.035 C 
ATOM     77  C27 non d ame     -32.497  19.999  27.739  0.00  0.00     0.085 C 
ATOM     78  H38 non d ame     -31.886  18.204  27.395  0.00  0.00     0.036 H 
ATOM     79  H39 non d ame     -32.153  19.383  25.945  0.00  0.00     0.036 H 
ATOM     80  N5  non d ame     -33.842  20.010  28.424  0.00  0.00    -0.049 N 
ATOM     81  H40 non d ame     -31.725  19.776  28.474  0.00  0.00     0.075 H 
ATOM     82  H41 non d ame     -32.412  20.885  27.110  0.00  0.00     0.075 H 
ATOM     83  C28 non d ame     -34.789  19.027  27.561  0.00  0.00     0.193 C 
ATOM     84  H42 non d ame     -33.701  19.601  29.337  0.00  0.00     0.280 HD
ATOM     85  H43 non d ame     -34.197  20.952  28.343  0.00  0.00     0.280 HD
ATOM     86  H44 non d ame     -35.542  19.435  26.887  0.00  0.00     0.129 H 
ATOM     87  H37 non d ame     -34.574  18.686  25.816  0.00  0.00     0.046 H 
BRANCH  83  88
ATOM     88  O6  non d ame     -35.493  18.135  28.427  0.00  0.00    -0.369 OA
ATOM     89  H45 non d ame     -35.813  18.619  29.192  0.00  0.00     0.212 HD
ENDBRANCH  83  88
ENDBRANCH  72  75
ENDBRANCH  47  72
ENDBRANCH  45  47
ENDBRANCH   1  43
BRANCH   1  90
ATOM     90  C16 non d ame     -31.166  14.557  22.943  0.00  0.00    -0.035 C 
ATOM     91  H21 non d ame     -31.933  13.938  22.478  0.00  0.00     0.037 H 
ATOM     92  H22 non d ame     -31.283  15.641  22.969  0.00  0.00     0.037 H 
BRANCH  90  93
ATOM     93  C17 non d ame     -29.840  14.274  22.168  0.00  0.00    -0.059 C 
ATOM     94  H23 non d ame     -29.980  14.609  21.141  0.00  0.00     0.038 H 
BRANCH  93  95
ATOM     95  C18 non d ame     -28.629  15.060  22.765  0.00  0.00    -0.073 C 
ATOM     96  H24 non d ame     -28.965  15.655  23.615  0.00  0.00     0.028 H 
ATOM     97  H25 non d ame     -27.865  14.357  23.094  0.00  0.00     0.028 H 
ATOM     98  H26 non d ame     -28.213  15.719  22.003  0.00  0.00     0.028 H 
ENDBRANCH  93  95
BRANCH  93  99
ATOM     99  C19 non d ame     -29.545  12.773  22.121  0.00  0.00    -0.073 C 
ATOM    100  H27 non d ame     -30.150  12.259  22.869  0.00  0.00     0.028 H 
ATOM    101  H28 non d ame     -29.785  12.385  21.131  0.00  0.00     0.028 H 
ATOM    102  H29 non d ame     -28.489  12.604  22.330  0.00  0.00     0.028 H 
ENDBRANCH  93  99
ENDBRANCH  90  93
ENDBRANCH   1  90
TORSDOF 26
ENDMDL
MODEL 5
REMARK VINA RESULT:      -7.3      3.331      6.514
REMARK  26 active torsions:
REMARK  status: ('A' for Active; 'I' for Inactive)
REMARK    1  A    between atoms: C2_2  and  C3_3 
REMARK    2  A    between atoms: C4_6  and  C5_7 
REMARK       I    between atoms: C5_7  and  N2_9 
REMARK    3  A    between atoms: N2_9  and  C6_10 
REMARK    4  A    between atoms: C6_10  and  C7_11 
REMARK    5  A    between atoms: C6_10  and  C8_13 
REMARK       I    between atoms: C7_11  and  N3_14 
REMARK    6  A    between atoms: N3_14  and  C9_15 
REMARK    7  A    between atoms: C9_15  and  C10_16 
REMARK    8  A    between atoms: C9_15  and  C11_18 
REMARK       I    between atoms: C10_16  and  N4_21 
REMARK    9  A    between atoms: C11_18  and  C12_19 
REMARK   10  A    between atoms: C11_18  and  C13_20 
REMARK   11  A    between atoms: N4_21  and  C14_22 
REMARK   12  A    between atoms: C14_22  and  C15_23 
REMARK   13  A    between atoms: C14_22  and  C16_25 
REMARK       I    between atoms: C15_23  and  N6_40 
REMARK   14  A    between atoms: C16_25  and  C17_26 
REMARK   15  A    between atoms: C17_26  and  C18_27 
REMARK   16  A    between atoms: C17_26  and  C19_28 
REMARK   17  A    between atoms: C20_29  and  C21_30 
REMARK   18  A    between atoms: C20_29  and  C24_33 
REMARK   19  A    between atoms: C20_29  and  N6_40 
REMARK   20  A    between atoms: C21_30  and  C22_31 
REMARK   21  A    between atoms: C22_31  and  C23_32 
REMARK   22  A    between atoms: C23_32  and  O8_43 
REMARK   23  A    between atoms: C24_33  and  C25_34 
REMARK   24  A    between atoms: C28_38  and  O6_39 
REMARK   25  A    between atoms: C29_42  and  O8_43 
REMARK   26  A    between atoms: C29_42  and  C35_49 
ROOT
ATOM      1  C14 non d ame     -32.925  10.465  25.597  0.00  0.00     0.089 C 
ATOM      2  H20 non d ame     -33.648  10.541  24.785  0.00  0.00     0.087 H 
ENDROOT
BRANCH   1   3
ATOM      3  N4  non d ame     -32.357   9.126  25.554  0.00  0.00    -0.346 N 
ATOM      4  C10 non d ame     -33.066   8.021  24.812  0.00  0.00     0.241 C 
ATOM      5  O4  non d ame     -34.095   8.233  24.260  0.00  0.00    -0.271 OA
ATOM      6  H19 non d ame     -31.481   8.965  26.032  0.00  0.00     0.163 HD
BRANCH   4   7
ATOM      7  C9  non d ame     -32.461   6.642  24.773  0.00  0.00     0.092 C 
ATOM      8  H11 non d ame     -31.400   6.710  25.012  0.00  0.00     0.088 H 
BRANCH   7   9
ATOM      9  N3  non d ame     -33.085   5.805  25.802  0.00  0.00    -0.346 N 
ATOM     10  C7  non d ame     -32.648   5.903  27.173  0.00  0.00     0.240 C 
ATOM     11  O3  non d ame     -31.795   6.649  27.465  0.00  0.00    -0.271 OA
ATOM     12  H10 non d ame     -33.821   5.155  25.564  0.00  0.00     0.163 HD
BRANCH  10  13
ATOM     13  C6  non d ame     -33.313   5.006  28.263  0.00  0.00     0.086 C 
ATOM     14  H6  non d ame     -32.684   4.875  29.143  0.00  0.00     0.086 H 
BRANCH  13  15
ATOM     15  N2  non d ame     -34.536   5.647  28.718  0.00  0.00    -0.343 N 
ATOM     16  C5  non d ame     -34.919   5.550  30.128  0.00  0.00     0.273 C 
ATOM     17  O2  non d ame     -34.239   4.951  30.887  0.00  0.00    -0.266 OA
ATOM     18  H5  non d ame     -35.112   6.155  28.062  0.00  0.00     0.163 HD
BRANCH  16  19
ATOM     19  C4  non d ame     -36.208   6.224  30.624  0.00  0.00     0.154 A 
ATOM     20  C1  non d ame     -36.470   7.628  30.715  0.00  0.00    -0.017 A 
ATOM     21  C2  non d ame     -37.784   7.720  31.224  0.00  0.00     0.077 A 
ATOM     22  H1  non d ame     -35.808   8.453  30.451  0.00  0.00     0.091 H 
ATOM     23  O1  non d ame     -38.218   6.506  31.401  0.00  0.00    -0.218 OA
ATOM     24  N1  non d ame     -37.316   5.616  31.058  0.00  0.00    -0.123 NA
BRANCH  21  25
ATOM     25  C3  non d ame     -38.551   9.004  31.512  0.00  0.00    -0.029 C 
ATOM     26  H2  non d ame     -38.727   9.090  32.584  0.00  0.00     0.036 H 
ATOM     27  H3  non d ame     -37.969   9.859  31.170  0.00  0.00     0.036 H 
ATOM     28  H4  non d ame     -39.507   8.982  30.988  0.00  0.00     0.036 H 
ENDBRANCH  21  25
ENDBRANCH  16  19
ENDBRANCH  13  15
BRANCH  13  29
ATOM     29  C8  non d ame     -33.627   3.652  27.681  0.00  0.00    -0.049 C 
ATOM     30  H7  non d ame     -33.809   2.943  28.489  0.00  0.00     0.030 H 
ATOM     31  H8  non d ame     -34.514   3.723  27.053  0.00  0.00     0.030 H 
ATOM     32  H9  non d ame     -32.783   3.310  27.081  0.00  0.00     0.030 H 
ENDBRANCH  13  29
ENDBRANCH  10  13
ENDBRANCH   7   9
BRANCH   7  33
ATOM     33  C11 non d ame     -32.706   6.008  23.372  0.00  0.00    -0.033 C 
ATOM     34  H12 non d ame     -33.532   6.547  22.908  0.00  0.00     0.042 H 
BRANCH  33  35
ATOM     35  C12 non d ame     -31.460   6.172  22.448  0.00  0.00    -0.071 C 
ATOM     36  H13 non d ame     -30.792   6.923  22.869  0.00  0.00     0.028 H 
ATOM     37  H14 non d ame     -30.936   5.220  22.372  0.00  0.00     0.028 H 
ATOM     38  H15 non d ame     -31.783   6.490  21.456  0.00  0.00     0.028 H 
ENDBRANCH  33  35
BRANCH  33  39
ATOM     39  C13 non d ame     -33.121   4.507  23.503  0.00  0.00    -0.071 C 
ATOM     40  H16 non d ame     -33.596   4.344  24.471  0.00  0.00     0.028 H 
ATOM     41  H17 non d ame     -33.820   4.253  22.706  0.00  0.00     0.028 H 
ATOM     42  H18 non d ame     -32.235   3.877  23.422  0.00  0.00     0.028 H 
ENDBRANCH  33  39
ENDBRANCH   7  33
ENDBRANCH   4   7
ENDBRANCH   1   3
BRANCH   1  43
ATOM     43  C15 non d ame     -31.770  11.498  25.455  0.00  0.00     0.240 C 
ATOM     44  O5  non d ame     -30.667  11.199  25.780  0.00  0.00    -0.271 OA
ATOM     45  N6  non d ame     -32.039  12.857  24.904  0.00  0.00    -0.355 N 
ATOM     46  H46 non d ame     -32.972  13.120  24.620  0.00  0.00     0.162 HD
BRANCH  45  47
ATOM     47  C20 non d ame     -30.931  13.827  24.774  0.00  0.00     0.013 C 
ATOM     48  H30 non d ame     -30.129  13.513  25.442  0.00  0.00     0.072 H 
BRANCH  47  49
ATOM     49  C21 non d ame     -31.421  15.202  25.166  0.00  0.00    -0.038 C 
ATOM     50  H31 non d ame     -30.754  15.538  25.960  0.00  0.00     0.036 H 
ATOM     51  H32 non d ame     -31.490  15.766  24.235  0.00  0.00     0.036 H 
BRANCH  49  52
ATOM     52  C22 non d ame     -32.842  15.182  25.770  0.00  0.00     0.018 C 
ATOM     53  H33 non d ame     -33.491  15.620  25.013  0.00  0.00     0.048 H 
ATOM     54  H34 non d ame     -33.007  14.156  26.102  0.00  0.00     0.048 H 
BRANCH  52  55
ATOM     55  C23 non d ame     -32.998  16.072  27.034  0.00  0.00     0.259 C 
ATOM     56  O7  non d ame     -32.797  17.242  26.977  0.00  0.00    -0.265 OA
BRANCH  55  57
ATOM     57  O8  non d ame     -33.372  15.470  28.268  0.00  0.00    -0.317 OA
BRANCH  57  58
ATOM     58  C29 non d ame     -33.637  14.068  28.175  0.00  0.00     0.052 C 
ATOM     59  H47 non d ame     -34.614  13.921  28.634  0.00  0.00     0.082 H 
ATOM     60  H48 non d ame     -33.482  13.807  27.128  0.00  0.00     0.082 H 
BRANCH  58  61
ATOM     61  C35 non d ame     -32.576  13.322  29.028  0.00  0.00    -0.034 A 
ATOM     62  C30 non d ame     -31.239  13.335  28.644  0.00  0.00    -0.075 A 
ATOM     63  C31 non d ame     -30.286  12.665  29.411  0.00  0.00    -0.082 A 
ATOM     64  H49 non d ame     -30.938  13.869  27.743  0.00  0.00     0.084 H 
ATOM     65  C32 non d ame     -30.675  11.978  30.564  0.00  0.00    -0.083 A 
ATOM     66  H50 non d ame     -29.239  12.678  29.108  0.00  0.00     0.083 H 
ATOM     67  C33 non d ame     -32.011  11.966  30.941  0.00  0.00    -0.082 A 
ATOM     68  H51 non d ame     -29.937  11.453  31.169  0.00  0.00     0.083 H 
ATOM     69  C34 non d ame     -32.967  12.635  30.179  0.00  0.00    -0.075 A 
ATOM     70  H52 non d ame     -32.312  11.427  31.840  0.00  0.00     0.083 H 
ATOM     71  H53 non d ame     -34.014  12.622  30.483  0.00  0.00     0.084 H 
ENDBRANCH  58  61
ENDBRANCH  57  58
ENDBRANCH  55  57
ENDBRANCH  52  55
ENDBRANCH  49  52
ENDBRANCH  47  49
BRANCH  47  72
ATOM     72  C24 non d ame     -30.436  13.855  23.329  0.00  0.00    -0.039 C 
ATOM     73  H35 non d ame     -29.466  13.357  23.345  0.00  0.00     0.036 H 
ATOM     74  H36 non d ame     -31.251  13.441  22.735  0.00  0.00     0.036 H 
BRANCH  72  75
ATOM     75  C25 non d ame     -30.190  15.352  22.815  0.00  0.00    -0.001 C 
ATOM     76  C26 non d ame     -31.278  15.727  21.641  0.00  0.00    -0.035 C 
ATOM     77  C27 non d ame     -30.611  16.215  20.568  0.00  0.00     0.085 C 
ATOM     78  H38 non d ame     -31.745  14.819  21.260  0.00  0.00     0.036 H 
ATOM     79  H39 non d ame     -31.897  16.566  21.959  0.00  0.00     0.036 H 
ATOM     80  N5  non d ame     -29.149  15.901  20.777  0.00  0.00    -0.049 N 
ATOM     81  H40 non d ame     -30.979  15.645  19.714  0.00  0.00     0.075 H 
ATOM     82  H41 non d ame     -30.752  17.294  20.604  0.00  0.00     0.075 H 
ATOM     83  C28 non d ame     -29.001  15.491  22.331  0.00  0.00     0.193 C 
ATOM     84  H42 non d ame     -28.946  15.091  20.209  0.00  0.00     0.280 HD
ATOM     85  H43 non d ame     -28.648  16.765  20.623  0.00  0.00     0.280 HD
ATOM     86  H44 non d ame     -28.574  16.190  23.050  0.00  0.00     0.129 H 
ATOM     87  H37 non d ame     -30.085  16.059  23.639  0.00  0.00     0.046 H 
BRANCH  83  88
ATOM     88  O6  non d ame     -28.226  14.296  22.453  0.00  0.00    -0.369 OA
ATOM     89  H45 non d ame     -27.466  14.347  21.870  0.00  0.00     0.212 HD
ENDBRANCH  83  88
ENDBRANCH  72  75
ENDBRANCH  47  72
ENDBRANCH  45  47
ENDBRANCH   1  43
BRANCH   1  90
ATOM     90  C16 non d ame     -33.626  10.663  26.931  0.00  0.00    -0.035 C 
ATOM     91  H21 non d ame     -32.876  11.099  27.590  0.00  0.00     0.037 H 
ATOM     92  H22 non d ame     -34.536  11.218  26.700  0.00  0.00     0.037 H 
BRANCH  90  93
ATOM     93  C17 non d ame     -34.082   9.329  27.604  0.00  0.00    -0.059 C 
ATOM     94  H23 non d ame     -33.625   8.508  27.052  0.00  0.00     0.038 H 
BRANCH  93  95
ATOM     95  C18 non d ame     -33.609   9.227  29.090  0.00  0.00    -0.073 C 
ATOM     96  H24 non d ame     -33.566  10.224  29.527  0.00  0.00     0.028 H 
ATOM     97  H25 non d ame     -34.311   8.613  29.653  0.00  0.00     0.028 H 
ATOM     98  H26 non d ame     -32.619   8.772  29.125  0.00  0.00     0.028 H 
ENDBRANCH  93  95
BRANCH  93  99
ATOM     99  C19 non d ame     -35.599   9.156  27.503  0.00  0.00    -0.073 C 
ATOM    100  H27 non d ame     -36.095   9.986  28.008  0.00  0.00     0.028 H 
ATOM    101  H28 non d ame     -35.895   9.142  26.453  0.00  0.00     0.028 H 
ATOM    102  H29 non d ame     -35.891   8.218  27.974  0.00  0.00     0.028 H 
ENDBRANCH  93  99
ENDBRANCH  90  93
ENDBRANCH   1  90
TORSDOF 26
ENDMDL
MODEL 6
REMARK VINA RESULT:      -7.2      3.394      7.286
REMARK  26 active torsions:
REMARK  status: ('A' for Active; 'I' for Inactive)
REMARK    1  A    between atoms: C2_2  and  C3_3 
REMARK    2  A    between atoms: C4_6  and  C5_7 
REMARK       I    between atoms: C5_7  and  N2_9 
REMARK    3  A    between atoms: N2_9  and  C6_10 
REMARK    4  A    between atoms: C6_10  and  C7_11 
REMARK    5  A    between atoms: C6_10  and  C8_13 
REMARK       I    between atoms: C7_11  and  N3_14 
REMARK    6  A    between atoms: N3_14  and  C9_15 
REMARK    7  A    between atoms: C9_15  and  C10_16 
REMARK    8  A    between atoms: C9_15  and  C11_18 
REMARK       I    between atoms: C10_16  and  N4_21 
REMARK    9  A    between atoms: C11_18  and  C12_19 
REMARK   10  A    between atoms: C11_18  and  C13_20 
REMARK   11  A    between atoms: N4_21  and  C14_22 
REMARK   12  A    between atoms: C14_22  and  C15_23 
REMARK   13  A    between atoms: C14_22  and  C16_25 
REMARK       I    between atoms: C15_23  and  N6_40 
REMARK   14  A    between atoms: C16_25  and  C17_26 
REMARK   15  A    between atoms: C17_26  and  C18_27 
REMARK   16  A    between atoms: C17_26  and  C19_28 
REMARK   17  A    between atoms: C20_29  and  C21_30 
REMARK   18  A    between atoms: C20_29  and  C24_33 
REMARK   19  A    between atoms: C20_29  and  N6_40 
REMARK   20  A    between atoms: C21_30  and  C22_31 
REMARK   21  A    between atoms: C22_31  and  C23_32 
REMARK   22  A    between atoms: C23_32  and  O8_43 
REMARK   23  A    between atoms: C24_33  and  C25_34 
REMARK   24  A    between atoms: C28_38  and  O6_39 
REMARK   25  A    between atoms: C29_42  and  O8_43 
REMARK   26  A    between atoms: C29_42  and  C35_49 
ROOT
ATOM      1  C14 non d ame     -32.970  10.281  25.445  0.00  0.00     0.089 C 
ATOM      2  H20 non d ame     -33.647  10.355  24.594  0.00  0.00     0.087 H 
ENDROOT
BRANCH   1   3
ATOM      3  N4  non d ame     -32.399   8.942  25.436  0.00  0.00    -0.346 N 
ATOM      4  C10 non d ame     -33.157   7.795  24.818  0.00  0.00     0.241 C 
ATOM      5  O4  non d ame     -34.227   7.973  24.335  0.00  0.00    -0.271 OA
ATOM      6  H19 non d ame     -31.489   8.811  25.854  0.00  0.00     0.163 HD
BRANCH   4   7
ATOM      7  C9  non d ame     -32.549   6.417  24.812  0.00  0.00     0.092 C 
ATOM      8  H11 non d ame     -31.482   6.495  25.024  0.00  0.00     0.088 H 
BRANCH   7   9
ATOM      9  N3  non d ame     -33.146   5.614  25.884  0.00  0.00    -0.346 N 
ATOM     10  C7  non d ame     -32.685   5.769  27.242  0.00  0.00     0.240 C 
ATOM     11  O3  non d ame     -31.834   6.533  27.490  0.00  0.00    -0.271 OA
ATOM     12  H10 non d ame     -33.880   4.950  25.685  0.00  0.00     0.163 HD
BRANCH  10  13
ATOM     13  C6  non d ame     -33.322   4.909  28.377  0.00  0.00     0.086 C 
ATOM     14  H6  non d ame     -32.687   4.839  29.260  0.00  0.00     0.086 H 
BRANCH  13  15
ATOM     15  N2  non d ame     -34.561   5.537  28.805  0.00  0.00    -0.343 N 
ATOM     16  C5  non d ame     -34.920   5.532  30.225  0.00  0.00     0.273 C 
ATOM     17  O2  non d ame     -34.207   5.017  31.014  0.00  0.00    -0.266 OA
ATOM     18  H5  non d ame     -35.166   5.973  28.123  0.00  0.00     0.163 HD
BRANCH  16  19
ATOM     19  C4  non d ame     -36.226   6.193  30.691  0.00  0.00     0.154 A 
ATOM     20  C1  non d ame     -36.526   7.592  30.715  0.00  0.00    -0.017 A 
ATOM     21  C2  non d ame     -37.842   7.674  31.224  0.00  0.00     0.077 A 
ATOM     22  H1  non d ame     -35.887   8.422  30.411  0.00  0.00     0.091 H 
ATOM     23  O1  non d ame     -38.242   6.458  31.459  0.00  0.00    -0.218 OA
ATOM     24  N1  non d ame     -37.316   5.577  31.157  0.00  0.00    -0.123 NA
BRANCH  21  25
ATOM     25  C3  non d ame     -38.643   8.948  31.452  0.00  0.00    -0.029 C 
ATOM     26  H2  non d ame     -38.314   9.715  30.752  0.00  0.00     0.036 H 
ATOM     27  H3  non d ame     -39.702   8.744  31.296  0.00  0.00     0.036 H 
ATOM     28  H4  non d ame     -38.487   9.297  32.473  0.00  0.00     0.036 H 
ENDBRANCH  21  25
ENDBRANCH  16  19
ENDBRANCH  13  15
BRANCH  13  29
ATOM     29  C8  non d ame     -33.598   3.519  27.864  0.00  0.00    -0.049 C 
ATOM     30  H7  non d ame     -34.668   3.317  27.919  0.00  0.00     0.030 H 
ATOM     31  H8  non d ame     -33.266   3.441  26.829  0.00  0.00     0.030 H 
ATOM     32  H9  non d ame     -33.061   2.793  28.475  0.00  0.00     0.030 H 
ENDBRANCH  13  29
ENDBRANCH  10  13
ENDBRANCH   7   9
BRANCH   7  33
ATOM     33  C11 non d ame     -32.824   5.734  23.441  0.00  0.00    -0.033 C 
ATOM     34  H12 non d ame     -33.703   6.211  23.006  0.00  0.00     0.042 H 
BRANCH  33  35
ATOM     35  C12 non d ame     -31.637   5.947  22.451  0.00  0.00    -0.071 C 
ATOM     36  H13 non d ame     -32.023   6.275  21.485  0.00  0.00     0.028 H 
ATOM     37  H14 non d ame     -30.963   6.704  22.849  0.00  0.00     0.028 H 
ATOM     38  H15 non d ame     -31.096   5.008  22.325  0.00  0.00     0.028 H 
ENDBRANCH  33  35
BRANCH  33  39
ATOM     39  C13 non d ame     -33.142   4.215  23.626  0.00  0.00    -0.071 C 
ATOM     40  H16 non d ame     -32.621   3.639  22.861  0.00  0.00     0.028 H 
ATOM     41  H17 non d ame     -32.810   3.892  24.613  0.00  0.00     0.028 H 
ATOM     42  H18 non d ame     -34.216   4.055  23.535  0.00  0.00     0.028 H 
ENDBRANCH  33  39
ENDBRANCH   7  33
ENDBRANCH   4   7
ENDBRANCH   1   3
BRANCH   1  43
ATOM     43  C15 non d ame     -31.810  11.314  25.365  0.00  0.00     0.240 C 
ATOM     44  O5  non d ame     -30.732  11.026  25.774  0.00  0.00    -0.271 OA
ATOM     45  N6  non d ame     -32.042  12.662  24.771  0.00  0.00    -0.355 N 
ATOM     46  H46 non d ame     -32.952  12.916  24.416  0.00  0.00     0.162 HD
BRANCH  45  47
ATOM     47  C20 non d ame     -30.929  13.633  24.701  0.00  0.00     0.013 C 
ATOM     48  H30 non d ame     -30.119  13.260  25.327  0.00  0.00     0.072 H 
BRANCH  47  49
ATOM     49  C21 non d ame     -31.403  14.974  25.212  0.00  0.00    -0.038 C 
ATOM     50  H31 non d ame     -30.598  15.676  24.990  0.00  0.00     0.036 H 
ATOM     51  H32 non d ame     -32.391  15.122  24.777  0.00  0.00     0.036 H 
BRANCH  49  52
ATOM     52  C22 non d ame     -31.592  14.999  26.744  0.00  0.00     0.018 C 
ATOM     53  H33 non d ame     -31.059  14.127  27.122  0.00  0.00     0.048 H 
ATOM     54  H34 non d ame     -31.297  15.999  27.062  0.00  0.00     0.048 H 
BRANCH  52  55
ATOM     55  C23 non d ame     -33.069  14.825  27.196  0.00  0.00     0.259 C 
ATOM     56  O7  non d ame     -33.809  14.127  26.581  0.00  0.00    -0.265 OA
BRANCH  55  57
ATOM     57  O8  non d ame     -33.532  15.520  28.347  0.00  0.00    -0.317 OA
BRANCH  57  58
ATOM     58  C29 non d ame     -34.591  16.445  28.082  0.00  0.00     0.052 C 
ATOM     59  H47 non d ame     -35.247  15.945  27.369  0.00  0.00     0.082 H 
ATOM     60  H48 non d ame     -34.973  16.743  29.058  0.00  0.00     0.082 H 
BRANCH  58  61
ATOM     61  C35 non d ame     -33.976  17.692  27.393  0.00  0.00    -0.034 A 
ATOM     62  C30 non d ame     -34.423  18.085  26.135  0.00  0.00    -0.075 A 
ATOM     63  C31 non d ame     -33.871  19.205  25.516  0.00  0.00    -0.082 A 
ATOM     64  H49 non d ame     -35.206  17.515  25.635  0.00  0.00     0.084 H 
ATOM     65  C32 non d ame     -32.865  19.933  26.159  0.00  0.00    -0.083 A 
ATOM     66  H50 non d ame     -34.224  19.511  24.531  0.00  0.00     0.083 H 
ATOM     67  C33 non d ame     -32.420  19.535  27.413  0.00  0.00    -0.082 A 
ATOM     68  H51 non d ame     -32.429  20.811  25.682  0.00  0.00     0.083 H 
ATOM     69  C34 non d ame     -32.971  18.418  28.036  0.00  0.00    -0.075 A 
ATOM     70  H52 non d ame     -31.634  20.104  27.910  0.00  0.00     0.083 H 
ATOM     71  H53 non d ame     -32.617  18.112  29.021  0.00  0.00     0.084 H 
ENDBRANCH  58  61
ENDBRANCH  57  58
ENDBRANCH  55  57
ENDBRANCH  52  55
ENDBRANCH  49  52
ENDBRANCH  47  49
BRANCH  47  72
ATOM     72  C24 non d ame     -30.458  13.775  23.255  0.00  0.00    -0.039 C 
ATOM     73  H35 non d ame     -29.494  13.268  23.212  0.00  0.00     0.036 H 
ATOM     74  H36 non d ame     -31.288  13.420  22.643  0.00  0.00     0.036 H 
BRANCH  72  75
ATOM     75  C25 non d ame     -30.204  15.308  22.862  0.00  0.00    -0.001 C 
ATOM     76  C26 non d ame     -31.302  15.787  21.736  0.00  0.00    -0.035 C 
ATOM     77  C27 non d ame     -30.643  16.355  20.698  0.00  0.00     0.085 C 
ATOM     78  H38 non d ame     -31.782  14.917  21.288  0.00  0.00     0.036 H 
ATOM     79  H39 non d ame     -31.910  16.602  22.129  0.00  0.00     0.036 H 
ATOM     80  N5  non d ame     -29.182  16.014  20.863  0.00  0.00    -0.049 N 
ATOM     81  H40 non d ame     -31.025  15.861  19.805  0.00  0.00     0.075 H 
ATOM     82  H41 non d ame     -30.773  17.429  20.824  0.00  0.00     0.075 H 
ATOM     83  C28 non d ame     -29.020  15.476  22.377  0.00  0.00     0.193 C 
ATOM     84  H42 non d ame     -28.993  15.251  20.229  0.00  0.00     0.280 HD
ATOM     85  H43 non d ame     -28.674  16.883  20.774  0.00  0.00     0.280 HD
ATOM     86  H44 non d ame     -28.578  16.110  23.145  0.00  0.00     0.129 H 
ATOM     87  H37 non d ame     -30.084  15.944  23.739  0.00  0.00     0.046 H 
BRANCH  83  88
ATOM     88  O6  non d ame     -28.255  14.269  22.391  0.00  0.00    -0.369 OA
ATOM     89  H45 non d ame     -27.663  14.275  23.147  0.00  0.00     0.212 HD
ENDBRANCH  83  88
ENDBRANCH  72  75
ENDBRANCH  47  72
ENDBRANCH  45  47
ENDBRANCH   1  43
BRANCH   1  90
ATOM     90  C16 non d ame     -33.745  10.481  26.738  0.00  0.00    -0.035 C 
ATOM     91  H21 non d ame     -33.920  11.554  26.806  0.00  0.00     0.037 H 
ATOM     92  H22 non d ame     -34.589   9.793  26.678  0.00  0.00     0.037 H 
BRANCH  90  93
ATOM     93  C17 non d ame     -32.942  10.084  28.018  0.00  0.00    -0.059 C 
ATOM     94  H23 non d ame     -32.023   9.596  27.693  0.00  0.00     0.038 H 
BRANCH  93  95
ATOM     95  C18 non d ame     -32.544  11.329  28.874  0.00  0.00    -0.073 C 
ATOM     96  H24 non d ame     -32.010  12.044  28.248  0.00  0.00     0.028 H 
ATOM     97  H25 non d ame     -33.443  11.797  29.274  0.00  0.00     0.028 H 
ATOM     98  H26 non d ame     -31.902  11.014  29.696  0.00  0.00     0.028 H 
ENDBRANCH  93  95
BRANCH  93  99
ATOM     99  C19 non d ame     -33.722   9.071  28.860  0.00  0.00    -0.073 C 
ATOM    100  H27 non d ame     -34.733   8.972  28.465  0.00  0.00     0.028 H 
ATOM    101  H28 non d ame     -33.220   8.103  28.822  0.00  0.00     0.028 H 
ATOM    102  H29 non d ame     -33.767   9.415  29.893  0.00  0.00     0.028 H 
ENDBRANCH  93  99
ENDBRANCH  90  93
ENDBRANCH   1  90
TORSDOF 26
ENDMDL
MODEL 7
REMARK VINA RESULT:      -7.2      2.486      8.739
REMARK  26 active torsions:
REMARK  status: ('A' for Active; 'I' for Inactive)
REMARK    1  A    between atoms: C2_2  and  C3_3 
REMARK    2  A    between atoms: C4_6  and  C5_7 
REMARK       I    between atoms: C5_7  and  N2_9 
REMARK    3  A    between atoms: N2_9  and  C6_10 
REMARK    4  A    between atoms: C6_10  and  C7_11 
REMARK    5  A    between atoms: C6_10  and  C8_13 
REMARK       I    between atoms: C7_11  and  N3_14 
REMARK    6  A    between atoms: N3_14  and  C9_15 
REMARK    7  A    between atoms: C9_15  and  C10_16 
REMARK    8  A    between atoms: C9_15  and  C11_18 
REMARK       I    between atoms: C10_16  and  N4_21 
REMARK    9  A    between atoms: C11_18  and  C12_19 
REMARK   10  A    between atoms: C11_18  and  C13_20 
REMARK   11  A    between atoms: N4_21  and  C14_22 
REMARK   12  A    between atoms: C14_22  and  C15_23 
REMARK   13  A    between atoms: C14_22  and  C16_25 
REMARK       I    between atoms: C15_23  and  N6_40 
REMARK   14  A    between atoms: C16_25  and  C17_26 
REMARK   15  A    between atoms: C17_26  and  C18_27 
REMARK   16  A    between atoms: C17_26  and  C19_28 
REMARK   17  A    between atoms: C20_29  and  C21_30 
REMARK   18  A    between atoms: C20_29  and  C24_33 
REMARK   19  A    between atoms: C20_29  and  N6_40 
REMARK   20  A    between atoms: C21_30  and  C22_31 
REMARK   21  A    between atoms: C22_31  and  C23_32 
REMARK   22  A    between atoms: C23_32  and  O8_43 
REMARK   23  A    between atoms: C24_33  and  C25_34 
REMARK   24  A    between atoms: C28_38  and  O6_39 
REMARK   25  A    between atoms: C29_42  and  O8_43 
REMARK   26  A    between atoms: C29_42  and  C35_49 
ROOT
ATOM      1  C14 non d ame     -37.608  13.867  25.152  0.00  0.00     0.089 C 
ATOM      2  H20 non d ame     -38.621  13.939  25.550  0.00  0.00     0.087 H 
ENDROOT
BRANCH   1   3
ATOM      3  N4  non d ame     -37.026  15.200  25.192  0.00  0.00    -0.346 N 
ATOM      4  C10 non d ame     -37.430  16.176  26.267  0.00  0.00     0.241 C 
ATOM      5  O4  non d ame     -38.230  15.867  27.088  0.00  0.00    -0.271 OA
ATOM      6  H19 non d ame     -36.349  15.444  24.482  0.00  0.00     0.163 HD
BRANCH   4   7
ATOM      7  C9  non d ame     -36.813  17.550  26.296  0.00  0.00     0.092 C 
ATOM      8  H11 non d ame     -37.237  18.116  27.126  0.00  0.00     0.088 H 
BRANCH   7   9
ATOM      9  N3  non d ame     -35.373  17.433  26.542  0.00  0.00    -0.346 N 
ATOM     10  C7  non d ame     -34.785  18.072  27.694  0.00  0.00     0.240 C 
ATOM     11  O3  non d ame     -35.455  18.683  28.432  0.00  0.00    -0.271 OA
ATOM     12  H10 non d ame     -34.781  16.910  25.912  0.00  0.00     0.163 HD
BRANCH  10  13
ATOM     13  C6  non d ame     -33.250  17.947  27.948  0.00  0.00     0.086 C 
ATOM     14  H6  non d ame     -32.938  18.417  28.881  0.00  0.00     0.086 H 
BRANCH  13  15
ATOM     15  N2  non d ame     -32.903  16.539  28.055  0.00  0.00    -0.343 N 
ATOM     16  C5  non d ame     -32.098  16.079  29.189  0.00  0.00     0.273 C 
ATOM     17  O2  non d ame     -31.732  16.849  30.007  0.00  0.00    -0.266 OA
ATOM     18  H5  non d ame     -33.218  15.889  27.349  0.00  0.00     0.163 HD
BRANCH  16  19
ATOM     19  C4  non d ame     -31.725  14.594  29.315  0.00  0.00     0.154 A 
ATOM     20  C1  non d ame     -32.527  13.545  29.866  0.00  0.00    -0.017 A 
ATOM     21  C2  non d ame     -31.734  12.381  29.748  0.00  0.00     0.077 A 
ATOM     22  H1  non d ame     -33.530  13.617  30.286  0.00  0.00     0.091 H 
ATOM     23  O1  non d ame     -30.612  12.732  29.192  0.00  0.00    -0.218 OA
ATOM     24  N1  non d ame     -30.582  14.018  28.931  0.00  0.00    -0.123 NA
BRANCH  21  25
ATOM     25  C3  non d ame     -32.124  10.976  30.189  0.00  0.00    -0.029 C 
ATOM     26  H2  non d ame     -31.888  10.848  31.245  0.00  0.00     0.036 H 
ATOM     27  H3  non d ame     -33.193  10.832  30.036  0.00  0.00     0.036 H 
ATOM     28  H4  non d ame     -31.571  10.244  29.601  0.00  0.00     0.036 H 
ENDBRANCH  21  25
ENDBRANCH  16  19
ENDBRANCH  13  15
BRANCH  13  29
ATOM     29  C8  non d ame     -32.495  18.580  26.807  0.00  0.00    -0.049 C 
ATOM     30  H7  non d ame     -32.509  19.664  26.920  0.00  0.00     0.030 H 
ATOM     31  H8  non d ame     -31.465  18.227  26.813  0.00  0.00     0.030 H 
ATOM     32  H9  non d ame     -32.968  18.307  25.863  0.00  0.00     0.030 H 
ENDBRANCH  13  29
ENDBRANCH  10  13
ENDBRANCH   7   9
BRANCH   7  33
ATOM     33  C11 non d ame     -37.048  18.253  24.927  0.00  0.00    -0.033 C 
ATOM     34  H12 non d ame     -36.531  17.669  24.165  0.00  0.00     0.042 H 
BRANCH  33  35
ATOM     35  C12 non d ame     -38.563  18.277  24.553  0.00  0.00    -0.071 C 
ATOM     36  H13 non d ame     -39.094  17.528  25.140  0.00  0.00     0.028 H 
ATOM     37  H14 non d ame     -38.974  19.263  24.765  0.00  0.00     0.028 H 
ATOM     38  H15 non d ame     -38.678  18.055  23.492  0.00  0.00     0.028 H 
ENDBRANCH  33  35
BRANCH  33  39
ATOM     39  C13 non d ame     -36.442  19.693  24.926  0.00  0.00    -0.071 C 
ATOM     40  H16 non d ame     -37.122  20.373  24.414  0.00  0.00     0.028 H 
ATOM     41  H17 non d ame     -36.298  20.027  25.954  0.00  0.00     0.028 H 
ATOM     42  H18 non d ame     -35.481  19.683  24.411  0.00  0.00     0.028 H 
ENDBRANCH  33  39
ENDBRANCH   7  33
ENDBRANCH   4   7
ENDBRANCH   1   3
BRANCH   1  43
ATOM     43  C15 non d ame     -36.714  12.910  25.992  0.00  0.00     0.240 C 
ATOM     44  O5  non d ame     -36.907  12.793  27.159  0.00  0.00    -0.271 OA
ATOM     45  N6  non d ame     -35.622  12.133  25.339  0.00  0.00    -0.355 N 
ATOM     46  H46 non d ame     -35.452  12.220  24.348  0.00  0.00     0.162 HD
BRANCH  45  47
ATOM     47  C20 non d ame     -34.781  11.227  26.151  0.00  0.00     0.013 C 
ATOM     48  H30 non d ame     -35.424  10.743  26.887  0.00  0.00     0.072 H 
BRANCH  47  49
ATOM     49  C21 non d ame     -33.710  12.032  26.851  0.00  0.00    -0.038 C 
ATOM     50  H31 non d ame     -34.239  12.805  27.408  0.00  0.00     0.036 H 
ATOM     51  H32 non d ame     -33.093  11.304  27.379  0.00  0.00     0.036 H 
BRANCH  49  52
ATOM     52  C22 non d ame     -32.774  12.766  25.866  0.00  0.00     0.018 C 
ATOM     53  H33 non d ame     -31.766  12.625  26.256  0.00  0.00     0.048 H 
ATOM     54  H34 non d ame     -33.033  12.390  24.876  0.00  0.00     0.048 H 
BRANCH  52  55
ATOM     55  C23 non d ame     -33.000  14.302  25.814  0.00  0.00     0.259 C 
ATOM     56  O7  non d ame     -34.087  14.758  25.971  0.00  0.00    -0.265 OA
BRANCH  55  57
ATOM     57  O8  non d ame     -31.895  15.162  25.563  0.00  0.00    -0.317 OA
BRANCH  57  58
ATOM     58  C29 non d ame     -30.728  14.486  25.086  0.00  0.00     0.052 C 
ATOM     59  H47 non d ame     -29.888  14.942  25.609  0.00  0.00     0.082 H 
ATOM     60  H48 non d ame     -30.933  13.422  25.208  0.00  0.00     0.082 H 
BRANCH  58  61
ATOM     61  C35 non d ame     -30.586  14.788  23.570  0.00  0.00    -0.034 A 
ATOM     62  C30 non d ame     -31.146  15.943  23.035  0.00  0.00    -0.075 A 
ATOM     63  C31 non d ame     -31.019  16.214  21.673  0.00  0.00    -0.082 A 
ATOM     64  H49 non d ame     -31.686  16.635  23.681  0.00  0.00     0.084 H 
ATOM     65  C32 non d ame     -30.330  15.324  20.846  0.00  0.00    -0.083 A 
ATOM     66  H50 non d ame     -31.458  17.122  21.257  0.00  0.00     0.083 H 
ATOM     67  C33 non d ame     -29.776  14.171  21.384  0.00  0.00    -0.082 A 
ATOM     68  H51 non d ame     -30.225  15.529  19.780  0.00  0.00     0.083 H 
ATOM     69  C34 non d ame     -29.899  13.896  22.745  0.00  0.00    -0.075 A 
ATOM     70  H52 non d ame     -29.241  13.476  20.735  0.00  0.00     0.083 H 
ATOM     71  H53 non d ame     -29.459  12.989  23.160  0.00  0.00     0.084 H 
ENDBRANCH  58  61
ENDBRANCH  57  58
ENDBRANCH  55  57
ENDBRANCH  52  55
ENDBRANCH  49  52
ENDBRANCH  47  49
BRANCH  47  72
ATOM     72  C24 non d ame     -34.128  10.182  25.249  0.00  0.00    -0.039 C 
ATOM     73  H35 non d ame     -34.772  10.111  24.373  0.00  0.00     0.036 H 
ATOM     74  H36 non d ame     -33.091  10.502  25.139  0.00  0.00     0.036 H 
BRANCH  72  75
ATOM     75  C25 non d ame     -34.105   8.736  25.937  0.00  0.00    -0.001 C 
ATOM     76  C26 non d ame     -34.916   8.783  27.367  0.00  0.00    -0.035 C 
ATOM     77  C27 non d ame     -34.127   8.256  28.334  0.00  0.00     0.085 C 
ATOM     78  H38 non d ame     -35.053   9.816  27.685  0.00  0.00     0.036 H 
ATOM     79  H39 non d ame     -35.768   8.104  27.336  0.00  0.00     0.036 H 
ATOM     80  N5  non d ame     -32.734   8.155  27.761  0.00  0.00    -0.049 N 
ATOM     81  H40 non d ame     -34.128   8.989  29.141  0.00  0.00     0.075 H 
ATOM     82  H41 non d ame     -34.512   7.252  28.509  0.00  0.00     0.075 H 
ATOM     83  C28 non d ame     -32.895   8.346  26.166  0.00  0.00     0.193 C 
ATOM     84  H42 non d ame     -32.216   8.941  28.128  0.00  0.00     0.280 HD
ATOM     85  H43 non d ame     -32.418   7.213  27.942  0.00  0.00     0.280 HD
ATOM     86  H44 non d ame     -32.834   7.487  25.497  0.00  0.00     0.129 H 
ATOM     87  H37 non d ame     -34.374   7.942  25.240  0.00  0.00     0.046 H 
BRANCH  83  88
ATOM     88  O6  non d ame     -31.927   9.278  25.681  0.00  0.00    -0.369 OA
ATOM     89  H45 non d ame     -31.736   9.925  26.364  0.00  0.00     0.212 HD
ENDBRANCH  83  88
ENDBRANCH  72  75
ENDBRANCH  47  72
ENDBRANCH  45  47
ENDBRANCH   1  43
BRANCH   1  90
ATOM     90  C16 non d ame     -37.655  13.388  23.710  0.00  0.00    -0.035 C 
ATOM     91  H21 non d ame     -36.615  13.245  23.419  0.00  0.00     0.037 H 
ATOM     92  H22 non d ame     -38.342  12.542  23.709  0.00  0.00     0.037 H 
BRANCH  90  93
ATOM     93  C17 non d ame     -38.248  14.440  22.720  0.00  0.00    -0.059 C 
ATOM     94  H23 non d ame     -37.826  15.411  22.977  0.00  0.00     0.038 H 
BRANCH  93  95
ATOM     95  C18 non d ame     -37.867  14.133  21.236  0.00  0.00    -0.073 C 
ATOM     96  H24 non d ame     -37.289  13.211  21.192  0.00  0.00     0.028 H 
ATOM     97  H25 non d ame     -38.775  14.020  20.643  0.00  0.00     0.028 H 
ATOM     98  H26 non d ame     -37.272  14.954  20.836  0.00  0.00     0.028 H 
ENDBRANCH  93  95
BRANCH  93  99
ATOM     99  C19 non d ame     -39.767  14.547  22.881  0.00  0.00    -0.073 C 
ATOM    100  H27 non d ame     -40.257  14.066  22.034  0.00  0.00     0.028 H 
ATOM    101  H28 non d ame     -40.070  14.054  23.804  0.00  0.00     0.028 H 
ATOM    102  H29 non d ame     -40.055  15.597  22.920  0.00  0.00     0.028 H 
ENDBRANCH  93  99
ENDBRANCH  90  93
ENDBRANCH   1  90
TORSDOF 26
ENDMDL
MODEL 8
REMARK VINA RESULT:      -7.1      2.198      5.202
REMARK  26 active torsions:
REMARK  status: ('A' for Active; 'I' for Inactive)
REMARK    1  A    between atoms: C2_2  and  C3_3 
REMARK    2  A    between atoms: C4_6  and  C5_7 
REMARK       I    between atoms: C5_7  and  N2_9 
REMARK    3  A    between atoms: N2_9  and  C6_10 
REMARK    4  A    between atoms: C6_10  and  C7_11 
REMARK    5  A    between atoms: C6_10  and  C8_13 
REMARK       I    between atoms: C7_11  and  N3_14 
REMARK    6  A    between atoms: N3_14  and  C9_15 
REMARK    7  A    between atoms: C9_15  and  C10_16 
REMARK    8  A    between atoms: C9_15  and  C11_18 
REMARK       I    between atoms: C10_16  and  N4_21 
REMARK    9  A    between atoms: C11_18  and  C12_19 
REMARK   10  A    between atoms: C11_18  and  C13_20 
REMARK   11  A    between atoms: N4_21  and  C14_22 
REMARK   12  A    between atoms: C14_22  and  C15_23 
REMARK   13  A    between atoms: C14_22  and  C16_25 
REMARK       I    between atoms: C15_23  and  N6_40 
REMARK   14  A    between atoms: C16_25  and  C17_26 
REMARK   15  A    between atoms: C17_26  and  C18_27 
REMARK   16  A    between atoms: C17_26  and  C19_28 
REMARK   17  A    between atoms: C20_29  and  C21_30 
REMARK   18  A    between atoms: C20_29  and  C24_33 
REMARK   19  A    between atoms: C20_29  and  N6_40 
REMARK   20  A    between atoms: C21_30  and  C22_31 
REMARK   21  A    between atoms: C22_31  and  C23_32 
REMARK   22  A    between atoms: C23_32  and  O8_43 
REMARK   23  A    between atoms: C24_33  and  C25_34 
REMARK   24  A    between atoms: C28_38  and  O6_39 
REMARK   25  A    between atoms: C29_42  and  O8_43 
REMARK   26  A    between atoms: C29_42  and  C35_49 
ROOT
ATOM      1  C14 non d ame     -33.009  10.120  26.412  0.00  0.00     0.089 C 
ATOM      2  H20 non d ame     -33.851  10.435  25.797  0.00  0.00     0.087 H 
ENDROOT
BRANCH   1   3
ATOM      3  N4  non d ame     -32.296   9.083  25.681  0.00  0.00    -0.346 N 
ATOM      4  C10 non d ame     -33.038   8.166  24.742  0.00  0.00     0.241 C 
ATOM      5  O4  non d ame     -34.210   8.279  24.594  0.00  0.00    -0.271 OA
ATOM      6  H19 non d ame     -31.299   9.002  25.822  0.00  0.00     0.163 HD
BRANCH   4   7
ATOM      7  C9  non d ame     -32.283   7.102  23.988  0.00  0.00     0.092 C 
ATOM      8  H11 non d ame     -32.814   6.872  23.064  0.00  0.00     0.088 H 
BRANCH   7   9
ATOM      9  N3  non d ame     -30.962   7.614  23.613  0.00  0.00    -0.346 N 
ATOM     10  C7  non d ame     -30.708   8.025  22.254  0.00  0.00     0.240 C 
ATOM     11  O3  non d ame     -31.555   7.951  21.450  0.00  0.00    -0.271 OA
ATOM     12  H10 non d ame     -30.220   7.682  24.295  0.00  0.00     0.163 HD
BRANCH  10  13
ATOM     13  C6  non d ame     -29.298   8.566  21.860  0.00  0.00     0.086 C 
ATOM     14  H6  non d ame     -28.937   8.153  20.918  0.00  0.00     0.086 H 
BRANCH  13  15
ATOM     15  N2  non d ame     -29.379  10.006  21.679  0.00  0.00    -0.343 N 
ATOM     16  C5  non d ame     -29.879  10.843  22.772  0.00  0.00     0.273 C 
ATOM     17  O2  non d ame     -30.216  10.348  23.791  0.00  0.00    -0.266 OA
ATOM     18  H5  non d ame     -29.092  10.420  20.803  0.00  0.00     0.163 HD
BRANCH  16  19
ATOM     19  C4  non d ame     -29.968  12.367  22.595  0.00  0.00     0.154 A 
ATOM     20  C1  non d ame     -30.734  13.285  23.382  0.00  0.00    -0.017 A 
ATOM     21  C2  non d ame     -30.474  14.553  22.816  0.00  0.00     0.077 A 
ATOM     22  H1  non d ame     -31.379  13.065  24.233  0.00  0.00     0.091 H 
ATOM     23  O1  non d ame     -29.653  14.373  21.823  0.00  0.00    -0.218 OA
ATOM     24  N1  non d ame     -29.344  13.106  21.674  0.00  0.00    -0.123 NA
BRANCH  21  25
ATOM     25  C3  non d ame     -31.048  15.884  23.284  0.00  0.00    -0.029 C 
ATOM     26  H2  non d ame     -32.014  15.716  23.760  0.00  0.00     0.036 H 
ATOM     27  H3  non d ame     -30.366  16.342  23.999  0.00  0.00     0.036 H 
ATOM     28  H4  non d ame     -31.175  16.546  22.428  0.00  0.00     0.036 H 
ENDBRANCH  21  25
ENDBRANCH  16  19
ENDBRANCH  13  15
BRANCH  13  29
ATOM     29  C8  non d ame     -28.308   8.237  22.948  0.00  0.00    -0.049 C 
ATOM     30  H7  non d ame     -28.563   7.274  23.391  0.00  0.00     0.030 H 
ATOM     31  H8  non d ame     -27.306   8.187  22.524  0.00  0.00     0.030 H 
ATOM     32  H9  non d ame     -28.341   9.011  23.715  0.00  0.00     0.030 H 
ENDBRANCH  13  29
ENDBRANCH  10  13
ENDBRANCH   7   9
BRANCH   7  33
ATOM     33  C11 non d ame     -32.113   5.847  24.894  0.00  0.00    -0.033 C 
ATOM     34  H12 non d ame     -31.149   5.398  24.654  0.00  0.00     0.042 H 
BRANCH  33  35
ATOM     35  C12 non d ame     -32.086   6.236  26.405  0.00  0.00    -0.071 C 
ATOM     36  H13 non d ame     -31.987   7.317  26.500  0.00  0.00     0.028 H 
ATOM     37  H14 non d ame     -33.012   5.913  26.879  0.00  0.00     0.028 H 
ATOM     38  H15 non d ame     -31.240   5.750  26.890  0.00  0.00     0.028 H 
ENDBRANCH  33  35
BRANCH  33  39
ATOM     39  C13 non d ame     -33.225   4.790  24.600  0.00  0.00    -0.071 C 
ATOM     40  H16 non d ame     -33.234   4.042  25.393  0.00  0.00     0.028 H 
ATOM     41  H17 non d ame     -34.196   5.287  24.558  0.00  0.00     0.028 H 
ATOM     42  H18 non d ame     -33.024   4.306  23.645  0.00  0.00     0.028 H 
ENDBRANCH  33  39
ENDBRANCH   7  33
ENDBRANCH   4   7
ENDBRANCH   1   3
BRANCH   1  43
ATOM     43  C15 non d ame     -32.023  11.288  26.703  0.00  0.00     0.240 C 
ATOM     44  O5  non d ame     -30.875  11.178  26.416  0.00  0.00    -0.271 OA
ATOM     45  N6  non d ame     -32.513  12.548  27.332  0.00  0.00    -0.355 N 
ATOM     46  H46 non d ame     -33.487  12.655  27.575  0.00  0.00     0.162 HD
BRANCH  45  47
ATOM     47  C20 non d ame     -31.564  13.649  27.600  0.00  0.00     0.013 C 
ATOM     48  H30 non d ame     -30.582  13.341  27.241  0.00  0.00     0.072 H 
BRANCH  47  49
ATOM     49  C21 non d ame     -31.511  13.912  29.088  0.00  0.00    -0.038 C 
ATOM     50  H31 non d ame     -30.521  13.589  29.410  0.00  0.00     0.036 H 
ATOM     51  H32 non d ame     -31.814  14.952  29.214  0.00  0.00     0.036 H 
BRANCH  49  52
ATOM     52  C22 non d ame     -32.527  13.062  29.883  0.00  0.00     0.018 C 
ATOM     53  H33 non d ame     -32.931  13.724  30.648  0.00  0.00     0.048 H 
ATOM     54  H34 non d ame     -33.190  12.621  29.138  0.00  0.00     0.048 H 
BRANCH  52  55
ATOM     55  C23 non d ame     -31.884  11.869  30.644  0.00  0.00     0.259 C 
ATOM     56  O7  non d ame     -30.716  11.850  30.861  0.00  0.00    -0.265 OA
BRANCH  55  57
ATOM     57  O8  non d ame     -32.708  10.790  31.071  0.00  0.00    -0.317 OA
BRANCH  57  58
ATOM     58  C29 non d ame     -33.967  11.198  31.614  0.00  0.00     0.052 C 
ATOM     59  H47 non d ame     -33.785  11.384  32.673  0.00  0.00     0.082 H 
ATOM     60  H48 non d ame     -34.318  12.005  30.972  0.00  0.00     0.082 H 
BRANCH  58  61
ATOM     61  C35 non d ame     -34.952  10.006  31.486  0.00  0.00    -0.034 A 
ATOM     62  C30 non d ame     -34.466   8.703  31.431  0.00  0.00    -0.075 A 
ATOM     63  C31 non d ame     -35.351   7.632  31.316  0.00  0.00    -0.082 A 
ATOM     64  H49 non d ame     -33.392   8.522  31.477  0.00  0.00     0.084 H 
ATOM     65  C32 non d ame     -36.727   7.867  31.254  0.00  0.00    -0.083 A 
ATOM     66  H50 non d ame     -34.967   6.612  31.274  0.00  0.00     0.083 H 
ATOM     67  C33 non d ame     -37.207   9.169  31.307  0.00  0.00    -0.082 A 
ATOM     68  H51 non d ame     -37.426   7.035  31.165  0.00  0.00     0.083 H 
ATOM     69  C34 non d ame     -36.326  10.242  31.424  0.00  0.00    -0.075 A 
ATOM     70  H52 non d ame     -38.281   9.349  31.256  0.00  0.00     0.083 H 
ATOM     71  H53 non d ame     -36.711  11.261  31.465  0.00  0.00     0.084 H 
ENDBRANCH  58  61
ENDBRANCH  57  58
ENDBRANCH  55  57
ENDBRANCH  52  55
ENDBRANCH  49  52
ENDBRANCH  47  49
BRANCH  47  72
ATOM     72  C24 non d ame     -32.022  14.914  26.875  0.00  0.00    -0.039 C 
ATOM     73  H35 non d ame     -31.106  15.445  26.614  0.00  0.00     0.036 H 
ATOM     74  H36 non d ame     -32.695  14.570  26.090  0.00  0.00     0.036 H 
BRANCH  72  75
ATOM     75  C25 non d ame     -32.868  15.875  27.837  0.00  0.00    -0.001 C 
ATOM     76  C26 non d ame     -34.458  15.457  27.790  0.00  0.00    -0.035 C 
ATOM     77  C27 non d ame     -35.193  16.565  27.537  0.00  0.00     0.085 C 
ATOM     78  H38 non d ame     -34.651  14.820  26.927  0.00  0.00     0.036 H 
ATOM     79  H39 non d ame     -34.793  15.149  28.780  0.00  0.00     0.036 H 
ATOM     80  N5  non d ame     -34.233  17.638  27.084  0.00  0.00    -0.049 N 
ATOM     81  H40 non d ame     -35.846  16.298  26.705  0.00  0.00     0.075 H 
ATOM     82  H41 non d ame     -35.623  16.855  28.495  0.00  0.00     0.075 H 
ATOM     83  C28 non d ame     -32.759  17.110  27.477  0.00  0.00     0.193 C 
ATOM     84  H42 non d ame     -34.302  17.678  26.077  0.00  0.00     0.280 HD
ATOM     85  H43 non d ame     -34.439  18.458  27.637  0.00  0.00     0.280 HD
ATOM     86  H44 non d ame     -32.235  17.523  28.339  0.00  0.00     0.129 H 
ATOM     87  H37 non d ame     -32.412  15.979  28.822  0.00  0.00     0.046 H 
BRANCH  83  88
ATOM     88  O6  non d ame     -31.866  17.273  26.374  0.00  0.00    -0.369 OA
ATOM     89  H45 non d ame     -32.360  17.563  25.603  0.00  0.00     0.212 HD
ENDBRANCH  83  88
ENDBRANCH  72  75
ENDBRANCH  47  72
ENDBRANCH  45  47
ENDBRANCH   1  43
BRANCH   1  90
ATOM     90  C16 non d ame     -33.517   9.541  27.723  0.00  0.00    -0.035 C 
ATOM     91  H21 non d ame     -33.252   8.485  27.694  0.00  0.00     0.037 H 
ATOM     92  H22 non d ame     -33.106  10.185  28.501  0.00  0.00     0.037 H 
BRANCH  90  93
ATOM     93  C17 non d ame     -35.070   9.602  27.874  0.00  0.00    -0.059 C 
ATOM     94  H23 non d ame     -35.291   9.917  28.894  0.00  0.00     0.038 H 
BRANCH  93  95
ATOM     95  C18 non d ame     -35.717  10.640  26.903  0.00  0.00    -0.073 C 
ATOM     96  H24 non d ame     -35.838  11.593  27.418  0.00  0.00     0.028 H 
ATOM     97  H25 non d ame     -35.073  10.777  26.035  0.00  0.00     0.028 H 
ATOM     98  H26 non d ame     -36.691  10.277  26.578  0.00  0.00     0.028 H 
ENDBRANCH  93  95
BRANCH  93  99
ATOM     99  C19 non d ame     -35.693   8.216  27.683  0.00  0.00    -0.073 C 
ATOM    100  H27 non d ame     -36.585   8.129  28.302  0.00  0.00     0.028 H 
ATOM    101  H28 non d ame     -35.963   8.080  26.635  0.00  0.00     0.028 H 
ATOM    102  H29 non d ame     -34.973   7.451  27.973  0.00  0.00     0.028 H 
ENDBRANCH  93  99
ENDBRANCH  90  93
ENDBRANCH   1  90
TORSDOF 26
ENDMDL
MODEL 9
REMARK VINA RESULT:      -7.1      3.045      9.261
REMARK  26 active torsions:
REMARK  status: ('A' for Active; 'I' for Inactive)
REMARK    1  A    between atoms: C2_2  and  C3_3 
REMARK    2  A    between atoms: C4_6  and  C5_7 
REMARK       I    between atoms: C5_7  and  N2_9 
REMARK    3  A    between atoms: N2_9  and  C6_10 
REMARK    4  A    between atoms: C6_10  and  C7_11 
REMARK    5  A    between atoms: C6_10  and  C8_13 
REMARK       I    between atoms: C7_11  and  N3_14 
REMARK    6  A    between atoms: N3_14  and  C9_15 
REMARK    7  A    between atoms: C9_15  and  C10_16 
REMARK    8  A    between atoms: C9_15  and  C11_18 
REMARK       I    between atoms: C10_16  and  N4_21 
REMARK    9  A    between atoms: C11_18  and  C12_19 
REMARK   10  A    between atoms: C11_18  and  C13_20 
REMARK   11  A    between atoms: N4_21  and  C14_22 
REMARK   12  A    between atoms: C14_22  and  C15_23 
REMARK   13  A    between atoms: C14_22  and  C16_25 
REMARK       I    between atoms: C15_23  and  N6_40 
REMARK   14  A    between atoms: C16_25  and  C17_26 
REMARK   15  A    between atoms: C17_26  and  C18_27 
REMARK   16  A    between atoms: C17_26  and  C19_28 
REMARK   17  A    between atoms: C20_29  and  C21_30 
REMARK   18  A    between atoms: C20_29  and  C24_33 
REMARK   19  A    between atoms: C20_29  and  N6_40 
REMARK   20  A    between atoms: C21_30  and  C22_31 
REMARK   21  A    between atoms: C22_31  and  C23_32 
REMARK   22  A    between atoms: C23_32  and  O8_43 
REMARK   23  A    between atoms: C24_33  and  C25_34 
REMARK   24  A    between atoms: C28_38  and  O6_39 
REMARK   25  A    between atoms: C29_42  and  O8_43 
REMARK   26  A    between atoms: C29_42  and  C35_49 
ROOT
ATOM      1  C14 non d ame     -34.095   6.633  27.421  0.00  0.00     0.089 C 
ATOM      2  H20 non d ame     -33.725   6.187  28.345  0.00  0.00     0.087 H 
ENDROOT
BRANCH   1   3
ATOM      3  N4  non d ame     -34.428   8.021  27.707  0.00  0.00    -0.346 N 
ATOM      4  C10 non d ame     -34.750   8.452  29.116  0.00  0.00     0.241 C 
ATOM      5  O4  non d ame     -34.737   7.664  30.003  0.00  0.00    -0.271 OA
ATOM      6  H19 non d ame     -34.436   8.676  26.938  0.00  0.00     0.163 HD
BRANCH   4   7
ATOM      7  C9  non d ame     -35.087   9.893  29.394  0.00  0.00     0.092 C 
ATOM      8  H11 non d ame     -35.329  10.007  30.451  0.00  0.00     0.088 H 
BRANCH   7   9
ATOM      9  N3  non d ame     -33.914  10.731  29.125  0.00  0.00    -0.346 N 
ATOM     10  C7  non d ame     -33.023  11.089  30.201  0.00  0.00     0.240 C 
ATOM     11  O3  non d ame     -33.235  10.713  31.289  0.00  0.00    -0.271 OA
ATOM     12  H10 non d ame     -33.719  11.064  28.192  0.00  0.00     0.163 HD
BRANCH  10  13
ATOM     13  C6  non d ame     -31.778  11.983  29.909  0.00  0.00     0.086 C 
ATOM     14  H6  non d ame     -31.308  11.752  28.954  0.00  0.00     0.086 H 
BRANCH  13  15
ATOM     15  N2  non d ame     -32.200  13.372  29.841  0.00  0.00    -0.343 N 
ATOM     16  C5  non d ame     -31.462  14.309  28.991  0.00  0.00     0.273 C 
ATOM     17  O2  non d ame     -30.529  13.937  28.370  0.00  0.00    -0.266 OA
ATOM     18  H5  non d ame     -32.998  13.682  30.377  0.00  0.00     0.163 HD
BRANCH  16  19
ATOM     19  C4  non d ame     -31.899  15.780  28.907  0.00  0.00     0.154 A 
ATOM     20  C1  non d ame     -32.679  16.393  27.876  0.00  0.00    -0.017 A 
ATOM     21  C2  non d ame     -32.801  17.745  28.267  0.00  0.00     0.077 A 
ATOM     22  H1  non d ame     -33.094  15.928  26.981  0.00  0.00     0.091 H 
ATOM     23  O1  non d ame     -32.163  17.881  29.393  0.00  0.00    -0.218 OA
ATOM     24  N1  non d ame     -31.628  16.749  29.787  0.00  0.00    -0.123 NA
BRANCH  21  25
ATOM     25  C3  non d ame     -33.542  18.839  27.511  0.00  0.00    -0.029 C 
ATOM     26  H2  non d ame     -34.262  19.317  28.175  0.00  0.00     0.036 H 
ATOM     27  H3  non d ame     -32.828  19.582  27.155  0.00  0.00     0.036 H 
ATOM     28  H4  non d ame     -34.066  18.403  26.660  0.00  0.00     0.036 H 
ENDBRANCH  21  25
ENDBRANCH  16  19
ENDBRANCH  13  15
BRANCH  13  29
ATOM     29  C8  non d ame     -30.760  11.807  31.008  0.00  0.00    -0.049 C 
ATOM     30  H7  non d ame     -29.847  12.342  30.747  0.00  0.00     0.030 H 
ATOM     31  H8  non d ame     -31.160  12.204  31.940  0.00  0.00     0.030 H 
ATOM     32  H9  non d ame     -30.537  10.746  31.130  0.00  0.00     0.030 H 
ENDBRANCH  13  29
ENDBRANCH  10  13
ENDBRANCH   7   9
BRANCH   7  33
ATOM     33  C11 non d ame     -36.261  10.339  28.474  0.00  0.00    -0.033 C 
ATOM     34  H12 non d ame     -36.522   9.491  27.841  0.00  0.00     0.042 H 
BRANCH  33  35
ATOM     35  C12 non d ame     -37.527  10.710  29.307  0.00  0.00    -0.071 C 
ATOM     36  H13 non d ame     -38.397  10.746  28.650  0.00  0.00     0.028 H 
ATOM     37  H14 non d ame     -37.687   9.959  30.080  0.00  0.00     0.028 H 
ATOM     38  H15 non d ame     -37.383  11.685  29.772  0.00  0.00     0.028 H 
ENDBRANCH  33  35
BRANCH  33  39
ATOM     39  C13 non d ame     -35.827  11.519  27.546  0.00  0.00    -0.071 C 
ATOM     40  H16 non d ame     -35.213  12.219  28.112  0.00  0.00     0.028 H 
ATOM     41  H17 non d ame     -35.253  11.128  26.706  0.00  0.00     0.028 H 
ATOM     42  H18 non d ame     -36.714  12.031  27.172  0.00  0.00     0.028 H 
ENDBRANCH  33  39
ENDBRANCH   7  33
ENDBRANCH   4   7
ENDBRANCH   1   3
BRANCH   1  43
ATOM     43  C15 non d ame     -33.031   6.603  26.287  0.00  0.00     0.240 C 
ATOM     44  O5  non d ame     -32.176   5.777  26.300  0.00  0.00    -0.271 OA
ATOM     45  N6  non d ame     -33.083   7.599  25.179  0.00  0.00    -0.355 N 
ATOM     46  H46 non d ame     -33.807   8.302  25.154  0.00  0.00     0.162 HD
BRANCH  45  47
ATOM     47  C20 non d ame     -32.065   7.556  24.107  0.00  0.00     0.013 C 
ATOM     48  H30 non d ame     -31.180   7.058  24.504  0.00  0.00     0.072 H 
BRANCH  47  49
ATOM     49  C21 non d ame     -31.719   8.967  23.689  0.00  0.00    -0.038 C 
ATOM     50  H31 non d ame     -30.679   9.114  23.978  0.00  0.00     0.036 H 
ATOM     51  H32 non d ame     -32.010   9.042  22.641  0.00  0.00     0.036 H 
BRANCH  49  52
ATOM     52  C22 non d ame     -32.538  10.034  24.447  0.00  0.00     0.018 C 
ATOM     53  H33 non d ame     -32.614  10.884  23.770  0.00  0.00     0.048 H 
ATOM     54  H34 non d ame     -33.441   9.526  24.788  0.00  0.00     0.048 H 
BRANCH  52  55
ATOM     55  C23 non d ame     -31.838  10.568  25.727  0.00  0.00     0.259 C 
ATOM     56  O7  non d ame     -32.051  10.069  26.784  0.00  0.00    -0.265 OA
BRANCH  55  57
ATOM     57  O8  non d ame     -30.946  11.672  25.625  0.00  0.00    -0.317 OA
BRANCH  57  58
ATOM     58  C29 non d ame     -31.575  12.892  25.223  0.00  0.00     0.052 C 
ATOM     59  H47 non d ame     -32.562  12.610  24.858  0.00  0.00     0.082 H 
ATOM     60  H48 non d ame     -31.481  13.566  26.074  0.00  0.00     0.082 H 
BRANCH  58  61
ATOM     61  C35 non d ame     -30.763  13.482  24.039  0.00  0.00    -0.034 A 
ATOM     62  C30 non d ame     -30.588  14.858  23.931  0.00  0.00    -0.075 A 
ATOM     63  C31 non d ame     -29.859  15.387  22.867  0.00  0.00    -0.082 A 
ATOM     64  H49 non d ame     -31.021  15.521  24.680  0.00  0.00     0.084 H 
ATOM     65  C32 non d ame     -29.307  14.535  21.907  0.00  0.00    -0.083 A 
ATOM     66  H50 non d ame     -29.722  16.466  22.786  0.00  0.00     0.083 H 
ATOM     67  C33 non d ame     -29.487  13.163  22.017  0.00  0.00    -0.082 A 
ATOM     68  H51 non d ame     -28.735  14.941  21.072  0.00  0.00     0.083 H 
ATOM     69  C34 non d ame     -30.213  12.630  23.080  0.00  0.00    -0.075 A 
ATOM     70  H52 non d ame     -29.057  12.501  21.265  0.00  0.00     0.083 H 
ATOM     71  H53 non d ame     -30.350  11.551  23.160  0.00  0.00     0.084 H 
ENDBRANCH  58  61
ENDBRANCH  57  58
ENDBRANCH  55  57
ENDBRANCH  52  55
ENDBRANCH  49  52
ENDBRANCH  47  49
BRANCH  47  72
ATOM     72  C24 non d ame     -32.612   6.787  22.906  0.00  0.00    -0.039 C 
ATOM     73  H35 non d ame     -31.840   6.059  22.651  0.00  0.00     0.036 H 
ATOM     74  H36 non d ame     -33.603   6.448  23.205  0.00  0.00     0.036 H 
BRANCH  72  75
ATOM     75  C25 non d ame     -32.803   7.738  21.631  0.00  0.00    -0.001 C 
ATOM     76  C26 non d ame     -34.383   8.171  21.487  0.00  0.00    -0.035 C 
ATOM     77  C27 non d ame     -34.793   7.912  20.222  0.00  0.00     0.085 C 
ATOM     78  H38 non d ame     -35.006   7.516  22.095  0.00  0.00     0.036 H 
ATOM     79  H39 non d ame     -34.484   9.253  21.571  0.00  0.00     0.036 H 
ATOM     80  N5  non d ame     -33.736   7.042  19.585  0.00  0.00    -0.049 N 
ATOM     81  H40 non d ame     -35.712   7.336  20.326  0.00  0.00     0.075 H 
ATOM     82  H41 non d ame     -34.809   8.878  19.718  0.00  0.00     0.075 H 
ATOM     83  C28 non d ame     -32.441   7.141  20.544  0.00  0.00     0.193 C 
ATOM     84  H42 non d ame     -34.088   6.096  19.615  0.00  0.00     0.280 HD
ATOM     85  H43 non d ame     -33.512   7.470  18.697  0.00  0.00     0.280 HD
ATOM     86  H44 non d ame     -31.585   7.753  20.258  0.00  0.00     0.129 H 
ATOM     87  H37 non d ame     -32.064   8.539  21.599  0.00  0.00     0.046 H 
BRANCH  83  88
ATOM     88  O6  non d ame     -31.913   5.838  20.795  0.00  0.00    -0.369 OA
ATOM     89  H45 non d ame     -31.080   5.735  20.328  0.00  0.00     0.212 HD
ENDBRANCH  83  88
ENDBRANCH  72  75
ENDBRANCH  47  72
ENDBRANCH  45  47
ENDBRANCH   1  43
BRANCH   1  90
ATOM     90  C16 non d ame     -35.349   5.906  26.965  0.00  0.00    -0.035 C 
ATOM     91  H21 non d ame     -36.119   6.674  26.894  0.00  0.00     0.037 H 
ATOM     92  H22 non d ame     -35.053   5.348  26.077  0.00  0.00     0.037 H 
BRANCH  90  93
ATOM     93  C17 non d ame     -35.872   4.853  27.994  0.00  0.00    -0.059 C 
ATOM     94  H23 non d ame     -35.071   4.662  28.708  0.00  0.00     0.038 H 
BRANCH  93  95
ATOM     95  C18 non d ame     -37.109   5.373  28.794  0.00  0.00    -0.073 C 
ATOM     96  H24 non d ame     -37.509   6.262  28.306  0.00  0.00     0.028 H 
ATOM     97  H25 non d ame     -37.875   4.600  28.822  0.00  0.00     0.028 H 
ATOM     98  H26 non d ame     -36.805   5.622  29.810  0.00  0.00     0.028 H 
ENDBRANCH  93  95
BRANCH  93  99
ATOM     99  C19 non d ame     -36.190   3.524  27.302  0.00  0.00    -0.073 C 
ATOM    100  H27 non d ame     -36.136   3.655  26.221  0.00  0.00     0.028 H 
ATOM    101  H28 non d ame     -35.468   2.770  27.613  0.00  0.00     0.028 H 
ATOM    102  H29 non d ame     -37.194   3.202  27.580  0.00  0.00     0.028 H 
ENDBRANCH  93  99
ENDBRANCH  90  93
ENDBRANCH   1  90
TORSDOF 26
ENDMDL
MODEL 10
REMARK VINA RESULT:      -7.1      1.887      5.780
REMARK  26 active torsions:
REMARK  status: ('A' for Active; 'I' for Inactive)
REMARK    1  A    between atoms: C2_2  and  C3_3 
REMARK    2  A    between atoms: C4_6  and  C5_7 
REMARK       I    between atoms: C5_7  and  N2_9 
REMARK    3  A    between atoms: N2_9  and  C6_10 
REMARK    4  A    between atoms: C6_10  and  C7_11 
REMARK    5  A    between atoms: C6_10  and  C8_13 
REMARK       I    between atoms: C7_11  and  N3_14 
REMARK    6  A    between atoms: N3_14  and  C9_15 
REMARK    7  A    between atoms: C9_15  and  C10_16 
REMARK    8  A    between atoms: C9_15  and  C11_18 
REMARK       I    between atoms: C10_16  and  N4_21 
REMARK    9  A    between atoms: C11_18  and  C12_19 
REMARK   10  A    between atoms: C11_18  and  C13_20 
REMARK   11  A    between atoms: N4_21  and  C14_22 
REMARK   12  A    between atoms: C14_22  and  C15_23 
REMARK   13  A    between atoms: C14_22  and  C16_25 
REMARK       I    between atoms: C15_23  and  N6_40 
REMARK   14  A    between atoms: C16_25  and  C17_26 
REMARK   15  A    between atoms: C17_26  and  C18_27 
REMARK   16  A    between atoms: C17_26  and  C19_28 
REMARK   17  A    between atoms: C20_29  and  C21_30 
REMARK   18  A    between atoms: C20_29  and  C24_33 
REMARK   19  A    between atoms: C20_29  and  N6_40 
REMARK   20  A    between atoms: C21_30  and  C22_31 
REMARK   21  A    between atoms: C22_31  and  C23_32 
REMARK   22  A    between atoms: C23_32  and  O8_43 
REMARK   23  A    between atoms: C24_33  and  C25_34 
REMARK   24  A    between atoms: C28_38  and  O6_39 
REMARK   25  A    between atoms: C29_42  and  O8_43 
REMARK   26  A    between atoms: C29_42  and  C35_49 
ROOT
ATOM      1  C14 non d ame     -30.953  13.681  24.609  0.00  0.00     0.089 C 
ATOM      2  H20 non d ame     -29.967  13.503  25.037  0.00  0.00     0.087 H 
ENDROOT
BRANCH   1   3
ATOM      3  N4  non d ame     -31.409  12.430  24.022  0.00  0.00    -0.346 N 
ATOM      4  C10 non d ame     -31.323  11.145  24.806  0.00  0.00     0.241 C 
ATOM      5  O4  non d ame     -30.881  11.142  25.908  0.00  0.00    -0.271 OA
ATOM      6  H19 non d ame     -31.779  12.453  23.082  0.00  0.00     0.163 HD
BRANCH   4   7
ATOM      7  C9  non d ame     -31.804   9.860  24.185  0.00  0.00     0.092 C 
ATOM      8  H11 non d ame     -31.586   9.032  24.859  0.00  0.00     0.088 H 
BRANCH   7   9
ATOM      9  N3  non d ame     -33.260   9.911  24.020  0.00  0.00    -0.346 N 
ATOM     10  C7  non d ame     -34.121   9.387  25.051  0.00  0.00     0.240 C 
ATOM     11  O3  non d ame     -33.660   8.919  26.019  0.00  0.00    -0.271 OA
ATOM     12  H10 non d ame     -33.673  10.311  23.189  0.00  0.00     0.163 HD
BRANCH  10  13
ATOM     13  C6  non d ame     -35.670   9.442  24.868  0.00  0.00     0.086 C 
ATOM     14  H6  non d ame     -36.203   8.853  25.614  0.00  0.00     0.086 H 
BRANCH  13  15
ATOM     15  N2  non d ame     -36.115  10.816  25.027  0.00  0.00    -0.343 N 
ATOM     16  C5  non d ame     -36.621  11.265  26.325  0.00  0.00     0.273 C 
ATOM     17  O2  non d ame     -36.670  10.512  27.235  0.00  0.00    -0.266 OA
ATOM     18  H5  non d ame     -36.072  11.452  24.243  0.00  0.00     0.163 HD
BRANCH  16  19
ATOM     19  C4  non d ame     -37.094  12.716  26.508  0.00  0.00     0.154 A 
ATOM     20  C1  non d ame     -36.317  13.906  26.338  0.00  0.00    -0.017 A 
ATOM     21  C2  non d ame     -37.208  14.965  26.621  0.00  0.00     0.077 A 
ATOM     22  H1  non d ame     -35.268  13.988  26.053  0.00  0.00     0.091 H 
ATOM     23  O1  non d ame     -38.359  14.434  26.916  0.00  0.00    -0.218 OA
ATOM     24  N1  non d ame     -38.317  13.123  26.858  0.00  0.00    -0.123 NA
BRANCH  21  25
ATOM     25  C3  non d ame     -36.882  16.452  26.586  0.00  0.00    -0.029 C 
ATOM     26  H2  non d ame     -37.002  16.874  27.583  0.00  0.00     0.036 H 
ATOM     27  H3  non d ame     -35.853  16.589  26.255  0.00  0.00     0.036 H 
ATOM     28  H4  non d ame     -37.556  16.956  25.894  0.00  0.00     0.036 H 
ENDBRANCH  21  25
ENDBRANCH  16  19
ENDBRANCH  13  15
BRANCH  13  29
ATOM     29  C8  non d ame     -36.034   8.936  23.495  0.00  0.00    -0.049 C 
ATOM     30  H7  non d ame     -35.510   8.000  23.302  0.00  0.00     0.030 H 
ATOM     31  H8  non d ame     -37.110   8.767  23.445  0.00  0.00     0.030 H 
ATOM     32  H9  non d ame     -35.746   9.675  22.747  0.00  0.00     0.030 H 
ENDBRANCH  13  29
ENDBRANCH  10  13
ENDBRANCH   7   9
BRANCH   7  33
ATOM     33  C11 non d ame     -31.133   9.674  22.793  0.00  0.00    -0.033 C 
ATOM     34  H12 non d ame     -31.338  10.570  22.207  0.00  0.00     0.042 H 
BRANCH  33  35
ATOM     35  C12 non d ame     -29.583   9.542  22.921  0.00  0.00    -0.071 C 
ATOM     36  H13 non d ame     -29.339   8.602  23.417  0.00  0.00     0.028 H 
ATOM     37  H14 non d ame     -29.134   9.558  21.929  0.00  0.00     0.028 H 
ATOM     38  H15 non d ame     -29.196  10.373  23.510  0.00  0.00     0.028 H 
ENDBRANCH  33  35
BRANCH  33  39
ATOM     39  C13 non d ame     -31.744   8.451  22.036  0.00  0.00    -0.071 C 
ATOM     40  H16 non d ame     -31.069   7.599  22.117  0.00  0.00     0.028 H 
ATOM     41  H17 non d ame     -32.708   8.195  22.477  0.00  0.00     0.028 H 
ATOM     42  H18 non d ame     -31.884   8.706  20.985  0.00  0.00     0.028 H 
ENDBRANCH  33  39
ENDBRANCH   7  33
ENDBRANCH   4   7
ENDBRANCH   1   3
BRANCH   1  43
ATOM     43  C15 non d ame     -31.987  14.130  25.681  0.00  0.00     0.240 C 
ATOM     44  O5  non d ame     -33.100  14.391  25.357  0.00  0.00    -0.271 OA
ATOM     45  N6  non d ame     -31.591  14.226  27.115  0.00  0.00    -0.355 N 
ATOM     46  H46 non d ame     -30.649  14.002  27.404  0.00  0.00     0.162 HD
BRANCH  45  47
ATOM     47  C20 non d ame     -32.585  14.653  28.123  0.00  0.00     0.013 C 
ATOM     48  H30 non d ame     -33.578  14.487  27.706  0.00  0.00     0.072 H 
BRANCH  47  49
ATOM     49  C21 non d ame     -32.391  16.121  28.426  0.00  0.00    -0.038 C 
ATOM     50  H31 non d ame     -32.625  16.237  29.484  0.00  0.00     0.036 H 
ATOM     51  H32 non d ame     -31.395  16.368  28.057  0.00  0.00     0.036 H 
BRANCH  49  52
ATOM     52  C22 non d ame     -33.378  17.027  27.658  0.00  0.00     0.018 C 
ATOM     53  H33 non d ame     -34.074  16.352  27.162  0.00  0.00     0.048 H 
ATOM     54  H34 non d ame     -33.746  17.749  28.389  0.00  0.00     0.048 H 
BRANCH  52  55
ATOM     55  C23 non d ame     -32.713  17.862  26.529  0.00  0.00     0.259 C 
ATOM     56  O7  non d ame     -31.863  17.387  25.848  0.00  0.00    -0.265 OA
BRANCH  55  57
ATOM     57  O8  non d ame     -33.123  19.209  26.325  0.00  0.00    -0.317 OA
BRANCH  57  58
ATOM     58  C29 non d ame     -34.042  19.693  27.309  0.00  0.00     0.052 C 
ATOM     59  H47 non d ame     -34.240  18.849  27.968  0.00  0.00     0.082 H 
ATOM     60  H48 non d ame     -33.594  20.603  27.708  0.00  0.00     0.082 H 
BRANCH  58  61
ATOM     61  C35 non d ame     -35.361  20.073  26.585  0.00  0.00    -0.034 A 
ATOM     62  C30 non d ame     -35.593  19.637  25.284  0.00  0.00    -0.075 A 
ATOM     63  C31 non d ame     -36.778  19.978  24.634  0.00  0.00    -0.082 A 
ATOM     64  H49 non d ame     -34.846  19.029  24.774  0.00  0.00     0.084 H 
ATOM     65  C32 non d ame     -37.733  20.760  25.289  0.00  0.00    -0.083 A 
ATOM     66  H50 non d ame     -36.957  19.634  23.615  0.00  0.00     0.083 H 
ATOM     67  C33 non d ame     -37.496  21.195  26.586  0.00  0.00    -0.082 A 
ATOM     68  H51 non d ame     -38.663  21.031  24.788  0.00  0.00     0.083 H 
ATOM     69  C34 non d ame     -36.314  20.855  27.240  0.00  0.00    -0.075 A 
ATOM     70  H52 non d ame     -38.243  21.807  27.093  0.00  0.00     0.083 H 
ATOM     71  H53 non d ame     -36.136  21.200  28.259  0.00  0.00     0.084 H 
ENDBRANCH  58  61
ENDBRANCH  57  58
ENDBRANCH  55  57
ENDBRANCH  52  55
ENDBRANCH  49  52
ENDBRANCH  47  49
BRANCH  47  72
ATOM     72  C24 non d ame     -32.405  13.840  29.403  0.00  0.00    -0.039 C 
ATOM     73  H35 non d ame     -31.524  14.258  29.891  0.00  0.00     0.036 H 
ATOM     74  H36 non d ame     -33.372  13.871  29.905  0.00  0.00     0.036 H 
BRANCH  72  75
ATOM     75  C25 non d ame     -32.085  12.302  29.089  0.00  0.00    -0.001 C 
ATOM     76  C26 non d ame     -33.438  11.551  28.532  0.00  0.00    -0.035 C 
ATOM     77  C27 non d ame     -33.638  10.422  29.254  0.00  0.00     0.085 C 
ATOM     78  H38 non d ame     -34.318  12.154  28.754  0.00  0.00     0.036 H 
ATOM     79  H39 non d ame     -33.271  11.181  27.521  0.00  0.00     0.036 H 
ATOM     80  N5  non d ame     -32.735  10.503  30.461  0.00  0.00    -0.049 N 
ATOM     81  H40 non d ame     -34.676  10.466  29.582  0.00  0.00     0.075 H 
ATOM     82  H41 non d ame     -33.303   9.605  28.615  0.00  0.00     0.075 H 
ATOM     83  C28 non d ame     -31.679  11.683  30.147  0.00  0.00     0.193 C 
ATOM     84  H42 non d ame     -33.317  10.791  31.235  0.00  0.00     0.280 HD
ATOM     85  H43 non d ame     -32.236   9.626  30.503  0.00  0.00     0.280 HD
ATOM     86  H44 non d ame     -30.655  11.446  29.857  0.00  0.00     0.129 H 
ATOM     87  H37 non d ame     -31.174  12.181  28.502  0.00  0.00     0.046 H 
BRANCH  83  88
ATOM     88  O6  non d ame     -31.566  12.556  31.272  0.00  0.00    -0.369 OA
ATOM     89  H45 non d ame     -30.827  13.155  31.139  0.00  0.00     0.212 HD
ENDBRANCH  83  88
ENDBRANCH  72  75
ENDBRANCH  47  72
ENDBRANCH  45  47
ENDBRANCH   1  43
BRANCH   1  90
ATOM     90  C16 non d ame     -30.859  14.735  23.517  0.00  0.00    -0.035 C 
ATOM     91  H21 non d ame     -31.848  14.770  23.063  0.00  0.00     0.037 H 
ATOM     92  H22 non d ame     -30.451  15.621  24.006  0.00  0.00     0.037 H 
BRANCH  90  93
ATOM     93  C17 non d ame     -29.862  14.365  22.373  0.00  0.00    -0.059 C 
ATOM     94  H23 non d ame     -29.804  13.278  22.324  0.00  0.00     0.038 H 
BRANCH  93  95
ATOM     95  C18 non d ame     -30.346  14.880  20.980  0.00  0.00    -0.073 C 
ATOM     96  H24 non d ame     -31.302  15.391  21.094  0.00  0.00     0.028 H 
ATOM     97  H25 non d ame     -29.611  15.573  20.573  0.00  0.00     0.028 H 
ATOM     98  H26 non d ame     -30.465  14.036  20.302  0.00  0.00     0.028 H 
ENDBRANCH  93  95
BRANCH  93  99
ATOM     99  C19 non d ame     -28.455  14.881  22.686  0.00  0.00    -0.073 C 
ATOM    100  H27 non d ame     -28.439  15.968  22.601  0.00  0.00     0.028 H 
ATOM    101  H28 non d ame     -28.178  14.592  23.699  0.00  0.00     0.028 H 
ATOM    102  H29 non d ame     -27.745  14.452  21.979  0.00  0.00     0.028 H 
ENDBRANCH  93  99
ENDBRANCH  90  93
ENDBRANCH   1  90
TORSDOF 26
ENDMDL
MODEL 11
REMARK VINA RESULT:      -7.1      2.818      5.006
REMARK  26 active torsions:
REMARK  status: ('A' for Active; 'I' for Inactive)
REMARK    1  A    between atoms: C2_2  and  C3_3 
REMARK    2  A    between atoms: C4_6  and  C5_7 
REMARK       I    between atoms: C5_7  and  N2_9 
REMARK    3  A    between atoms: N2_9  and  C6_10 
REMARK    4  A    between atoms: C6_10  and  C7_11 
REMARK    5  A    between atoms: C6_10  and  C8_13 
REMARK       I    between atoms: C7_11  and  N3_14 
REMARK    6  A    between atoms: N3_14  and  C9_15 
REMARK    7  A    between atoms: C9_15  and  C10_16 
REMARK    8  A    between atoms: C9_15  and  C11_18 
REMARK       I    between atoms: C10_16  and  N4_21 
REMARK    9  A    between atoms: C11_18  and  C12_19 
REMARK   10  A    between atoms: C11_18  and  C13_20 
REMARK   11  A    between atoms: N4_21  and  C14_22 
REMARK   12  A    between atoms: C14_22  and  C15_23 
REMARK   13  A    between atoms: C14_22  and  C16_25 
REMARK       I    between atoms: C15_23  and  N6_40 
REMARK   14  A    between atoms: C16_25  and  C17_26 
REMARK   15  A    between atoms: C17_26  and  C18_27 
REMARK   16  A    between atoms: C17_26  and  C19_28 
REMARK   17  A    between atoms: C20_29  and  C21_30 
REMARK   18  A    between atoms: C20_29  and  C24_33 
REMARK   19  A    between atoms: C20_29  and  N6_40 
REMARK   20  A    between atoms: C21_30  and  C22_31 
REMARK   21  A    between atoms: C22_31  and  C23_32 
REMARK   22  A    between atoms: C23_32  and  O8_43 
REMARK   23  A    between atoms: C24_33  and  C25_34 
REMARK   24  A    between atoms: C28_38  and  O6_39 
REMARK   25  A    between atoms: C29_42  and  O8_43 
REMARK   26  A    between atoms: C29_42  and  C35_49 
ROOT
ATOM      1  C14 non d ame     -30.990  14.025  24.401  0.00  0.00     0.089 C 
ATOM      2  H20 non d ame     -30.024  13.563  24.604  0.00  0.00     0.087 H 
ENDROOT
BRANCH   1   3
ATOM      3  N4  non d ame     -32.005  12.987  24.515  0.00  0.00    -0.346 N 
ATOM      4  C10 non d ame     -31.673  11.666  25.162  0.00  0.00     0.241 C 
ATOM      5  O4  non d ame     -30.581  11.460  25.580  0.00  0.00    -0.271 OA
ATOM      6  H19 non d ame     -32.927  13.182  24.151  0.00  0.00     0.163 HD
BRANCH   4   7
ATOM      7  C9  non d ame     -32.736  10.606  25.277  0.00  0.00     0.092 C 
ATOM      8  H11 non d ame     -33.443  10.716  24.455  0.00  0.00     0.088 H 
BRANCH   7   9
ATOM      9  N3  non d ame     -32.122   9.281  25.146  0.00  0.00    -0.346 N 
ATOM     10  C7  non d ame     -32.225   8.559  23.901  0.00  0.00     0.240 C 
ATOM     11  O3  non d ame     -32.800   9.029  22.996  0.00  0.00    -0.271 OA
ATOM     12  H10 non d ame     -31.625   8.862  25.918  0.00  0.00     0.163 HD
BRANCH  10  13
ATOM     13  C6  non d ame     -31.572   7.148  23.768  0.00  0.00     0.086 C 
ATOM     14  H6  non d ame     -30.655   7.052  24.349  0.00  0.00     0.086 H 
BRANCH  13  15
ATOM     15  N2  non d ame     -32.497   6.151  24.282  0.00  0.00    -0.343 N 
ATOM     16  C5  non d ame     -32.503   5.842  25.713  0.00  0.00     0.273 C 
ATOM     17  O2  non d ame     -31.758   6.400  26.443  0.00  0.00    -0.266 OA
ATOM     18  H5  non d ame     -33.128   5.678  23.650  0.00  0.00     0.163 HD
BRANCH  16  19
ATOM     19  C4  non d ame     -33.475   4.791  26.270  0.00  0.00     0.154 A 
ATOM     20  C1  non d ame     -33.739   3.489  25.738  0.00  0.00    -0.017 A 
ATOM     21  C2  non d ame     -34.700   2.928  26.609  0.00  0.00     0.077 A 
ATOM     22  H1  non d ame     -33.301   3.023  24.856  0.00  0.00     0.091 H 
ATOM     23  O1  non d ame     -34.950   3.812  27.530  0.00  0.00    -0.218 OA
ATOM     24  N1  non d ame     -34.248   4.908  27.354  0.00  0.00    -0.123 NA
BRANCH  21  25
ATOM     25  C3  non d ame     -35.325   1.545  26.491  0.00  0.00    -0.029 C 
ATOM     26  H2  non d ame     -36.300   1.544  26.977  0.00  0.00     0.036 H 
ATOM     27  H3  non d ame     -35.443   1.288  25.438  0.00  0.00     0.036 H 
ATOM     28  H4  non d ame     -34.678   0.811  26.973  0.00  0.00     0.036 H 
ENDBRANCH  21  25
ENDBRANCH  16  19
ENDBRANCH  13  15
BRANCH  13  29
ATOM     29  C8  non d ame     -31.264   6.869  22.319  0.00  0.00    -0.049 C 
ATOM     30  H7  non d ame     -30.698   5.941  22.241  0.00  0.00     0.030 H 
ATOM     31  H8  non d ame     -32.195   6.775  21.761  0.00  0.00     0.030 H 
ATOM     32  H9  non d ame     -30.675   7.689  21.908  0.00  0.00     0.030 H 
ENDBRANCH  13  29
ENDBRANCH  10  13
ENDBRANCH   7   9
BRANCH   7  33
ATOM     33  C11 non d ame     -33.430  10.717  26.666  0.00  0.00    -0.033 C 
ATOM     34  H12 non d ame     -32.654  10.905  27.408  0.00  0.00     0.042 H 
BRANCH  33  35
ATOM     35  C12 non d ame     -34.423  11.920  26.711  0.00  0.00    -0.071 C 
ATOM     36  H13 non d ame     -34.639  12.251  25.695  0.00  0.00     0.028 H 
ATOM     37  H14 non d ame     -35.348  11.610  27.196  0.00  0.00     0.028 H 
ATOM     38  H15 non d ame     -33.975  12.740  27.272  0.00  0.00     0.028 H 
ENDBRANCH  33  35
BRANCH  33  39
ATOM     39  C13 non d ame     -34.144   9.379  27.043  0.00  0.00    -0.071 C 
ATOM     40  H16 non d ame     -34.893   9.571  27.813  0.00  0.00     0.028 H 
ATOM     41  H17 non d ame     -34.630   8.964  26.159  0.00  0.00     0.028 H 
ATOM     42  H18 non d ame     -33.409   8.668  27.420  0.00  0.00     0.028 H 
ENDBRANCH  33  39
ENDBRANCH   7  33
ENDBRANCH   4   7
ENDBRANCH   1   3
BRANCH   1  43
ATOM     43  C15 non d ame     -31.325  15.158  25.412  0.00  0.00     0.240 C 
ATOM     44  O5  non d ame     -30.985  16.274  25.183  0.00  0.00    -0.271 OA
ATOM     45  N6  non d ame     -32.077  14.854  26.663  0.00  0.00    -0.355 N 
ATOM     46  H46 non d ame     -32.375  13.911  26.866  0.00  0.00     0.162 HD
BRANCH  45  47
ATOM     47  C20 non d ame     -32.388  15.943  27.614  0.00  0.00     0.013 C 
ATOM     48  H30 non d ame     -31.723  16.779  27.396  0.00  0.00     0.072 H 
BRANCH  47  49
ATOM     49  C21 non d ame     -32.157  15.455  29.026  0.00  0.00    -0.038 C 
ATOM     50  H31 non d ame     -31.078  15.331  29.123  0.00  0.00     0.036 H 
ATOM     51  H32 non d ame     -32.685  16.158  29.670  0.00  0.00     0.036 H 
BRANCH  49  52
ATOM     52  C22 non d ame     -32.782  14.067  29.290  0.00  0.00     0.018 C 
ATOM     53  H33 non d ame     -33.329  14.163  30.227  0.00  0.00     0.048 H 
ATOM     54  H34 non d ame     -33.310  13.803  28.374  0.00  0.00     0.048 H 
BRANCH  52  55
ATOM     55  C23 non d ame     -31.734  12.943  29.519  0.00  0.00     0.259 C 
ATOM     56  O7  non d ame     -30.731  12.913  28.883  0.00  0.00    -0.265 OA
BRANCH  55  57
ATOM     57  O8  non d ame     -31.992  11.938  30.493  0.00  0.00    -0.317 OA
BRANCH  57  58
ATOM     58  C29 non d ame     -32.581  10.748  29.960  0.00  0.00     0.052 C 
ATOM     59  H47 non d ame     -33.033  11.042  29.013  0.00  0.00     0.082 H 
ATOM     60  H48 non d ame     -31.793   9.996  29.978  0.00  0.00     0.082 H 
BRANCH  58  61
ATOM     61  C35 non d ame     -33.711  10.299  30.925  0.00  0.00    -0.034 A 
ATOM     62  C30 non d ame     -34.251   9.022  30.819  0.00  0.00    -0.075 A 
ATOM     63  C31 non d ame     -35.266   8.618  31.685  0.00  0.00    -0.082 A 
ATOM     64  H49 non d ame     -33.880   8.337  30.056  0.00  0.00     0.084 H 
ATOM     65  C32 non d ame     -35.742   9.499  32.660  0.00  0.00    -0.083 A 
ATOM     66  H50 non d ame     -35.686   7.616  31.600  0.00  0.00     0.083 H 
ATOM     67  C33 non d ame     -35.202  10.774  32.760  0.00  0.00    -0.082 A 
ATOM     68  H51 non d ame     -36.535   9.192  33.342  0.00  0.00     0.083 H 
ATOM     69  C34 non d ame     -34.187  11.181  31.898  0.00  0.00    -0.075 A 
ATOM     70  H52 non d ame     -35.578  11.460  33.520  0.00  0.00     0.083 H 
ATOM     71  H53 non d ame     -33.767  12.184  31.984  0.00  0.00     0.084 H 
ENDBRANCH  58  61
ENDBRANCH  57  58
ENDBRANCH  55  57
ENDBRANCH  52  55
ENDBRANCH  49  52
ENDBRANCH  47  49
BRANCH  47  72
ATOM     72  C24 non d ame     -33.846  16.369  27.453  0.00  0.00    -0.039 C 
ATOM     73  H35 non d ame     -34.258  15.709  26.688  0.00  0.00     0.036 H 
ATOM     74  H36 non d ame     -34.263  16.362  28.460  0.00  0.00     0.036 H 
BRANCH  72  75
ATOM     75  C25 non d ame     -33.969  17.867  26.901  0.00  0.00    -0.001 C 
ATOM     76  C26 non d ame     -32.517  18.630  27.023  0.00  0.00    -0.035 C 
ATOM     77  C27 non d ame     -32.698  19.813  27.657  0.00  0.00     0.085 C 
ATOM     78  H38 non d ame     -31.860  18.078  27.695  0.00  0.00     0.036 H 
ATOM     79  H39 non d ame     -32.163  18.922  26.034  0.00  0.00     0.036 H 
ATOM     80  N5  non d ame     -34.078  19.780  28.268  0.00  0.00    -0.049 N 
ATOM     81  H40 non d ame     -31.956  19.832  28.455  0.00  0.00     0.075 H 
ATOM     82  H41 non d ame     -32.674  20.570  26.874  0.00  0.00     0.075 H 
ATOM     83  C28 non d ame     -34.843  18.542  27.570  0.00  0.00     0.193 C 
ATOM     84  H42 non d ame     -33.953  19.570  29.248  0.00  0.00     0.280 HD
ATOM     85  H43 non d ame     -34.533  20.638  27.989  0.00  0.00     0.280 HD
ATOM     86  H44 non d ame     -35.591  18.718  26.797  0.00  0.00     0.129 H 
ATOM     87  H37 non d ame     -34.472  17.911  25.935  0.00  0.00     0.046 H 
BRANCH  83  88
ATOM     88  O6  non d ame     -35.496  17.745  28.560  0.00  0.00    -0.369 OA
ATOM     89  H45 non d ame     -35.210  16.833  28.476  0.00  0.00     0.212 HD
ENDBRANCH  83  88
ENDBRANCH  72  75
ENDBRANCH  47  72
ENDBRANCH  45  47
ENDBRANCH   1  43
BRANCH   1  90
ATOM     90  C16 non d ame     -31.008  14.581  22.986  0.00  0.00    -0.035 C 
ATOM     91  H21 non d ame     -31.842  14.085  22.491  0.00  0.00     0.037 H 
ATOM     92  H22 non d ame     -31.009  15.665  23.101  0.00  0.00     0.037 H 
BRANCH  90  93
ATOM     93  C17 non d ame     -29.731  14.227  22.158  0.00  0.00    -0.059 C 
ATOM     94  H23 non d ame     -29.894  14.571  21.137  0.00  0.00     0.038 H 
BRANCH  93  95
ATOM     95  C18 non d ame     -28.456  14.946  22.705  0.00  0.00    -0.073 C 
ATOM     96  H24 non d ame     -27.946  15.454  21.887  0.00  0.00     0.028 H 
ATOM     97  H25 non d ame     -28.746  15.676  23.460  0.00  0.00     0.028 H 
ATOM     98  H26 non d ame     -27.787  14.210  23.150  0.00  0.00     0.028 H 
ENDBRANCH  93  95
BRANCH  93  99
ATOM     99  C19 non d ame     -29.519  12.712  22.100  0.00  0.00    -0.073 C 
ATOM    100  H27 non d ame     -29.093  12.441  21.133  0.00  0.00     0.028 H 
ATOM    101  H28 non d ame     -28.837  12.410  22.895  0.00  0.00     0.028 H 
ATOM    102  H29 non d ame     -30.475  12.206  22.231  0.00  0.00     0.028 H 
ENDBRANCH  93  99
ENDBRANCH  90  93
ENDBRANCH   1  90
TORSDOF 26
ENDMDL
MODEL 12
REMARK VINA RESULT:      -7.1      2.893      7.154
REMARK  26 active torsions:
REMARK  status: ('A' for Active; 'I' for Inactive)
REMARK    1  A    between atoms: C2_2  and  C3_3 
REMARK    2  A    between atoms: C4_6  and  C5_7 
REMARK       I    between atoms: C5_7  and  N2_9 
REMARK    3  A    between atoms: N2_9  and  C6_10 
REMARK    4  A    between atoms: C6_10  and  C7_11 
REMARK    5  A    between atoms: C6_10  and  C8_13 
REMARK       I    between atoms: C7_11  and  N3_14 
REMARK    6  A    between atoms: N3_14  and  C9_15 
REMARK    7  A    between atoms: C9_15  and  C10_16 
REMARK    8  A    between atoms: C9_15  and  C11_18 
REMARK       I    between atoms: C10_16  and  N4_21 
REMARK    9  A    between atoms: C11_18  and  C12_19 
REMARK   10  A    between atoms: C11_18  and  C13_20 
REMARK   11  A    between atoms: N4_21  and  C14_22 
REMARK   12  A    between atoms: C14_22  and  C15_23 
REMARK   13  A    between atoms: C14_22  and  C16_25 
REMARK       I    between atoms: C15_23  and  N6_40 
REMARK   14  A    between atoms: C16_25  and  C17_26 
REMARK   15  A    between atoms: C17_26  and  C18_27 
REMARK   16  A    between atoms: C17_26  and  C19_28 
REMARK   17  A    between atoms: C20_29  and  C21_30 
REMARK   18  A    between atoms: C20_29  and  C24_33 
REMARK   19  A    between atoms: C20_29  and  N6_40 
REMARK   20  A    between atoms: C21_30  and  C22_31 
REMARK   21  A    between atoms: C22_31  and  C23_32 
REMARK   22  A    between atoms: C23_32  and  O8_43 
REMARK   23  A    between atoms: C24_33  and  C25_34 
REMARK   24  A    between atoms: C28_38  and  O6_39 
REMARK   25  A    between atoms: C29_42  and  O8_43 
REMARK   26  A    between atoms: C29_42  and  C35_49 
ROOT
ATOM      1  C14 non d ame     -31.221  14.208  24.203  0.00  0.00     0.089 C 
ATOM      2  H20 non d ame     -30.205  14.145  24.595  0.00  0.00     0.087 H 
ENDROOT
BRANCH   1   3
ATOM      3  N4  non d ame     -31.760  12.857  24.163  0.00  0.00    -0.346 N 
ATOM      4  C10 non d ame     -31.549  11.918  25.324  0.00  0.00     0.241 C 
ATOM      5  O4  non d ame     -30.938  12.271  26.278  0.00  0.00    -0.271 OA
ATOM      6  H19 non d ame     -32.275  12.575  23.341  0.00  0.00     0.163 HD
BRANCH   4   7
ATOM      7  C9  non d ame     -32.119  10.525  25.268  0.00  0.00     0.092 C 
ATOM      8  H11 non d ame     -33.002  10.524  24.629  0.00  0.00     0.088 H 
BRANCH   7   9
ATOM      9  N3  non d ame     -31.140   9.620  24.656  0.00  0.00    -0.346 N 
ATOM     10  C7  non d ame     -31.364   9.112  23.325  0.00  0.00     0.240 C 
ATOM     11  O3  non d ame     -32.325   9.419  22.733  0.00  0.00    -0.271 OA
ATOM     12  H10 non d ame     -30.307   9.345  25.155  0.00  0.00     0.163 HD
BRANCH  10  13
ATOM     13  C6  non d ame     -30.320   8.147  22.680  0.00  0.00     0.086 C 
ATOM     14  H6  non d ame     -29.995   7.362  23.362  0.00  0.00     0.086 H 
BRANCH  13  15
ATOM     15  N2  non d ame     -30.933   7.482  21.542  0.00  0.00    -0.343 N 
ATOM     16  C5  non d ame     -31.645   6.218  21.743  0.00  0.00     0.273 C 
ATOM     17  O2  non d ame     -31.717   5.743  22.823  0.00  0.00    -0.266 OA
ATOM     18  H5  non d ame     -30.865   7.894  20.622  0.00  0.00     0.163 HD
BRANCH  16  19
ATOM     19  C4  non d ame     -32.300   5.505  20.549  0.00  0.00     0.154 A 
ATOM     20  C1  non d ame     -32.331   4.098  20.294  0.00  0.00    -0.017 A 
ATOM     21  C2  non d ame     -33.046   3.963  19.083  0.00  0.00     0.077 A 
ATOM     22  H1  non d ame     -31.900   3.296  20.895  0.00  0.00     0.091 H 
ATOM     23  O1  non d ame     -33.383   5.159  18.697  0.00  0.00    -0.218 OA
ATOM     24  N1  non d ame     -32.958   6.076  19.536  0.00  0.00    -0.123 NA
BRANCH  21  25
ATOM     25  C3  non d ame     -33.364   2.659  18.364  0.00  0.00    -0.029 C 
ATOM     26  H2  non d ame     -32.446   2.231  17.964  0.00  0.00     0.036 H 
ATOM     27  H3  non d ame     -33.816   1.959  19.065  0.00  0.00     0.036 H 
ATOM     28  H4  non d ame     -34.060   2.855  17.547  0.00  0.00     0.036 H 
ENDBRANCH  21  25
ENDBRANCH  16  19
ENDBRANCH  13  15
BRANCH  13  29
ATOM     29  C8  non d ame     -29.115   8.933  22.231  0.00  0.00    -0.049 C 
ATOM     30  H7  non d ame     -29.440   9.793  21.646  0.00  0.00     0.030 H 
ATOM     31  H8  non d ame     -28.560   9.277  23.104  0.00  0.00     0.030 H 
ATOM     32  H9  non d ame     -28.474   8.298  21.619  0.00  0.00     0.030 H 
ENDBRANCH  13  29
ENDBRANCH  10  13
ENDBRANCH   7   9
BRANCH   7  33
ATOM     33  C11 non d ame     -32.440  10.037  26.711  0.00  0.00    -0.033 C 
ATOM     34  H12 non d ame     -31.678  10.448  27.374  0.00  0.00     0.042 H 
BRANCH  33  35
ATOM     35  C12 non d ame     -33.822  10.573  27.198  0.00  0.00    -0.071 C 
ATOM     36  H13 non d ame     -33.848  10.577  28.287  0.00  0.00     0.028 H 
ATOM     37  H14 non d ame     -33.969  11.588  26.828  0.00  0.00     0.028 H 
ATOM     38  H15 non d ame     -34.615   9.929  26.818  0.00  0.00     0.028 H 
ENDBRANCH  33  35
BRANCH  33  39
ATOM     39  C13 non d ame     -32.372   8.479  26.803  0.00  0.00    -0.071 C 
ATOM     40  H16 non d ame     -32.473   8.172  27.844  0.00  0.00     0.028 H 
ATOM     41  H17 non d ame     -33.181   8.045  26.215  0.00  0.00     0.028 H 
ATOM     42  H18 non d ame     -31.415   8.133  26.413  0.00  0.00     0.028 H 
ENDBRANCH  33  39
ENDBRANCH   7  33
ENDBRANCH   4   7
ENDBRANCH   1   3
BRANCH   1  43
ATOM     43  C15 non d ame     -32.142  15.083  25.101  0.00  0.00     0.240 C 
ATOM     44  O5  non d ame     -33.147  15.534  24.654  0.00  0.00    -0.271 OA
ATOM     45  N6  non d ame     -31.776  15.351  26.521  0.00  0.00    -0.355 N 
ATOM     46  H46 non d ame     -30.928  14.970  26.913  0.00  0.00     0.162 HD
BRANCH  45  47
ATOM     47  C20 non d ame     -32.664  16.184  27.362  0.00  0.00     0.013 C 
ATOM     48  H30 non d ame     -33.659  16.168  26.917  0.00  0.00     0.072 H 
BRANCH  47  49
ATOM     49  C21 non d ame     -32.136  17.600  27.396  0.00  0.00    -0.038 C 
ATOM     50  H31 non d ame     -32.340  17.966  28.402  0.00  0.00     0.036 H 
ATOM     51  H32 non d ame     -31.108  17.539  27.036  0.00  0.00     0.036 H 
BRANCH  49  52
ATOM     52  C22 non d ame     -32.883  18.542  26.428  0.00  0.00     0.018 C 
ATOM     53  H33 non d ame     -32.114  18.995  25.804  0.00  0.00     0.048 H 
ATOM     54  H34 non d ame     -33.668  17.936  25.973  0.00  0.00     0.048 H 
BRANCH  52  55
ATOM     55  C23 non d ame     -33.608  19.720  27.136  0.00  0.00     0.259 C 
ATOM     56  O7  non d ame     -33.124  20.243  28.087  0.00  0.00    -0.265 OA
BRANCH  55  57
ATOM     57  O8  non d ame     -34.867  20.161  26.642  0.00  0.00    -0.317 OA
BRANCH  57  58
ATOM     58  C29 non d ame     -35.991  19.570  27.301  0.00  0.00     0.052 C 
ATOM     59  H47 non d ame     -35.695  19.457  28.344  0.00  0.00     0.082 H 
ATOM     60  H48 non d ame     -36.846  20.194  27.042  0.00  0.00     0.082 H 
BRANCH  58  61
ATOM     61  C35 non d ame     -36.212  18.158  26.696  0.00  0.00    -0.034 A 
ATOM     62  C30 non d ame     -36.202  17.038  27.521  0.00  0.00    -0.075 A 
ATOM     63  C31 non d ame     -36.401  15.769  26.979  0.00  0.00    -0.082 A 
ATOM     64  H49 non d ame     -36.038  17.154  28.593  0.00  0.00     0.084 H 
ATOM     65  C32 non d ame     -36.608  15.623  25.604  0.00  0.00    -0.083 A 
ATOM     66  H50 non d ame     -36.394  14.893  27.628  0.00  0.00     0.083 H 
ATOM     67  C33 non d ame     -36.614  16.743  24.785  0.00  0.00    -0.082 A 
ATOM     68  H51 non d ame     -36.765  14.635  25.172  0.00  0.00     0.083 H 
ATOM     69  C34 non d ame     -36.418  18.013  25.323  0.00  0.00    -0.075 A 
ATOM     70  H52 non d ame     -36.774  16.626  23.712  0.00  0.00     0.083 H 
ATOM     71  H53 non d ame     -36.425  18.889  24.673  0.00  0.00     0.084 H 
ENDBRANCH  58  61
ENDBRANCH  57  58
ENDBRANCH  55  57
ENDBRANCH  52  55
ENDBRANCH  49  52
ENDBRANCH  47  49
BRANCH  47  72
ATOM     72  C24 non d ame     -32.708  15.621  28.781  0.00  0.00    -0.039 C 
ATOM     73  H35 non d ame     -32.405  16.444  29.429  0.00  0.00     0.036 H 
ATOM     74  H36 non d ame     -33.699  15.181  28.888  0.00  0.00     0.036 H 
BRANCH  72  75
ATOM     75  C25 non d ame     -31.642  14.442  28.984  0.00  0.00    -0.001 C 
ATOM     76  C26 non d ame     -32.416  13.055  29.411  0.00  0.00    -0.035 C 
ATOM     77  C27 non d ame     -31.829  12.552  30.523  0.00  0.00     0.085 C 
ATOM     78  H38 non d ame     -33.431  13.279  29.738  0.00  0.00     0.036 H 
ATOM     79  H39 non d ame     -32.242  12.284  28.660  0.00  0.00     0.036 H 
ATOM     80  N5  non d ame     -30.939  13.637  31.082  0.00  0.00    -0.049 N 
ATOM     81  H40 non d ame     -32.643  12.365  31.223  0.00  0.00     0.075 H 
ATOM     82  H41 non d ame     -31.207  11.727  30.176  0.00  0.00     0.075 H 
ATOM     83  C28 non d ame     -30.790  14.737  29.909  0.00  0.00     0.193 C 
ATOM     84  H42 non d ame     -31.444  14.053  31.851  0.00  0.00     0.280 HD
ATOM     85  H43 non d ame     -30.037  13.212  31.240  0.00  0.00     0.280 HD
ATOM     86  H44 non d ame     -29.874  14.800  29.322  0.00  0.00     0.129 H 
ATOM     87  H37 non d ame     -30.932  14.381  28.160  0.00  0.00     0.046 H 
BRANCH  83  88
ATOM     88  O6  non d ame     -30.998  16.049  30.435  0.00  0.00    -0.369 OA
ATOM     89  H45 non d ame     -31.890  16.339  30.229  0.00  0.00     0.212 HD
ENDBRANCH  83  88
ENDBRANCH  72  75
ENDBRANCH  47  72
ENDBRANCH  45  47
ENDBRANCH   1  43
BRANCH   1  90
ATOM     90  C16 non d ame     -31.195  14.774  22.793  0.00  0.00    -0.035 C 
ATOM     91  H21 non d ame     -31.255  13.909  22.133  0.00  0.00     0.037 H 
ATOM     92  H22 non d ame     -31.979  15.531  22.771  0.00  0.00     0.037 H 
BRANCH  90  93
ATOM     93  C17 non d ame     -29.863  15.508  22.436  0.00  0.00    -0.059 C 
ATOM     94  H23 non d ame     -29.812  16.413  23.042  0.00  0.00     0.038 H 
BRANCH  93  95
ATOM     95  C18 non d ame     -28.606  14.641  22.767  0.00  0.00    -0.073 C 
ATOM     96  H24 non d ame     -27.845  14.798  22.003  0.00  0.00     0.028 H 
ATOM     97  H25 non d ame     -28.209  14.933  23.739  0.00  0.00     0.028 H 
ATOM     98  H26 non d ame     -28.887  13.589  22.790  0.00  0.00     0.028 H 
ENDBRANCH  93  95
BRANCH  93  99
ATOM     99  C19 non d ame     -29.854  15.943  20.968  0.00  0.00    -0.073 C 
ATOM    100  H27 non d ame     -28.931  15.606  20.495  0.00  0.00     0.028 H 
ATOM    101  H28 non d ame     -30.708  15.501  20.453  0.00  0.00     0.028 H 
ATOM    102  H29 non d ame     -29.918  17.029  20.910  0.00  0.00     0.028 H 
ENDBRANCH  93  99
ENDBRANCH  90  93
ENDBRANCH   1  90
TORSDOF 26
ENDMDL
MODEL 13
REMARK VINA RESULT:      -7.1      2.569      8.299
REMARK  26 active torsions:
REMARK  status: ('A' for Active; 'I' for Inactive)
REMARK    1  A    between atoms: C2_2  and  C3_3 
REMARK    2  A    between atoms: C4_6  and  C5_7 
REMARK       I    between atoms: C5_7  and  N2_9 
REMARK    3  A    between atoms: N2_9  and  C6_10 
REMARK    4  A    between atoms: C6_10  and  C7_11 
REMARK    5  A    between atoms: C6_10  and  C8_13 
REMARK       I    between atoms: C7_11  and  N3_14 
REMARK    6  A    between atoms: N3_14  and  C9_15 
REMARK    7  A    between atoms: C9_15  and  C10_16 
REMARK    8  A    between atoms: C9_15  and  C11_18 
REMARK       I    between atoms: C10_16  and  N4_21 
REMARK    9  A    between atoms: C11_18  and  C12_19 
REMARK   10  A    between atoms: C11_18  and  C13_20 
REMARK   11  A    between atoms: N4_21  and  C14_22 
REMARK   12  A    between atoms: C14_22  and  C15_23 
REMARK   13  A    between atoms: C14_22  and  C16_25 
REMARK       I    between atoms: C15_23  and  N6_40 
REMARK   14  A    between atoms: C16_25  and  C17_26 
REMARK   15  A    between atoms: C17_26  and  C18_27 
REMARK   16  A    between atoms: C17_26  and  C19_28 
REMARK   17  A    between atoms: C20_29  and  C21_30 
REMARK   18  A    between atoms: C20_29  and  C24_33 
REMARK   19  A    between atoms: C20_29  and  N6_40 
REMARK   20  A    between atoms: C21_30  and  C22_31 
REMARK   21  A    between atoms: C22_31  and  C23_32 
REMARK   22  A    between atoms: C23_32  and  O8_43 
REMARK   23  A    between atoms: C24_33  and  C25_34 
REMARK   24  A    between atoms: C28_38  and  O6_39 
REMARK   25  A    between atoms: C29_42  and  O8_43 
REMARK   26  A    between atoms: C29_42  and  C35_49 
ROOT
ATOM      1  C14 non d ame     -36.510  16.180  26.373  0.00  0.00     0.089 C 
ATOM      2  H20 non d ame     -37.124  16.761  27.062  0.00  0.00     0.087 H 
ENDROOT
BRANCH   1   3
ATOM      3  N4  non d ame     -35.122  16.342  26.781  0.00  0.00    -0.346 N 
ATOM      4  C10 non d ame     -34.769  17.233  27.944  0.00  0.00     0.241 C 
ATOM      5  O4  non d ame     -35.619  17.813  28.536  0.00  0.00    -0.271 OA
ATOM      6  H19 non d ame     -34.413  15.841  26.263  0.00  0.00     0.163 HD
BRANCH   4   7
ATOM      7  C9  non d ame     -33.328  17.385  28.356  0.00  0.00     0.092 C 
ATOM      8  H11 non d ame     -33.283  17.870  29.331  0.00  0.00     0.088 H 
BRANCH   7   9
ATOM      9  N3  non d ame     -32.719  16.059  28.502  0.00  0.00    -0.346 N 
ATOM     10  C7  non d ame     -31.778  15.812  29.567  0.00  0.00     0.240 C 
ATOM     11  O3  non d ame     -31.498  16.669  30.313  0.00  0.00    -0.271 OA
ATOM     12  H10 non d ame     -32.950  15.310  27.865  0.00  0.00     0.163 HD
BRANCH  10  13
ATOM     13  C6  non d ame     -31.131  14.400  29.716  0.00  0.00     0.086 C 
ATOM     14  H6  non d ame     -30.449  14.336  30.563  0.00  0.00     0.086 H 
BRANCH  13  15
ATOM     15  N2  non d ame     -32.181  13.423  29.952  0.00  0.00    -0.343 N 
ATOM     16  C5  non d ame     -31.850  12.150  30.596  0.00  0.00     0.273 C 
ATOM     17  O2  non d ame     -30.736  11.921  30.919  0.00  0.00    -0.266 OA
ATOM     18  H5  non d ame     -33.130  13.626  29.671  0.00  0.00     0.163 HD
BRANCH  16  19
ATOM     19  C4  non d ame     -32.950  11.109  30.854  0.00  0.00     0.154 A 
ATOM     20  C1  non d ame     -33.346  10.038  29.991  0.00  0.00    -0.017 A 
ATOM     21  C2  non d ame     -34.387   9.379  30.683  0.00  0.00     0.077 A 
ATOM     22  H1  non d ame     -32.939   9.778  29.013  0.00  0.00     0.091 H 
ATOM     23  O1  non d ame     -34.560  10.006  31.810  0.00  0.00    -0.218 OA
ATOM     24  N1  non d ame     -33.734  11.019  31.932  0.00  0.00    -0.123 NA
BRANCH  21  25
ATOM     25  C3  non d ame     -35.161   8.160  30.199  0.00  0.00    -0.029 C 
ATOM     26  H2  non d ame     -35.182   7.407  30.986  0.00  0.00     0.036 H 
ATOM     27  H3  non d ame     -36.180   8.454  29.950  0.00  0.00     0.036 H 
ATOM     28  H4  non d ame     -34.675   7.749  29.314  0.00  0.00     0.036 H 
ENDBRANCH  21  25
ENDBRANCH  16  19
ENDBRANCH  13  15
BRANCH  13  29
ATOM     29  C8  non d ame     -30.377  14.054  28.457  0.00  0.00    -0.049 C 
ATOM     30  H7  non d ame     -30.847  13.196  27.977  0.00  0.00     0.030 H 
ATOM     31  H8  non d ame     -30.396  14.906  27.777  0.00  0.00     0.030 H 
ATOM     32  H9  non d ame     -29.344  13.811  28.706  0.00  0.00     0.030 H 
ENDBRANCH  13  29
ENDBRANCH  10  13
ENDBRANCH   7   9
BRANCH   7  33
ATOM     33  C11 non d ame     -32.559  18.188  27.266  0.00  0.00    -0.033 C 
ATOM     34  H12 non d ame     -31.523  18.278  27.594  0.00  0.00     0.042 H 
BRANCH  33  35
ATOM     35  C12 non d ame     -32.556  17.433  25.900  0.00  0.00    -0.071 C 
ATOM     36  H13 non d ame     -33.466  16.841  25.810  0.00  0.00     0.028 H 
ATOM     37  H14 non d ame     -32.511  18.156  25.086  0.00  0.00     0.028 H 
ATOM     38  H15 non d ame     -31.688  16.775  25.851  0.00  0.00     0.028 H 
ENDBRANCH  33  35
BRANCH  33  39
ATOM     39  C13 non d ame     -33.145  19.629  27.116  0.00  0.00    -0.071 C 
ATOM     40  H16 non d ame     -32.335  20.331  26.917  0.00  0.00     0.028 H 
ATOM     41  H17 non d ame     -33.855  19.648  26.289  0.00  0.00     0.028 H 
ATOM     42  H18 non d ame     -33.654  19.912  28.037  0.00  0.00     0.028 H 
ENDBRANCH  33  39
ENDBRANCH   7  33
ENDBRANCH   4   7
ENDBRANCH   1   3
BRANCH   1  43
ATOM     43  C15 non d ame     -36.863  14.665  26.407  0.00  0.00     0.240 C 
ATOM     44  O5  non d ame     -37.830  14.296  26.990  0.00  0.00    -0.271 OA
ATOM     45  N6  non d ame     -35.998  13.675  25.704  0.00  0.00    -0.355 N 
ATOM     46  H46 non d ame     -35.176  13.976  25.202  0.00  0.00     0.162 HD
BRANCH  45  47
ATOM     47  C20 non d ame     -36.348  12.238  25.745  0.00  0.00     0.013 C 
ATOM     48  H30 non d ame     -37.241  12.127  26.359  0.00  0.00     0.072 H 
BRANCH  47  49
ATOM     49  C21 non d ame     -35.202  11.462  26.353  0.00  0.00    -0.038 C 
ATOM     50  H31 non d ame     -35.175  11.751  27.404  0.00  0.00     0.036 H 
ATOM     51  H32 non d ame     -35.373  10.421  26.078  0.00  0.00     0.036 H 
BRANCH  49  52
ATOM     52  C22 non d ame     -33.831  11.851  25.758  0.00  0.00     0.018 C 
ATOM     53  H33 non d ame     -33.138  11.074  26.080  0.00  0.00     0.048 H 
ATOM     54  H34 non d ame     -34.008  12.017  24.695  0.00  0.00     0.048 H 
BRANCH  52  55
ATOM     55  C23 non d ame     -33.264  13.187  26.312  0.00  0.00     0.259 C 
ATOM     56  O7  non d ame     -33.598  13.587  27.380  0.00  0.00    -0.265 OA
BRANCH  55  57
ATOM     57  O8  non d ame     -32.349  13.936  25.523  0.00  0.00    -0.317 OA
BRANCH  57  58
ATOM     58  C29 non d ame     -31.367  13.138  24.855  0.00  0.00     0.052 C 
ATOM     59  H47 non d ame     -30.521  13.077  25.539  0.00  0.00     0.082 H 
ATOM     60  H48 non d ame     -31.885  12.231  24.546  0.00  0.00     0.082 H 
BRANCH  58  61
ATOM     61  C35 non d ame     -30.915  13.902  23.581  0.00  0.00    -0.034 A 
ATOM     62  C30 non d ame     -29.953  13.349  22.742  0.00  0.00    -0.075 A 
ATOM     63  C31 non d ame     -29.547  14.035  21.599  0.00  0.00    -0.082 A 
ATOM     64  H49 non d ame     -29.517  12.379  22.981  0.00  0.00     0.084 H 
ATOM     65  C32 non d ame     -30.105  15.280  21.296  0.00  0.00    -0.083 A 
ATOM     66  H50 non d ame     -28.793  13.598  20.942  0.00  0.00     0.083 H 
ATOM     67  C33 non d ame     -31.062  15.829  22.138  0.00  0.00    -0.082 A 
ATOM     68  H51 non d ame     -29.793  15.823  20.404  0.00  0.00     0.083 H 
ATOM     69  C34 non d ame     -31.473  15.146  23.281  0.00  0.00    -0.075 A 
ATOM     70  H52 non d ame     -31.494  16.802  21.901  0.00  0.00     0.083 H 
ATOM     71  H53 non d ame     -32.226  15.584  23.937  0.00  0.00     0.084 H 
ENDBRANCH  58  61
ENDBRANCH  57  58
ENDBRANCH  55  57
ENDBRANCH  52  55
ENDBRANCH  49  52
ENDBRANCH  47  49
BRANCH  47  72
ATOM     72  C24 non d ame     -36.612  11.731  24.328  0.00  0.00    -0.039 C 
ATOM     73  H35 non d ame     -35.962  12.322  23.683  0.00  0.00     0.036 H 
ATOM     74  H36 non d ame     -36.490  10.649  24.380  0.00  0.00     0.036 H 
BRANCH  72  75
ATOM     75  C25 non d ame     -38.120  12.016  23.869  0.00  0.00    -0.001 C 
ATOM     76  C26 non d ame     -38.773  10.655  23.216  0.00  0.00    -0.035 C 
ATOM     77  C27 non d ame     -39.305  10.962  22.009  0.00  0.00     0.085 C 
ATOM     78  H38 non d ame     -37.985   9.942  22.972  0.00  0.00     0.036 H 
ATOM     79  H39 non d ame     -39.635  10.335  23.801  0.00  0.00     0.036 H 
ATOM     80  N5  non d ame     -38.789  12.331  21.634  0.00  0.00    -0.049 N 
ATOM     81  H40 non d ame     -38.898  10.227  21.315  0.00  0.00     0.075 H 
ATOM     82  H41 non d ame     -40.381  11.021  22.172  0.00  0.00     0.075 H 
ATOM     83  C28 non d ame     -38.170  12.958  22.987  0.00  0.00     0.193 C 
ATOM     84  H42 non d ame     -38.038  12.183  20.975  0.00  0.00     0.280 HD
ATOM     85  H43 non d ame     -39.596  12.876  21.366  0.00  0.00     0.280 HD
ATOM     86  H44 non d ame     -38.715  13.721  23.543  0.00  0.00     0.129 H 
ATOM     87  H37 non d ame     -38.699  12.521  24.642  0.00  0.00     0.046 H 
BRANCH  83  88
ATOM     88  O6  non d ame     -36.883  13.520  22.726  0.00  0.00    -0.369 OA
ATOM     89  H45 non d ame     -36.204  12.949  23.092  0.00  0.00     0.212 HD
ENDBRANCH  83  88
ENDBRANCH  72  75
ENDBRANCH  47  72
ENDBRANCH  45  47
ENDBRANCH   1  43
BRANCH   1  90
ATOM     90  C16 non d ame     -36.677  16.712  24.959  0.00  0.00    -0.035 C 
ATOM     91  H21 non d ame     -35.665  16.808  24.565  0.00  0.00     0.037 H 
ATOM     92  H22 non d ame     -37.387  16.039  24.479  0.00  0.00     0.037 H 
BRANCH  90  93
ATOM     93  C17 non d ame     -37.310  18.139  24.898  0.00  0.00    -0.059 C 
ATOM     94  H23 non d ame     -37.755  18.261  23.911  0.00  0.00     0.038 H 
BRANCH  93  95
ATOM     95  C18 non d ame     -38.442  18.328  25.958  0.00  0.00    -0.073 C 
ATOM     96  H24 non d ame     -38.351  17.561  26.727  0.00  0.00     0.028 H 
ATOM     97  H25 non d ame     -38.351  19.312  26.416  0.00  0.00     0.028 H 
ATOM     98  H26 non d ame     -39.413  18.242  25.471  0.00  0.00     0.028 H 
ENDBRANCH  93  95
BRANCH  93  99
ATOM     99  C19 non d ame     -36.237  19.220  25.049  0.00  0.00    -0.073 C 
ATOM    100  H27 non d ame     -36.503  20.084  24.439  0.00  0.00     0.028 H 
ATOM    101  H28 non d ame     -36.167  19.521  26.094  0.00  0.00     0.028 H 
ATOM    102  H29 non d ame     -35.275  18.826  24.721  0.00  0.00     0.028 H 
ENDBRANCH  93  99
ENDBRANCH  90  93
ENDBRANCH   1  90
TORSDOF 26
ENDMDL
MODEL 14
REMARK VINA RESULT:      -7.0      3.521      8.305
REMARK  26 active torsions:
REMARK  status: ('A' for Active; 'I' for Inactive)
REMARK    1  A    between atoms: C2_2  and  C3_3 
REMARK    2  A    between atoms: C4_6  and  C5_7 
REMARK       I    between atoms: C5_7  and  N2_9 
REMARK    3  A    between atoms: N2_9  and  C6_10 
REMARK    4  A    between atoms: C6_10  and  C7_11 
REMARK    5  A    between atoms: C6_10  and  C8_13 
REMARK       I    between atoms: C7_11  and  N3_14 
REMARK    6  A    between atoms: N3_14  and  C9_15 
REMARK    7  A    between atoms: C9_15  and  C10_16 
REMARK    8  A    between atoms: C9_15  and  C11_18 
REMARK       I    between atoms: C10_16  and  N4_21 
REMARK    9  A    between atoms: C11_18  and  C12_19 
REMARK   10  A    between atoms: C11_18  and  C13_20 
REMARK   11  A    between atoms: N4_21  and  C14_22 
REMARK   12  A    between atoms: C14_22  and  C15_23 
REMARK   13  A    between atoms: C14_22  and  C16_25 
REMARK       I    between atoms: C15_23  and  N6_40 
REMARK   14  A    between atoms: C16_25  and  C17_26 
REMARK   15  A    between atoms: C17_26  and  C18_27 
REMARK   16  A    between atoms: C17_26  and  C19_28 
REMARK   17  A    between atoms: C20_29  and  C21_30 
REMARK   18  A    between atoms: C20_29  and  C24_33 
REMARK   19  A    between atoms: C20_29  and  N6_40 
REMARK   20  A    between atoms: C21_30  and  C22_31 
REMARK   21  A    between atoms: C22_31  and  C23_32 
REMARK   22  A    between atoms: C23_32  and  O8_43 
REMARK   23  A    between atoms: C24_33  and  C25_34 
REMARK   24  A    between atoms: C28_38  and  O6_39 
REMARK   25  A    between atoms: C29_42  and  O8_43 
REMARK   26  A    between atoms: C29_42  and  C35_49 
ROOT
ATOM      1  C14 non d ame     -32.038   9.372  24.183  0.00  0.00     0.089 C 
ATOM      2  H20 non d ame     -31.569   8.483  24.606  0.00  0.00     0.087 H 
ENDROOT
BRANCH   1   3
ATOM      3  N4  non d ame     -33.185   9.700  25.017  0.00  0.00    -0.346 N 
ATOM      4  C10 non d ame     -33.350   9.058  26.372  0.00  0.00     0.241 C 
ATOM      5  O4  non d ame     -32.549   8.277  26.768  0.00  0.00    -0.271 OA
ATOM      6  H19 non d ame     -33.856  10.365  24.661  0.00  0.00     0.163 HD
BRANCH   4   7
ATOM      7  C9  non d ame     -34.540   9.414  27.224  0.00  0.00     0.092 C 
ATOM      8  H11 non d ame     -35.442   9.002  26.771  0.00  0.00     0.088 H 
BRANCH   7   9
ATOM      9  N3  non d ame     -34.398   8.796  28.546  0.00  0.00    -0.346 N 
ATOM     10  C7  non d ame     -35.520   8.122  29.151  0.00  0.00     0.240 C 
ATOM     11  O3  non d ame     -36.546   8.069  28.589  0.00  0.00    -0.271 OA
ATOM     12  H10 non d ame     -33.520   8.835  29.043  0.00  0.00     0.163 HD
BRANCH  10  13
ATOM     13  C6  non d ame     -35.363   7.469  30.559  0.00  0.00     0.086 C 
ATOM     14  H6  non d ame     -36.275   6.980  30.901  0.00  0.00     0.086 H 
BRANCH  13  15
ATOM     15  N2  non d ame     -34.340   6.438  30.489  0.00  0.00    -0.343 N 
ATOM     16  C5  non d ame     -34.409   5.291  31.397  0.00  0.00     0.273 C 
ATOM     17  O2  non d ame     -35.289   5.208  32.181  0.00  0.00    -0.266 OA
ATOM     18  H5  non d ame     -33.590   6.519  29.817  0.00  0.00     0.163 HD
BRANCH  16  19
ATOM     19  C4  non d ame     -33.335   4.194  31.333  0.00  0.00     0.154 A 
ATOM     20  C1  non d ame     -32.887   3.359  32.405  0.00  0.00    -0.017 A 
ATOM     21  C2  non d ame     -31.901   2.527  31.831  0.00  0.00     0.077 A 
ATOM     22  H1  non d ame     -33.226   3.357  33.442  0.00  0.00     0.091 H 
ATOM     23  O1  non d ame     -31.802   2.853  30.575  0.00  0.00    -0.218 OA
ATOM     24  N1  non d ame     -32.629   3.823  30.261  0.00  0.00    -0.123 NA
BRANCH  21  25
ATOM     25  C3  non d ame     -31.102   1.447  32.549  0.00  0.00    -0.029 C 
ATOM     26  H2  non d ame     -30.622   1.875  33.429  0.00  0.00     0.036 H 
ATOM     27  H3  non d ame     -31.771   0.644  32.855  0.00  0.00     0.036 H 
ATOM     28  H4  non d ame     -30.341   1.050  31.877  0.00  0.00     0.036 H 
ENDBRANCH  21  25
ENDBRANCH  16  19
ENDBRANCH  13  15
BRANCH  13  29
ATOM     29  C8  non d ame     -34.968   8.521  31.563  0.00  0.00    -0.049 C 
ATOM     30  H7  non d ame     -34.090   9.057  31.202  0.00  0.00     0.030 H 
ATOM     31  H8  non d ame     -35.792   9.223  31.697  0.00  0.00     0.030 H 
ATOM     32  H9  non d ame     -34.738   8.046  32.517  0.00  0.00     0.030 H 
ENDBRANCH  13  29
ENDBRANCH  10  13
ENDBRANCH   7   9
BRANCH   7  33
ATOM     33  C11 non d ame     -34.620  10.960  27.384  0.00  0.00    -0.033 C 
ATOM     34  H12 non d ame     -34.239  11.406  26.465  0.00  0.00     0.042 H 
BRANCH  33  35
ATOM     35  C12 non d ame     -36.094  11.439  27.561  0.00  0.00    -0.071 C 
ATOM     36  H13 non d ame     -36.255  11.747  28.594  0.00  0.00     0.028 H 
ATOM     37  H14 non d ame     -36.285  12.281  26.896  0.00  0.00     0.028 H 
ATOM     38  H15 non d ame     -36.773  10.621  27.317  0.00  0.00     0.028 H 
ENDBRANCH  33  35
BRANCH  33  39
ATOM     39  C13 non d ame     -33.720  11.448  28.565  0.00  0.00    -0.071 C 
ATOM     40  H16 non d ame     -33.489  12.505  28.434  0.00  0.00     0.028 H 
ATOM     41  H17 non d ame     -34.250  11.305  29.508  0.00  0.00     0.028 H 
ATOM     42  H18 non d ame     -32.795  10.872  28.579  0.00  0.00     0.028 H 
ENDBRANCH  33  39
ENDBRANCH   7  33
ENDBRANCH   4   7
ENDBRANCH   1   3
BRANCH   1  43
ATOM     43  C15 non d ame     -31.074  10.592  24.164  0.00  0.00     0.240 C 
ATOM     44  O5  non d ame     -29.911  10.424  23.983  0.00  0.00    -0.271 OA
ATOM     45  N6  non d ame     -31.601  11.972  24.362  0.00  0.00    -0.355 N 
ATOM     46  H46 non d ame     -32.588  12.128  24.512  0.00  0.00     0.162 HD
BRANCH  45  47
ATOM     47  C20 non d ame     -30.672  13.122  24.340  0.00  0.00     0.013 C 
ATOM     48  H30 non d ame     -29.776  12.840  24.892  0.00  0.00     0.072 H 
BRANCH  47  49
ATOM     49  C21 non d ame     -31.332  14.312  24.999  0.00  0.00    -0.038 C 
ATOM     50  H31 non d ame     -30.517  14.944  25.351  0.00  0.00     0.036 H 
ATOM     51  H32 non d ame     -32.044  14.696  24.268  0.00  0.00     0.036 H 
BRANCH  49  52
ATOM     52  C22 non d ame     -32.154  13.925  26.248  0.00  0.00     0.018 C 
ATOM     53  H33 non d ame     -33.108  14.441  26.145  0.00  0.00     0.048 H 
ATOM     54  H34 non d ame     -32.126  12.836  26.294  0.00  0.00     0.048 H 
BRANCH  52  55
ATOM     55  C23 non d ame     -31.538  14.426  27.584  0.00  0.00     0.259 C 
ATOM     56  O7  non d ame     -30.558  13.918  28.024  0.00  0.00    -0.265 OA
BRANCH  55  57
ATOM     57  O8  non d ame     -32.165  15.494  28.283  0.00  0.00    -0.317 OA
BRANCH  57  58
ATOM     58  C29 non d ame     -33.404  15.919  27.707  0.00  0.00     0.052 C 
ATOM     59  H47 non d ame     -33.550  15.293  26.827  0.00  0.00     0.082 H 
ATOM     60  H48 non d ame     -34.130  15.895  28.519  0.00  0.00     0.082 H 
BRANCH  58  61
ATOM     61  C35 non d ame     -33.236  17.390  27.242  0.00  0.00    -0.034 A 
ATOM     62  C30 non d ame     -32.713  18.341  28.112  0.00  0.00    -0.075 A 
ATOM     63  C31 non d ame     -32.562  19.662  27.694  0.00  0.00    -0.082 A 
ATOM     64  H49 non d ame     -32.421  18.051  29.122  0.00  0.00     0.084 H 
ATOM     65  C32 non d ame     -32.940  20.032  26.401  0.00  0.00    -0.083 A 
ATOM     66  H50 non d ame     -32.150  20.405  28.378  0.00  0.00     0.083 H 
ATOM     67  C33 non d ame     -33.465  19.081  25.537  0.00  0.00    -0.082 A 
ATOM     68  H51 non d ame     -32.825  21.063  26.065  0.00  0.00     0.083 H 
ATOM     69  C34 non d ame     -33.615  17.758  25.949  0.00  0.00    -0.075 A 
ATOM     70  H52 non d ame     -33.761  19.373  24.529  0.00  0.00     0.083 H 
ATOM     71  H53 non d ame     -34.027  17.017  25.265  0.00  0.00     0.084 H 
ENDBRANCH  58  61
ENDBRANCH  57  58
ENDBRANCH  55  57
ENDBRANCH  52  55
ENDBRANCH  49  52
ENDBRANCH  47  49
BRANCH  47  72
ATOM     72  C24 non d ame     -30.317  13.472  22.896  0.00  0.00    -0.039 C 
ATOM     73  H35 non d ame     -29.311  13.080  22.741  0.00  0.00     0.036 H 
ATOM     74  H36 non d ame     -31.146  13.097  22.295  0.00  0.00     0.036 H 
BRANCH  72  75
ATOM     75  C25 non d ame     -30.247  15.056  22.670  0.00  0.00    -0.001 C 
ATOM     76  C26 non d ame     -31.265  15.494  21.454  0.00  0.00    -0.035 C 
ATOM     77  C27 non d ame     -30.579  16.248  20.562  0.00  0.00     0.085 C 
ATOM     78  H38 non d ame     -31.556  14.617  20.877  0.00  0.00     0.036 H 
ATOM     79  H39 non d ame     -32.027  16.175  21.832  0.00  0.00     0.036 H 
ATOM     80  N5  non d ame     -29.113  16.093  20.886  0.00  0.00    -0.049 N 
ATOM     81  H40 non d ame     -30.778  15.799  19.588  0.00  0.00     0.075 H 
ATOM     82  H41 non d ame     -30.880  17.277  20.759  0.00  0.00     0.075 H 
ATOM     83  C28 non d ame     -29.051  15.431  22.357  0.00  0.00     0.193 C 
ATOM     84  H42 non d ame     -28.741  15.431  20.220  0.00  0.00     0.280 HD
ATOM     85  H43 non d ame     -28.732  17.027  20.937  0.00  0.00     0.280 HD
ATOM     86  H44 non d ame     -28.800  16.038  23.227  0.00  0.00     0.129 H 
ATOM     87  H37 non d ame     -30.324  15.611  23.605  0.00  0.00     0.046 H 
BRANCH  83  88
ATOM     88  O6  non d ame     -28.125  14.344  22.370  0.00  0.00    -0.369 OA
ATOM     89  H45 non d ame     -27.662  14.328  23.211  0.00  0.00     0.212 HD
ENDBRANCH  83  88
ENDBRANCH  72  75
ENDBRANCH  47  72
ENDBRANCH  45  47
ENDBRANCH   1  43
BRANCH   1  90
ATOM     90  C16 non d ame     -32.520   9.078  22.772  0.00  0.00    -0.035 C 
ATOM     91  H21 non d ame     -33.544   9.447  22.734  0.00  0.00     0.037 H 
ATOM     92  H22 non d ame     -31.762   9.505  22.114  0.00  0.00     0.037 H 
BRANCH  90  93
ATOM     93  C17 non d ame     -32.587   7.554  22.437  0.00  0.00    -0.059 C 
ATOM     94  H23 non d ame     -33.523   7.168  22.841  0.00  0.00     0.038 H 
BRANCH  93  95
ATOM     95  C18 non d ame     -32.587   7.288  20.897  0.00  0.00    -0.073 C 
ATOM     96  H24 non d ame     -33.474   7.737  20.451  0.00  0.00     0.028 H 
ATOM     97  H25 non d ame     -31.695   7.729  20.452  0.00  0.00     0.028 H 
ATOM     98  H26 non d ame     -32.591   6.214  20.714  0.00  0.00     0.028 H 
ENDBRANCH  93  95
BRANCH  93  99
ATOM     99  C19 non d ame     -31.448   6.793  23.121  0.00  0.00    -0.073 C 
ATOM    100  H27 non d ame     -30.727   7.504  23.525  0.00  0.00     0.028 H 
ATOM    101  H28 non d ame     -31.852   6.185  23.931  0.00  0.00     0.028 H 
ATOM    102  H29 non d ame     -30.955   6.148  22.395  0.00  0.00     0.028 H 
ENDBRANCH  93  99
ENDBRANCH  90  93
ENDBRANCH   1  90
TORSDOF 26
ENDMDL
MODEL 15
REMARK VINA RESULT:      -7.0      3.306      7.317
REMARK  26 active torsions:
REMARK  status: ('A' for Active; 'I' for Inactive)
REMARK    1  A    between atoms: C2_2  and  C3_3 
REMARK    2  A    between atoms: C4_6  and  C5_7 
REMARK       I    between atoms: C5_7  and  N2_9 
REMARK    3  A    between atoms: N2_9  and  C6_10 
REMARK    4  A    between atoms: C6_10  and  C7_11 
REMARK    5  A    between atoms: C6_10  and  C8_13 
REMARK       I    between atoms: C7_11  and  N3_14 
REMARK    6  A    between atoms: N3_14  and  C9_15 
REMARK    7  A    between atoms: C9_15  and  C10_16 
REMARK    8  A    between atoms: C9_15  and  C11_18 
REMARK       I    between atoms: C10_16  and  N4_21 
REMARK    9  A    between atoms: C11_18  and  C12_19 
REMARK   10  A    between atoms: C11_18  and  C13_20 
REMARK   11  A    between atoms: N4_21  and  C14_22 
REMARK   12  A    between atoms: C14_22  and  C15_23 
REMARK   13  A    between atoms: C14_22  and  C16_25 
REMARK       I    between atoms: C15_23  and  N6_40 
REMARK   14  A    between atoms: C16_25  and  C17_26 
REMARK   15  A    between atoms: C17_26  and  C18_27 
REMARK   16  A    between atoms: C17_26  and  C19_28 
REMARK   17  A    between atoms: C20_29  and  C21_30 
REMARK   18  A    between atoms: C20_29  and  C24_33 
REMARK   19  A    between atoms: C20_29  and  N6_40 
REMARK   20  A    between atoms: C21_30  and  C22_31 
REMARK   21  A    between atoms: C22_31  and  C23_32 
REMARK   22  A    between atoms: C23_32  and  O8_43 
REMARK   23  A    between atoms: C24_33  and  C25_34 
REMARK   24  A    between atoms: C28_38  and  O6_39 
REMARK   25  A    between atoms: C29_42  and  O8_43 
REMARK   26  A    between atoms: C29_42  and  C35_49 
ROOT
ATOM      1  C14 non d ame     -31.593  12.054  25.705  0.00  0.00     0.089 C 
ATOM      2  H20 non d ame     -30.510  11.964  25.797  0.00  0.00     0.087 H 
ENDROOT
BRANCH   1   3
ATOM      3  N4  non d ame     -32.101  10.774  25.236  0.00  0.00    -0.346 N 
ATOM      4  C10 non d ame     -31.297   9.945  24.266  0.00  0.00     0.241 C 
ATOM      5  O4  non d ame     -30.244  10.330  23.876  0.00  0.00    -0.271 OA
ATOM      6  H19 non d ame     -33.000  10.466  25.578  0.00  0.00     0.163 HD
BRANCH   4   7
ATOM      7  C9  non d ame     -31.836   8.620  23.795  0.00  0.00     0.092 C 
ATOM      8  H11 non d ame     -31.090   7.845  23.973  0.00  0.00     0.088 H 
BRANCH   7   9
ATOM      9  N3  non d ame     -33.023   8.267  24.580  0.00  0.00    -0.346 N 
ATOM     10  C7  non d ame     -32.978   7.150  25.491  0.00  0.00     0.240 C 
ATOM     11  O3  non d ame     -31.996   6.522  25.603  0.00  0.00    -0.271 OA
ATOM     12  H10 non d ame     -33.878   8.798  24.492  0.00  0.00     0.163 HD
BRANCH  10  13
ATOM     13  C6  non d ame     -34.246   6.777  26.321  0.00  0.00     0.086 C 
ATOM     14  H6  non d ame     -34.787   5.927  25.906  0.00  0.00     0.086 H 
BRANCH  13  15
ATOM     15  N2  non d ame     -33.835   6.395  27.662  0.00  0.00    -0.343 N 
ATOM     16  C5  non d ame     -34.344   5.152  28.245  0.00  0.00     0.273 C 
ATOM     17  O2  non d ame     -35.086   4.468  27.629  0.00  0.00    -0.266 OA
ATOM     18  H5  non d ame     -33.203   6.987  28.183  0.00  0.00     0.163 HD
BRANCH  16  19
ATOM     19  C4  non d ame     -33.917   4.735  29.661  0.00  0.00     0.154 A 
ATOM     20  C1  non d ame     -32.873   3.823  30.016  0.00  0.00    -0.017 A 
ATOM     21  C2  non d ame     -32.887   3.786  31.428  0.00  0.00     0.077 A 
ATOM     22  H1  non d ame     -32.207   3.272  29.351  0.00  0.00     0.091 H 
ATOM     23  O1  non d ame     -33.831   4.587  31.827  0.00  0.00    -0.218 OA
ATOM     24  N1  non d ame     -34.447   5.152  30.815  0.00  0.00    -0.123 NA
BRANCH  21  25
ATOM     25  C3  non d ame     -31.966   2.962  32.318  0.00  0.00    -0.029 C 
ATOM     26  H2  non d ame     -32.249   1.911  32.260  0.00  0.00     0.036 H 
ATOM     27  H3  non d ame     -30.936   3.079  31.982  0.00  0.00     0.036 H 
ATOM     28  H4  non d ame     -32.053   3.305  33.349  0.00  0.00     0.036 H 
ENDBRANCH  21  25
ENDBRANCH  16  19
ENDBRANCH  13  15
BRANCH  13  29
ATOM     29  C8  non d ame     -35.175   7.963  26.384  0.00  0.00    -0.049 C 
ATOM     30  H7  non d ame     -36.202   7.627  26.236  0.00  0.00     0.030 H 
ATOM     31  H8  non d ame     -35.086   8.443  27.358  0.00  0.00     0.030 H 
ATOM     32  H9  non d ame     -34.910   8.674  25.601  0.00  0.00     0.030 H 
ENDBRANCH  13  29
ENDBRANCH  10  13
ENDBRANCH   7   9
BRANCH   7  33
ATOM     33  C11 non d ame     -32.224   8.723  22.291  0.00  0.00    -0.033 C 
ATOM     34  H12 non d ame     -31.947   9.720  21.948  0.00  0.00     0.042 H 
BRANCH  33  35
ATOM     35  C12 non d ame     -31.432   7.693  21.427  0.00  0.00    -0.071 C 
ATOM     36  H13 non d ame     -31.477   6.712  21.900  0.00  0.00     0.028 H 
ATOM     37  H14 non d ame     -31.873   7.638  20.432  0.00  0.00     0.028 H 
ATOM     38  H15 non d ame     -30.392   8.010  21.347  0.00  0.00     0.028 H 
ENDBRANCH  33  35
BRANCH  33  39
ATOM     39  C13 non d ame     -33.766   8.557  22.098  0.00  0.00    -0.071 C 
ATOM     40  H16 non d ame     -33.969   8.192  21.092  0.00  0.00     0.028 H 
ATOM     41  H17 non d ame     -34.148   7.843  22.829  0.00  0.00     0.028 H 
ATOM     42  H18 non d ame     -34.256   9.520  22.242  0.00  0.00     0.028 H 
ENDBRANCH  33  39
ENDBRANCH   7  33
ENDBRANCH   4   7
ENDBRANCH   1   3
BRANCH   1  43
ATOM     43  C15 non d ame     -32.272  12.388  27.065  0.00  0.00     0.240 C 
ATOM     44  O5  non d ame     -33.324  12.940  27.080  0.00  0.00    -0.271 OA
ATOM     45  N6  non d ame     -31.613  12.011  28.348  0.00  0.00    -0.355 N 
ATOM     46  H46 non d ame     -30.722  11.538  28.348  0.00  0.00     0.162 HD
BRANCH  45  47
ATOM     47  C20 non d ame     -32.272  12.334  29.632  0.00  0.00     0.013 C 
ATOM     48  H30 non d ame     -33.223  12.818  29.409  0.00  0.00     0.072 H 
BRANCH  47  49
ATOM     49  C21 non d ame     -31.389  13.271  30.425  0.00  0.00    -0.038 C 
ATOM     50  H31 non d ame     -32.031  13.699  31.196  0.00  0.00     0.036 H 
ATOM     51  H32 non d ame     -30.515  12.684  30.707  0.00  0.00     0.036 H 
BRANCH  49  52
ATOM     52  C22 non d ame     -30.866  14.457  29.585  0.00  0.00     0.018 C 
ATOM     53  H33 non d ame     -29.898  14.716  30.011  0.00  0.00     0.048 H 
ATOM     54  H34 non d ame     -30.936  14.135  28.545  0.00  0.00     0.048 H 
BRANCH  52  55
ATOM     55  C23 non d ame     -31.740  15.737  29.697  0.00  0.00     0.259 C 
ATOM     56  O7  non d ame     -31.390  16.649  30.374  0.00  0.00    -0.265 OA
BRANCH  55  57
ATOM     57  O8  non d ame     -32.972  15.804  28.989  0.00  0.00    -0.317 OA
BRANCH  57  58
ATOM     58  C29 non d ame     -32.831  16.139  27.605  0.00  0.00     0.052 C 
ATOM     59  H47 non d ame     -31.761  16.106  27.402  0.00  0.00     0.082 H 
ATOM     60  H48 non d ame     -33.508  15.473  27.071  0.00  0.00     0.082 H 
BRANCH  58  61
ATOM     61  C35 non d ame     -33.323  17.598  27.413  0.00  0.00    -0.034 A 
ATOM     62  C30 non d ame     -34.626  17.945  27.757  0.00  0.00    -0.075 A 
ATOM     63  C31 non d ame     -35.068  19.256  27.583  0.00  0.00    -0.082 A 
ATOM     64  H49 non d ame     -35.300  17.190  28.161  0.00  0.00     0.084 H 
ATOM     65  C32 non d ame     -34.203  20.221  27.062  0.00  0.00    -0.083 A 
ATOM     66  H50 non d ame     -36.089  19.525  27.855  0.00  0.00     0.083 H 
ATOM     67  C33 non d ame     -32.905  19.869  26.717  0.00  0.00    -0.082 A 
ATOM     68  H51 non d ame     -34.540  21.248  26.924  0.00  0.00     0.083 H 
ATOM     69  C34 non d ame     -32.458  18.561  26.891  0.00  0.00    -0.075 A 
ATOM     70  H52 non d ame     -32.233  20.624  26.308  0.00  0.00     0.083 H 
ATOM     71  H53 non d ame     -31.436  18.293  26.619  0.00  0.00     0.084 H 
ENDBRANCH  58  61
ENDBRANCH  57  58
ENDBRANCH  55  57
ENDBRANCH  52  55
ENDBRANCH  49  52
ENDBRANCH  47  49
BRANCH  47  72
ATOM     72  C24 non d ame     -32.503  11.053  30.431  0.00  0.00    -0.039 C 
ATOM     73  H35 non d ame     -31.879  10.297  29.954  0.00  0.00     0.036 H 
ATOM     74  H36 non d ame     -32.329  11.325  31.472  0.00  0.00     0.036 H 
BRANCH  72  75
ATOM     75  C25 non d ame     -34.021  10.551  30.320  0.00  0.00    -0.001 C 
ATOM     76  C26 non d ame     -34.581  10.130  31.808  0.00  0.00    -0.035 C 
ATOM     77  C27 non d ame     -35.117   8.889  31.737  0.00  0.00     0.085 C 
ATOM     78  H38 non d ame     -33.748  10.009  32.500  0.00  0.00     0.036 H 
ATOM     79  H39 non d ame     -35.429  10.759  32.080  0.00  0.00     0.036 H 
ATOM     80  N5  non d ame     -34.682   8.294  30.419  0.00  0.00    -0.049 N 
ATOM     81  H40 non d ame     -34.658   8.326  32.550  0.00  0.00     0.075 H 
ATOM     82  H41 non d ame     -36.196   9.038  31.719  0.00  0.00     0.075 H 
ATOM     83  C28 non d ame     -34.118   9.526  29.541  0.00  0.00     0.193 C 
ATOM     84  H42 non d ame     -33.916   7.670  30.626  0.00  0.00     0.280 HD
ATOM     85  H43 non d ame     -35.518   7.940  29.976  0.00  0.00     0.280 HD
ATOM     86  H44 non d ame     -34.715   9.949  28.732  0.00  0.00     0.129 H 
ATOM     87  H37 non d ame     -34.638  11.230  29.732  0.00  0.00     0.046 H 
BRANCH  83  88
ATOM     88  O6  non d ame     -32.865   9.177  28.950  0.00  0.00    -0.369 OA
ATOM     89  H45 non d ame     -32.250   8.911  29.637  0.00  0.00     0.212 HD
ENDBRANCH  83  88
ENDBRANCH  72  75
ENDBRANCH  47  72
ENDBRANCH  45  47
ENDBRANCH   1  43
BRANCH   1  90
ATOM     90  C16 non d ame     -31.936  13.129  24.686  0.00  0.00    -0.035 C 
ATOM     91  H21 non d ame     -32.220  12.589  23.783  0.00  0.00     0.037 H 
ATOM     92  H22 non d ame     -32.656  13.779  25.182  0.00  0.00     0.037 H 
BRANCH  90  93
ATOM     93  C17 non d ame     -30.722  14.032  24.296  0.00  0.00    -0.059 C 
ATOM     94  H23 non d ame     -29.908  13.808  24.984  0.00  0.00     0.038 H 
BRANCH  93  95
ATOM     95  C18 non d ame     -30.214  13.743  22.847  0.00  0.00    -0.073 C 
ATOM     96  H24 non d ame     -29.451  14.472  22.577  0.00  0.00     0.028 H 
ATOM     97  H25 non d ame     -29.790  12.741  22.804  0.00  0.00     0.028 H 
ATOM     98  H26 non d ame     -31.048  13.815  22.149  0.00  0.00     0.028 H 
ENDBRANCH  93  95
BRANCH  93  99
ATOM     99  C19 non d ame     -31.067  15.514  24.467  0.00  0.00    -0.073 C 
ATOM    100  H27 non d ame     -31.539  15.668  25.437  0.00  0.00     0.028 H 
ATOM    101  H28 non d ame     -30.155  16.108  24.409  0.00  0.00     0.028 H 
ATOM    102  H29 non d ame     -31.751  15.821  23.676  0.00  0.00     0.028 H 
ENDBRANCH  93  99
ENDBRANCH  90  93
ENDBRANCH   1  90
TORSDOF 26
ENDMDL
MODEL 16
REMARK VINA RESULT:      -7.0      2.488      6.892
REMARK  26 active torsions:
REMARK  status: ('A' for Active; 'I' for Inactive)
REMARK    1  A    between atoms: C2_2  and  C3_3 
REMARK    2  A    between atoms: C4_6  and  C5_7 
REMARK       I    between atoms: C5_7  and  N2_9 
REMARK    3  A    between atoms: N2_9  and  C6_10 
REMARK    4  A    between atoms: C6_10  and  C7_11 
REMARK    5  A    between atoms: C6_10  and  C8_13 
REMARK       I    between atoms: C7_11  and  N3_14 
REMARK    6  A    between atoms: N3_14  and  C9_15 
REMARK    7  A    between atoms: C9_15  and  C10_16 
REMARK    8  A    between atoms: C9_15  and  C11_18 
REMARK       I    between atoms: C10_16  and  N4_21 
REMARK    9  A    between atoms: C11_18  and  C12_19 
REMARK   10  A    between atoms: C11_18  and  C13_20 
REMARK   11  A    between atoms: N4_21  and  C14_22 
REMARK   12  A    between atoms: C14_22  and  C15_23 
REMARK   13  A    between atoms: C14_22  and  C16_25 
REMARK       I    between atoms: C15_23  and  N6_40 
REMARK   14  A    between atoms: C16_25  and  C17_26 
REMARK   15  A    between atoms: C17_26  and  C18_27 
REMARK   16  A    between atoms: C17_26  and  C19_28 
REMARK   17  A    between atoms: C20_29  and  C21_30 
REMARK   18  A    between atoms: C20_29  and  C24_33 
REMARK   19  A    between atoms: C20_29  and  N6_40 
REMARK   20  A    between atoms: C21_30  and  C22_31 
REMARK   21  A    between atoms: C22_31  and  C23_32 
REMARK   22  A    between atoms: C23_32  and  O8_43 
REMARK   23  A    between atoms: C24_33  and  C25_34 
REMARK   24  A    between atoms: C28_38  and  O6_39 
REMARK   25  A    between atoms: C29_42  and  O8_43 
REMARK   26  A    between atoms: C29_42  and  C35_49 
ROOT
ATOM      1  C14 non d ame     -32.229   9.585  24.575  0.00  0.00     0.089 C 
ATOM      2  H20 non d ame     -31.786   8.722  25.073  0.00  0.00     0.087 H 
ENDROOT
BRANCH   1   3
ATOM      3  N4  non d ame     -33.584   9.736  25.083  0.00  0.00    -0.346 N 
ATOM      4  C10 non d ame     -34.375   8.527  25.515  0.00  0.00     0.241 C 
ATOM      5  O4  non d ame     -33.901   7.442  25.441  0.00  0.00    -0.271 OA
ATOM      6  H19 non d ame     -33.971  10.668  25.135  0.00  0.00     0.163 HD
BRANCH   4   7
ATOM      7  C9  non d ame     -35.775   8.703  26.043  0.00  0.00     0.092 C 
ATOM      8  H11 non d ame     -36.196   7.725  26.274  0.00  0.00     0.088 H 
BRANCH   7   9
ATOM      9  N3  non d ame     -35.733   9.464  27.295  0.00  0.00    -0.346 N 
ATOM     10  C7  non d ame     -36.145   8.843  28.530  0.00  0.00     0.240 C 
ATOM     11  O3  non d ame     -36.515   7.732  28.534  0.00  0.00    -0.271 OA
ATOM     12  H10 non d ame     -35.418  10.423  27.307  0.00  0.00     0.163 HD
BRANCH  10  13
ATOM     13  C6  non d ame     -36.101   9.659  29.859  0.00  0.00     0.086 C 
ATOM     14  H6  non d ame     -35.903   9.035  30.730  0.00  0.00     0.086 H 
BRANCH  13  15
ATOM     15  N2  non d ame     -35.017  10.624  29.784  0.00  0.00    -0.343 N 
ATOM     16  C5  non d ame     -33.842  10.458  30.642  0.00  0.00     0.273 C 
ATOM     17  O2  non d ame     -33.780   9.546  31.391  0.00  0.00    -0.266 OA
ATOM     18  H5  non d ame     -35.080  11.402  29.142  0.00  0.00     0.163 HD
BRANCH  16  19
ATOM     19  C4  non d ame     -32.688  11.470  30.572  0.00  0.00     0.154 A 
ATOM     20  C1  non d ame     -32.703  12.756  29.944  0.00  0.00    -0.017 A 
ATOM     21  C2  non d ame     -31.409  13.281  30.161  0.00  0.00     0.077 A 
ATOM     22  H1  non d ame     -33.526  13.235  29.413  0.00  0.00     0.091 H 
ATOM     23  O1  non d ame     -30.739  12.393  30.836  0.00  0.00    -0.218 OA
ATOM     24  N1  non d ame     -31.464  11.328  31.087  0.00  0.00    -0.123 NA
BRANCH  21  25
ATOM     25  C3  non d ame     -30.896  14.636  29.692  0.00  0.00    -0.029 C 
ATOM     26  H2  non d ame     -29.810  14.664  29.781  0.00  0.00     0.036 H 
ATOM     27  H3  non d ame     -31.179  14.791  28.651  0.00  0.00     0.036 H 
ATOM     28  H4  non d ame     -31.331  15.422  30.308  0.00  0.00     0.036 H 
ENDBRANCH  21  25
ENDBRANCH  16  19
ENDBRANCH  13  15
BRANCH  13  29
ATOM     29  C8  non d ame     -37.415  10.372  30.058  0.00  0.00    -0.049 C 
ATOM     30  H7  non d ame     -37.737  10.257  31.093  0.00  0.00     0.030 H 
ATOM     31  H8  non d ame     -37.291  11.430  29.831  0.00  0.00     0.030 H 
ATOM     32  H9  non d ame     -38.165   9.942  29.394  0.00  0.00     0.030 H 
ENDBRANCH  13  29
ENDBRANCH  10  13
ENDBRANCH   7   9
BRANCH   7  33
ATOM     33  C11 non d ame     -36.630   9.477  24.997  0.00  0.00    -0.033 C 
ATOM     34  H12 non d ame     -36.126  10.421  24.794  0.00  0.00     0.042 H 
BRANCH  33  35
ATOM     35  C12 non d ame     -36.724   8.696  23.649  0.00  0.00    -0.071 C 
ATOM     36  H13 non d ame     -35.750   8.700  23.159  0.00  0.00     0.028 H 
ATOM     37  H14 non d ame     -37.028   7.668  23.846  0.00  0.00     0.028 H 
ATOM     38  H15 non d ame     -37.458   9.175  23.002  0.00  0.00     0.028 H 
ENDBRANCH  33  35
BRANCH  33  39
ATOM     39  C13 non d ame     -38.050   9.799  25.565  0.00  0.00    -0.071 C 
ATOM     40  H16 non d ame     -38.182   9.293  26.522  0.00  0.00     0.028 H 
ATOM     41  H17 non d ame     -38.150  10.876  25.705  0.00  0.00     0.028 H 
ATOM     42  H18 non d ame     -38.809   9.453  24.863  0.00  0.00     0.028 H 
ENDBRANCH  33  39
ENDBRANCH   7  33
ENDBRANCH   4   7
ENDBRANCH   1   3
BRANCH   1  43
ATOM     43  C15 non d ame     -31.443  10.896  24.863  0.00  0.00     0.240 C 
ATOM     44  O5  non d ame     -30.865  11.024  25.894  0.00  0.00    -0.271 OA
ATOM     45  N6  non d ame     -31.403  11.988  23.849  0.00  0.00    -0.355 N 
ATOM     46  H46 non d ame     -31.886  11.889  22.968  0.00  0.00     0.162 HD
BRANCH  45  47
ATOM     47  C20 non d ame     -30.650  13.228  24.138  0.00  0.00     0.013 C 
ATOM     48  H30 non d ame     -29.972  13.024  24.967  0.00  0.00     0.072 H 
BRANCH  47  49
ATOM     49  C21 non d ame     -31.619  14.324  24.520  0.00  0.00    -0.038 C 
ATOM     50  H31 non d ame     -31.176  15.250  24.153  0.00  0.00     0.036 H 
ATOM     51  H32 non d ame     -32.591  13.999  24.149  0.00  0.00     0.036 H 
BRANCH  49  52
ATOM     52  C22 non d ame     -31.767  14.487  26.048  0.00  0.00     0.018 C 
ATOM     53  H33 non d ame     -31.106  13.742  26.490  0.00  0.00     0.048 H 
ATOM     54  H34 non d ame     -31.606  15.546  26.249  0.00  0.00     0.048 H 
BRANCH  52  55
ATOM     55  C23 non d ame     -33.191  14.161  26.578  0.00  0.00     0.259 C 
ATOM     56  O7  non d ame     -33.713  13.128  26.309  0.00  0.00    -0.265 OA
BRANCH  55  57
ATOM     57  O8  non d ame     -33.873  15.120  27.378  0.00  0.00    -0.317 OA
BRANCH  57  58
ATOM     58  C29 non d ame     -34.608  16.089  26.627  0.00  0.00     0.052 C 
ATOM     59  H47 non d ame     -34.522  15.781  25.585  0.00  0.00     0.082 H 
ATOM     60  H48 non d ame     -35.589  16.146  27.099  0.00  0.00     0.082 H 
BRANCH  58  61
ATOM     61  C35 non d ame     -33.902  17.461  26.794  0.00  0.00    -0.034 A 
ATOM     62  C30 non d ame     -33.220  17.755  27.970  0.00  0.00    -0.075 A 
ATOM     63  C31 non d ame     -32.586  18.987  28.121  0.00  0.00    -0.082 A 
ATOM     64  H49 non d ame     -33.183  17.020  28.775  0.00  0.00     0.084 H 
ATOM     65  C32 non d ame     -32.638  19.929  27.090  0.00  0.00    -0.083 A 
ATOM     66  H50 non d ame     -32.051  19.214  29.044  0.00  0.00     0.083 H 
ATOM     67  C33 non d ame     -33.323  19.633  25.919  0.00  0.00    -0.082 A 
ATOM     68  H51 non d ame     -32.145  20.895  27.199  0.00  0.00     0.083 H 
ATOM     69  C34 non d ame     -33.956  18.402  25.764  0.00  0.00    -0.075 A 
ATOM     70  H52 non d ame     -33.364  20.371  25.117  0.00  0.00     0.083 H 
ATOM     71  H53 non d ame     -34.491  18.176  24.841  0.00  0.00     0.084 H 
ENDBRANCH  58  61
ENDBRANCH  57  58
ENDBRANCH  55  57
ENDBRANCH  52  55
ENDBRANCH  49  52
ENDBRANCH  47  49
BRANCH  47  72
ATOM     72  C24 non d ame     -29.861  13.653  22.901  0.00  0.00    -0.039 C 
ATOM     73  H35 non d ame     -28.844  13.828  23.251  0.00  0.00     0.036 H 
ATOM     74  H36 non d ame     -30.055  12.882  22.154  0.00  0.00     0.036 H 
BRANCH  72  75
ATOM     75  C25 non d ame     -30.400  15.038  22.301  0.00  0.00    -0.001 C 
ATOM     76  C26 non d ame     -31.087  14.781  20.829  0.00  0.00    -0.035 C 
ATOM     77  C27 non d ame     -30.549  15.649  19.940  0.00  0.00     0.085 C 
ATOM     78  H38 non d ame     -30.792  13.805  20.444  0.00  0.00     0.036 H 
ATOM     79  H39 non d ame     -32.140  15.061  20.854  0.00  0.00     0.036 H 
ATOM     80  N5  non d ame     -29.328  16.250  20.592  0.00  0.00    -0.049 N 
ATOM     81  H40 non d ame     -30.236  15.040  19.092  0.00  0.00     0.075 H 
ATOM     82  H41 non d ame     -31.298  16.428  19.803  0.00  0.00     0.075 H 
ATOM     83  C28 non d ame     -29.441  15.891  22.162  0.00  0.00     0.193 C 
ATOM     84  H42 non d ame     -28.530  15.765  20.208  0.00  0.00     0.280 HD
ATOM     85  H43 non d ame     -29.410  17.251  20.484  0.00  0.00     0.280 HD
ATOM     86  H44 non d ame     -29.746  16.650  22.883  0.00  0.00     0.129 H 
ATOM     87  H37 non d ame     -30.983  15.603  23.028  0.00  0.00     0.046 H 
BRANCH  83  88
ATOM     88  O6  non d ame     -28.195  15.385  22.644  0.00  0.00    -0.369 OA
ATOM     89  H45 non d ame     -27.603  15.235  21.903  0.00  0.00     0.212 HD
ENDBRANCH  83  88
ENDBRANCH  72  75
ENDBRANCH  47  72
ENDBRANCH  45  47
ENDBRANCH   1  43
BRANCH   1  90
ATOM     90  C16 non d ame     -32.285   9.341  23.075  0.00  0.00    -0.035 C 
ATOM     91  H21 non d ame     -33.265   8.902  22.891  0.00  0.00     0.037 H 
ATOM     92  H22 non d ame     -32.021  10.295  22.618  0.00  0.00     0.037 H 
BRANCH  90  93
ATOM     93  C17 non d ame     -31.234   8.303  22.569  0.00  0.00    -0.059 C 
ATOM     94  H23 non d ame     -30.931   7.696  23.423  0.00  0.00     0.038 H 
BRANCH  93  95
ATOM     95  C18 non d ame     -31.827   7.343  21.488  0.00  0.00    -0.073 C 
ATOM     96  H24 non d ame     -32.912   7.312  21.586  0.00  0.00     0.028 H 
ATOM     97  H25 non d ame     -31.562   7.706  20.496  0.00  0.00     0.028 H 
ATOM     98  H26 non d ame     -31.420   6.342  21.630  0.00  0.00     0.028 H 
ENDBRANCH  93  95
BRANCH  93  99
ATOM     99  C19 non d ame     -29.980   9.006  22.044  0.00  0.00    -0.073 C 
ATOM    100  H27 non d ame     -30.269   9.795  21.349  0.00  0.00     0.028 H 
ATOM    101  H28 non d ame     -29.430   9.442  22.879  0.00  0.00     0.028 H 
ATOM    102  H29 non d ame     -29.346   8.283  21.531  0.00  0.00     0.028 H 
ENDBRANCH  93  99
ENDBRANCH  90  93
ENDBRANCH   1  90
TORSDOF 26
ENDMDL
MODEL 17
REMARK VINA RESULT:      -7.0      2.287      6.022
REMARK  26 active torsions:
REMARK  status: ('A' for Active; 'I' for Inactive)
REMARK    1  A    between atoms: C2_2  and  C3_3 
REMARK    2  A    between atoms: C4_6  and  C5_7 
REMARK       I    between atoms: C5_7  and  N2_9 
REMARK    3  A    between atoms: N2_9  and  C6_10 
REMARK    4  A    between atoms: C6_10  and  C7_11 
REMARK    5  A    between atoms: C6_10  and  C8_13 
REMARK       I    between atoms: C7_11  and  N3_14 
REMARK    6  A    between atoms: N3_14  and  C9_15 
REMARK    7  A    between atoms: C9_15  and  C10_16 
REMARK    8  A    between atoms: C9_15  and  C11_18 
REMARK       I    between atoms: C10_16  and  N4_21 
REMARK    9  A    between atoms: C11_18  and  C12_19 
REMARK   10  A    between atoms: C11_18  and  C13_20 
REMARK   11  A    between atoms: N4_21  and  C14_22 
REMARK   12  A    between atoms: C14_22  and  C15_23 
REMARK   13  A    between atoms: C14_22  and  C16_25 
REMARK       I    between atoms: C15_23  and  N6_40 
REMARK   14  A    between atoms: C16_25  and  C17_26 
REMARK   15  A    between atoms: C17_26  and  C18_27 
REMARK   16  A    between atoms: C17_26  and  C19_28 
REMARK   17  A    between atoms: C20_29  and  C21_30 
REMARK   18  A    between atoms: C20_29  and  C24_33 
REMARK   19  A    between atoms: C20_29  and  N6_40 
REMARK   20  A    between atoms: C21_30  and  C22_31 
REMARK   21  A    between atoms: C22_31  and  C23_32 
REMARK   22  A    between atoms: C23_32  and  O8_43 
REMARK   23  A    between atoms: C24_33  and  C25_34 
REMARK   24  A    between atoms: C28_38  and  O6_39 
REMARK   25  A    between atoms: C29_42  and  O8_43 
REMARK   26  A    between atoms: C29_42  and  C35_49 
ROOT
ATOM      1  C14 non d ame     -31.245  14.424  24.187  0.00  0.00     0.089 C 
ATOM      2  H20 non d ame     -30.264  14.523  24.652  0.00  0.00     0.087 H 
ENDROOT
BRANCH   1   3
ATOM      3  N4  non d ame     -31.482  13.005  23.962  0.00  0.00    -0.346 N 
ATOM      4  C10 non d ame     -31.267  12.011  25.075  0.00  0.00     0.241 C 
ATOM      5  O4  non d ame     -30.900  12.376  26.143  0.00  0.00    -0.271 OA
ATOM      6  H19 non d ame     -31.792  12.715  23.046  0.00  0.00     0.163 HD
BRANCH   4   7
ATOM      7  C9  non d ame     -31.523  10.548  24.827  0.00  0.00     0.092 C 
ATOM      8  H11 non d ame     -30.866   9.956  25.464  0.00  0.00     0.088 H 
BRANCH   7   9
ATOM      9  N3  non d ame     -32.901  10.221  25.203  0.00  0.00    -0.346 N 
ATOM     10  C7  non d ame     -33.154   9.313  26.295  0.00  0.00     0.240 C 
ATOM     11  O3  non d ame     -32.260   8.835  26.880  0.00  0.00    -0.271 OA
ATOM     12  H10 non d ame     -33.683  10.624  24.707  0.00  0.00     0.163 HD
BRANCH  10  13
ATOM     13  C6  non d ame     -34.623   8.967  26.689  0.00  0.00     0.086 C 
ATOM     14  H6  non d ame     -34.737   8.764  27.754  0.00  0.00     0.086 H 
BRANCH  13  15
ATOM     15  N2  non d ame     -35.473  10.107  26.390  0.00  0.00    -0.343 N 
ATOM     16  C5  non d ame     -35.614  11.180  27.377  0.00  0.00     0.273 C 
ATOM     17  O2  non d ame     -35.043  11.115  28.410  0.00  0.00    -0.266 OA
ATOM     18  H5  non d ame     -35.960  10.154  25.506  0.00  0.00     0.163 HD
BRANCH  16  19
ATOM     19  C4  non d ame     -36.508  12.393  27.073  0.00  0.00     0.154 A 
ATOM     20  C1  non d ame     -36.097  13.661  26.553  0.00  0.00    -0.017 A 
ATOM     21  C2  non d ame     -37.287  14.417  26.458  0.00  0.00     0.077 A 
ATOM     22  H1  non d ame     -35.091  13.983  26.285  0.00  0.00     0.091 H 
ATOM     23  O1  non d ame     -38.260  13.663  26.876  0.00  0.00    -0.218 OA
ATOM     24  N1  non d ame     -37.831  12.477  27.241  0.00  0.00    -0.123 NA
BRANCH  21  25
ATOM     25  C3  non d ame     -37.406  15.851  25.958  0.00  0.00    -0.029 C 
ATOM     26  H2  non d ame     -38.441  16.056  25.686  0.00  0.00     0.036 H 
ATOM     27  H3  non d ame     -37.094  16.537  26.745  0.00  0.00     0.036 H 
ATOM     28  H4  non d ame     -36.767  15.986  25.085  0.00  0.00     0.036 H 
ENDBRANCH  21  25
ENDBRANCH  16  19
ENDBRANCH  13  15
BRANCH  13  29
ATOM     29  C8  non d ame     -35.084   7.761  25.911  0.00  0.00    -0.049 C 
ATOM     30  H7  non d ame     -35.646   8.087  25.036  0.00  0.00     0.030 H 
ATOM     31  H8  non d ame     -34.218   7.182  25.592  0.00  0.00     0.030 H 
ATOM     32  H9  non d ame     -35.723   7.143  26.543  0.00  0.00     0.030 H 
ENDBRANCH  13  29
ENDBRANCH  10  13
ENDBRANCH   7   9
BRANCH   7  33
ATOM     33  C11 non d ame     -31.312  10.234  23.316  0.00  0.00    -0.033 C 
ATOM     34  H12 non d ame     -31.531  11.145  22.758  0.00  0.00     0.042 H 
BRANCH  33  35
ATOM     35  C12 non d ame     -29.831   9.845  23.018  0.00  0.00    -0.071 C 
ATOM     36  H13 non d ame     -29.515   9.061  23.706  0.00  0.00     0.028 H 
ATOM     37  H14 non d ame     -29.750   9.482  21.993  0.00  0.00     0.028 H 
ATOM     38  H15 non d ame     -29.193  10.719  23.146  0.00  0.00     0.028 H 
ENDBRANCH  33  35
BRANCH  33  39
ATOM     39  C13 non d ame     -32.299   9.123  22.833  0.00  0.00    -0.071 C 
ATOM     40  H16 non d ame     -32.764   9.432  21.897  0.00  0.00     0.028 H 
ATOM     41  H17 non d ame     -31.751   8.193  22.677  0.00  0.00     0.028 H 
ATOM     42  H18 non d ame     -33.069   8.967  23.589  0.00  0.00     0.028 H 
ENDBRANCH  33  39
ENDBRANCH   7  33
ENDBRANCH   4   7
ENDBRANCH   1   3
BRANCH   1  43
ATOM     43  C15 non d ame     -32.382  14.978  25.093  0.00  0.00     0.240 C 
ATOM     44  O5  non d ame     -33.476  15.119  24.649  0.00  0.00    -0.271 OA
ATOM     45  N6  non d ame     -32.109  15.326  26.516  0.00  0.00    -0.355 N 
ATOM     46  H46 non d ame     -31.186  15.207  26.906  0.00  0.00     0.162 HD
BRANCH  45  47
ATOM     47  C20 non d ame     -33.201  15.851  27.364  0.00  0.00     0.013 C 
ATOM     48  H30 non d ame     -34.147  15.516  26.939  0.00  0.00     0.072 H 
BRANCH  47  49
ATOM     49  C21 non d ame     -33.145  17.362  27.373  0.00  0.00    -0.038 C 
ATOM     50  H31 non d ame     -32.985  17.645  28.413  0.00  0.00     0.036 H 
ATOM     51  H32 non d ame     -32.410  17.633  26.615  0.00  0.00     0.036 H 
BRANCH  49  52
ATOM     52  C22 non d ame     -34.477  18.014  26.943  0.00  0.00     0.018 C 
ATOM     53  H33 non d ame     -34.779  17.496  26.033  0.00  0.00     0.048 H 
ATOM     54  H34 non d ame     -35.118  17.985  27.824  0.00  0.00     0.048 H 
BRANCH  52  55
ATOM     55  C23 non d ame     -34.345  19.514  26.558  0.00  0.00     0.259 C 
ATOM     56  O7  non d ame     -33.279  19.988  26.336  0.00  0.00    -0.265 OA
BRANCH  55  57
ATOM     57  O8  non d ame     -35.515  20.320  26.486  0.00  0.00    -0.317 OA
BRANCH  57  58
ATOM     58  C29 non d ame     -36.732  19.574  26.392  0.00  0.00     0.052 C 
ATOM     59  H47 non d ame     -36.438  18.525  26.428  0.00  0.00     0.082 H 
ATOM     60  H48 non d ame     -37.388  19.982  27.160  0.00  0.00     0.082 H 
BRANCH  58  61
ATOM     61  C35 non d ame     -37.364  19.859  25.004  0.00  0.00    -0.034 A 
ATOM     62  C30 non d ame     -38.096  21.024  24.798  0.00  0.00    -0.075 A 
ATOM     63  C31 non d ame     -38.664  21.281  23.551  0.00  0.00    -0.082 A 
ATOM     64  H49 non d ame     -38.225  21.736  25.614  0.00  0.00     0.084 H 
ATOM     65  C32 non d ame     -38.499  20.366  22.508  0.00  0.00    -0.083 A 
ATOM     66  H50 non d ame     -39.236  22.196  23.392  0.00  0.00     0.083 H 
ATOM     67  C33 non d ame     -37.770  19.203  22.719  0.00  0.00    -0.082 A 
ATOM     68  H51 non d ame     -38.939  20.559  21.529  0.00  0.00     0.083 H 
ATOM     69  C34 non d ame     -37.199  18.944  23.963  0.00  0.00    -0.075 A 
ATOM     70  H52 non d ame     -37.645  18.490  21.903  0.00  0.00     0.083 H 
ATOM     71  H53 non d ame     -36.627  18.029  24.120  0.00  0.00     0.084 H 
ENDBRANCH  58  61
ENDBRANCH  57  58
ENDBRANCH  55  57
ENDBRANCH  52  55
ENDBRANCH  49  52
ENDBRANCH  47  49
BRANCH  47  72
ATOM     72  C24 non d ame     -33.045  15.327  28.790  0.00  0.00    -0.039 C 
ATOM     73  H35 non d ame     -32.930  16.214  29.414  0.00  0.00     0.036 H 
ATOM     74  H36 non d ame     -33.891  14.657  28.947  0.00  0.00     0.036 H 
BRANCH  72  75
ATOM     75  C25 non d ame     -31.713  14.454  28.959  0.00  0.00    -0.001 C 
ATOM     76  C26 non d ame     -32.100  12.922  29.413  0.00  0.00    -0.035 C 
ATOM     77  C27 non d ame     -31.369  12.593  30.505  0.00  0.00     0.085 C 
ATOM     78  H38 non d ame     -33.128  12.888  29.775  0.00  0.00     0.036 H 
ATOM     79  H39 non d ame     -31.764  12.211  28.658  0.00  0.00     0.036 H 
ATOM     80  N5  non d ame     -30.761  13.871  31.031  0.00  0.00    -0.049 N 
ATOM     81  H40 non d ame     -32.087  12.215  31.233  0.00  0.00     0.075 H 
ATOM     82  H41 non d ame     -30.573  11.946  30.138  0.00  0.00     0.075 H 
ATOM     83  C28 non d ame     -30.931  14.961  29.853  0.00  0.00     0.193 C 
ATOM     84  H42 non d ame     -31.328  14.155  31.817  0.00  0.00     0.280 HD
ATOM     85  H43 non d ame     -29.776  13.686  31.159  0.00  0.00     0.280 HD
ATOM     86  H44 non d ame     -30.080  15.246  29.234  0.00  0.00     0.129 H 
ATOM     87  H37 non d ame     -31.038  14.564  28.110  0.00  0.00     0.046 H 
BRANCH  83  88
ATOM     88  O6  non d ame     -31.443  16.185  30.384  0.00  0.00    -0.369 OA
ATOM     89  H45 non d ame     -31.438  16.144  31.343  0.00  0.00     0.212 HD
ENDBRANCH  83  88
ENDBRANCH  72  75
ENDBRANCH  47  72
ENDBRANCH  45  47
ENDBRANCH   1  43
BRANCH   1  90
ATOM     90  C16 non d ame     -31.258  15.147  22.850  0.00  0.00    -0.035 C 
ATOM     91  H21 non d ame     -31.673  14.433  22.139  0.00  0.00     0.037 H 
ATOM     92  H22 non d ame     -31.771  16.090  23.037  0.00  0.00     0.037 H 
BRANCH  90  93
ATOM     93  C17 non d ame     -29.834  15.516  22.324  0.00  0.00    -0.059 C 
ATOM     94  H23 non d ame     -29.470  16.355  22.916  0.00  0.00     0.038 H 
BRANCH  93  95
ATOM     95  C18 non d ame     -28.821  14.339  22.492  0.00  0.00    -0.073 C 
ATOM     96  H24 non d ame     -28.482  14.007  21.511  0.00  0.00     0.028 H 
ATOM     97  H25 non d ame     -27.964  14.677  23.076  0.00  0.00     0.028 H 
ATOM     98  H26 non d ame     -29.307  13.511  23.008  0.00  0.00     0.028 H 
ENDBRANCH  93  95
BRANCH  93  99
ATOM     99  C19 non d ame     -29.893  15.979  20.866  0.00  0.00    -0.073 C 
ATOM    100  H27 non d ame     -30.209  17.022  20.828  0.00  0.00     0.028 H 
ATOM    101  H28 non d ame     -28.907  15.882  20.413  0.00  0.00     0.028 H 
ATOM    102  H29 non d ame     -30.606  15.363  20.318  0.00  0.00     0.028 H 
ENDBRANCH  93  99
ENDBRANCH  90  93
ENDBRANCH   1  90
TORSDOF 26
ENDMDL
MODEL 18
REMARK VINA RESULT:      -7.0      3.134      8.157
REMARK  26 active torsions:
REMARK  status: ('A' for Active; 'I' for Inactive)
REMARK    1  A    between atoms: C2_2  and  C3_3 
REMARK    2  A    between atoms: C4_6  and  C5_7 
REMARK       I    between atoms: C5_7  and  N2_9 
REMARK    3  A    between atoms: N2_9  and  C6_10 
REMARK    4  A    between atoms: C6_10  and  C7_11 
REMARK    5  A    between atoms: C6_10  and  C8_13 
REMARK       I    between atoms: C7_11  and  N3_14 
REMARK    6  A    between atoms: N3_14  and  C9_15 
REMARK    7  A    between atoms: C9_15  and  C10_16 
REMARK    8  A    between atoms: C9_15  and  C11_18 
REMARK       I    between atoms: C10_16  and  N4_21 
REMARK    9  A    between atoms: C11_18  and  C12_19 
REMARK   10  A    between atoms: C11_18  and  C13_20 
REMARK   11  A    between atoms: N4_21  and  C14_22 
REMARK   12  A    between atoms: C14_22  and  C15_23 
REMARK   13  A    between atoms: C14_22  and  C16_25 
REMARK       I    between atoms: C15_23  and  N6_40 
REMARK   14  A    between atoms: C16_25  and  C17_26 
REMARK   15  A    between atoms: C17_26  and  C18_27 
REMARK   16  A    between atoms: C17_26  and  C19_28 
REMARK   17  A    between atoms: C20_29  and  C21_30 
REMARK   18  A    between atoms: C20_29  and  C24_33 
REMARK   19  A    between atoms: C20_29  and  N6_40 
REMARK   20  A    between atoms: C21_30  and  C22_31 
REMARK   21  A    between atoms: C22_31  and  C23_32 
REMARK   22  A    between atoms: C23_32  and  O8_43 
REMARK   23  A    between atoms: C24_33  and  C25_34 
REMARK   24  A    between atoms: C28_38  and  O6_39 
REMARK   25  A    between atoms: C29_42  and  O8_43 
REMARK   26  A    between atoms: C29_42  and  C35_49 
ROOT
ATOM      1  C14 non d ame     -35.789   9.919  28.097  0.00  0.00     0.089 C 
ATOM      2  H20 non d ame     -35.832   9.211  28.925  0.00  0.00     0.087 H 
ENDROOT
BRANCH   1   3
ATOM      3  N4  non d ame     -34.663  10.809  28.339  0.00  0.00    -0.346 N 
ATOM      4  C10 non d ame     -33.347  10.257  28.824  0.00  0.00     0.241 C 
ATOM      5  O4  non d ame     -33.218   9.093  29.016  0.00  0.00    -0.271 OA
ATOM      6  H19 non d ame     -34.794  11.797  28.173  0.00  0.00     0.163 HD
BRANCH   4   7
ATOM      7  C9  non d ame     -32.190  11.192  29.065  0.00  0.00     0.092 C 
ATOM      8  H11 non d ame     -31.301  10.794  28.576  0.00  0.00     0.088 H 
BRANCH   7   9
ATOM      9  N3  non d ame     -32.477  12.492  28.452  0.00  0.00    -0.346 N 
ATOM     10  C7  non d ame     -31.813  12.875  27.230  0.00  0.00     0.240 C 
ATOM     11  O3  non d ame     -31.043  12.150  26.728  0.00  0.00    -0.271 OA
ATOM     12  H10 non d ame     -33.137  13.129  28.874  0.00  0.00     0.163 HD
BRANCH  10  13
ATOM     13  C6  non d ame     -32.120  14.262  26.584  0.00  0.00     0.086 C 
ATOM     14  H6  non d ame     -31.639  15.087  27.109  0.00  0.00     0.086 H 
BRANCH  13  15
ATOM     15  N2  non d ame     -31.602  14.274  25.226  0.00  0.00    -0.343 N 
ATOM     16  C5  non d ame     -31.057  15.516  24.673  0.00  0.00     0.273 C 
ATOM     17  O2  non d ame     -31.041  16.500  25.328  0.00  0.00    -0.266 OA
ATOM     18  H5  non d ame     -31.622  13.429  24.672  0.00  0.00     0.163 HD
BRANCH  16  19
ATOM     19  C4  non d ame     -30.505  15.543  23.239  0.00  0.00     0.154 A 
ATOM     20  C1  non d ame     -31.254  15.672  22.027  0.00  0.00    -0.017 A 
ATOM     21  C2  non d ame     -30.287  15.643  20.997  0.00  0.00     0.077 A 
ATOM     22  H1  non d ame     -32.333  15.773  21.912  0.00  0.00     0.091 H 
ATOM     23  O1  non d ame     -29.123  15.513  21.563  0.00  0.00    -0.218 OA
ATOM     24  N1  non d ame     -29.224  15.452  22.871  0.00  0.00    -0.123 NA
BRANCH  21  25
ATOM     25  C3  non d ame     -30.558  15.745  19.502  0.00  0.00    -0.029 C 
ATOM     26  H2  non d ame     -30.374  14.779  19.032  0.00  0.00     0.036 H 
ATOM     27  H3  non d ame     -31.596  16.035  19.341  0.00  0.00     0.036 H 
ATOM     28  H4  non d ame     -29.900  16.494  19.064  0.00  0.00     0.036 H 
ENDBRANCH  21  25
ENDBRANCH  16  19
ENDBRANCH  13  15
BRANCH  13  29
ATOM     29  C8  non d ame     -33.609  14.495  26.572  0.00  0.00    -0.049 C 
ATOM     30  H7  non d ame     -34.096  13.699  26.008  0.00  0.00     0.030 H 
ATOM     31  H8  non d ame     -33.985  14.497  27.594  0.00  0.00     0.030 H 
ATOM     32  H9  non d ame     -33.823  15.456  26.103  0.00  0.00     0.030 H 
ENDBRANCH  13  29
ENDBRANCH  10  13
ENDBRANCH   7   9
BRANCH   7  33
ATOM     33  C11 non d ame     -31.983  11.378  30.596  0.00  0.00    -0.033 C 
ATOM     34  H12 non d ame     -31.496  10.479  30.974  0.00  0.00     0.042 H 
BRANCH  33  35
ATOM     35  C12 non d ame     -31.042  12.585  30.900  0.00  0.00    -0.071 C 
ATOM     36  H13 non d ame     -30.933  13.195  30.004  0.00  0.00     0.028 H 
ATOM     37  H14 non d ame     -31.471  13.187  31.700  0.00  0.00     0.028 H 
ATOM     38  H15 non d ame     -30.064  12.215  31.208  0.00  0.00     0.028 H 
ENDBRANCH  33  35
BRANCH  33  39
ATOM     39  C13 non d ame     -33.354  11.529  31.332  0.00  0.00    -0.071 C 
ATOM     40  H16 non d ame     -34.156  11.590  30.596  0.00  0.00     0.028 H 
ATOM     41  H17 non d ame     -33.517  10.665  31.977  0.00  0.00     0.028 H 
ATOM     42  H18 non d ame     -33.344  12.435  31.936  0.00  0.00     0.028 H 
ENDBRANCH  33  39
ENDBRANCH   7  33
ENDBRANCH   4   7
ENDBRANCH   1   3
BRANCH   1  43
ATOM     43  C15 non d ame     -35.576   9.212  26.729  0.00  0.00     0.240 C 
ATOM     44  O5  non d ame     -36.106   9.637  25.754  0.00  0.00    -0.271 OA
ATOM     45  N6  non d ame     -34.702   8.007  26.631  0.00  0.00    -0.355 N 
ATOM     46  H46 non d ame     -34.242   7.640  27.451  0.00  0.00     0.162 HD
BRANCH  45  47
ATOM     47  C20 non d ame     -34.508   7.347  25.323  0.00  0.00     0.013 C 
ATOM     48  H30 non d ame     -35.213   7.786  24.617  0.00  0.00     0.072 H 
BRANCH  47  49
ATOM     49  C21 non d ame     -34.777   5.866  25.466  0.00  0.00    -0.038 C 
ATOM     50  H31 non d ame     -35.440   5.768  26.325  0.00  0.00     0.036 H 
ATOM     51  H32 non d ame     -35.105   5.530  24.482  0.00  0.00     0.036 H 
BRANCH  49  52
ATOM     52  C22 non d ame     -33.505   5.056  25.802  0.00  0.00     0.018 C 
ATOM     53  H33 non d ame     -33.754   4.016  25.593  0.00  0.00     0.048 H 
ATOM     54  H34 non d ame     -32.694   5.542  25.259  0.00  0.00     0.048 H 
BRANCH  52  55
ATOM     55  C23 non d ame     -33.108   5.109  27.303  0.00  0.00     0.259 C 
ATOM     56  O7  non d ame     -32.086   5.613  27.639  0.00  0.00    -0.265 OA
BRANCH  55  57
ATOM     57  O8  non d ame     -33.975   4.535  28.274  0.00  0.00    -0.317 OA
BRANCH  57  58
ATOM     58  C29 non d ame     -34.230   5.380  29.399  0.00  0.00     0.052 C 
ATOM     59  H47 non d ame     -33.584   6.248  29.268  0.00  0.00     0.082 H 
ATOM     60  H48 non d ame     -35.312   5.506  29.435  0.00  0.00     0.082 H 
BRANCH  58  61
ATOM     61  C35 non d ame     -33.782   4.623  30.678  0.00  0.00    -0.034 A 
ATOM     62  C30 non d ame     -34.492   4.778  31.864  0.00  0.00    -0.075 A 
ATOM     63  C31 non d ame     -34.090   4.099  33.013  0.00  0.00    -0.082 A 
ATOM     64  H49 non d ame     -35.364   5.433  31.894  0.00  0.00     0.084 H 
ATOM     65  C32 non d ame     -32.970   3.263  32.973  0.00  0.00    -0.083 A 
ATOM     66  H50 non d ame     -34.649   4.221  33.941  0.00  0.00     0.083 H 
ATOM     67  C33 non d ame     -32.263   3.114  31.788  0.00  0.00    -0.082 A 
ATOM     68  H51 non d ame     -32.649   2.727  33.866  0.00  0.00     0.083 H 
ATOM     69  C34 non d ame     -32.663   3.789  30.637  0.00  0.00    -0.075 A 
ATOM     70  H52 non d ame     -31.389   2.462  31.761  0.00  0.00     0.083 H 
ATOM     71  H53 non d ame     -32.103   3.666  29.710  0.00  0.00     0.084 H 
ENDBRANCH  58  61
ENDBRANCH  57  58
ENDBRANCH  55  57
ENDBRANCH  52  55
ENDBRANCH  49  52
ENDBRANCH  47  49
BRANCH  47  72
ATOM     72  C24 non d ame     -33.074   7.561  24.843  0.00  0.00    -0.039 C 
ATOM     73  H35 non d ame     -32.458   7.511  25.741  0.00  0.00     0.036 H 
ATOM     74  H36 non d ame     -32.926   6.840  24.040  0.00  0.00     0.036 H 
BRANCH  72  75
ATOM     75  C25 non d ame     -32.872   9.020  24.212  0.00  0.00    -0.001 C 
ATOM     76  C26 non d ame     -32.079   8.904  22.776  0.00  0.00    -0.035 C 
ATOM     77  C27 non d ame     -31.025   9.754  22.789  0.00  0.00     0.085 C 
ATOM     78  H38 non d ame     -31.614   7.923  22.684  0.00  0.00     0.036 H 
ATOM     79  H39 non d ame     -32.706   9.287  21.971  0.00  0.00     0.036 H 
ATOM     80  N5  non d ame     -30.834  10.198  24.219  0.00  0.00    -0.049 N 
ATOM     81  H40 non d ame     -30.166   9.157  22.484  0.00  0.00     0.075 H 
ATOM     82  H41 non d ame     -31.335  10.610  22.190  0.00  0.00     0.075 H 
ATOM     83  C28 non d ame     -32.184   9.778  24.999  0.00  0.00     0.193 C 
ATOM     84  H42 non d ame     -30.068   9.654  24.588  0.00  0.00     0.280 HD
ATOM     85  H43 non d ame     -30.774  11.206  24.200  0.00  0.00     0.280 HD
ATOM     86  H44 non d ame     -32.933  10.529  25.254  0.00  0.00     0.129 H 
ATOM     87  H37 non d ame     -33.791   9.606  24.225  0.00  0.00     0.046 H 
BRANCH  83  88
ATOM     88  O6  non d ame     -31.861   9.127  26.229  0.00  0.00    -0.369 OA
ATOM     89  H45 non d ame     -30.975   8.762  26.174  0.00  0.00     0.212 HD
ENDBRANCH  83  88
ENDBRANCH  72  75
ENDBRANCH  47  72
ENDBRANCH  45  47
ENDBRANCH   1  43
BRANCH   1  90
ATOM     90  C16 non d ame     -37.069  10.739  28.055  0.00  0.00    -0.035 C 
ATOM     91  H21 non d ame     -36.781  11.741  28.370  0.00  0.00     0.037 H 
ATOM     92  H22 non d ame     -37.482  10.578  27.059  0.00  0.00     0.037 H 
BRANCH  90  93
ATOM     93  C17 non d ame     -38.157  10.255  29.066  0.00  0.00    -0.059 C 
ATOM     94  H23 non d ame     -38.854  11.078  29.220  0.00  0.00     0.038 H 
BRANCH  93  95
ATOM     95  C18 non d ame     -38.969   9.038  28.520  0.00  0.00    -0.073 C 
ATOM     96  H24 non d ame     -38.290   8.210  28.315  0.00  0.00     0.028 H 
ATOM     97  H25 non d ame     -39.704   8.728  29.263  0.00  0.00     0.028 H 
ATOM     98  H26 non d ame     -39.480   9.325  27.602  0.00  0.00     0.028 H 
ENDBRANCH  93  95
BRANCH  93  99
ATOM     99  C19 non d ame     -37.532   9.928  30.425  0.00  0.00    -0.073 C 
ATOM    100  H27 non d ame     -38.256  10.130  31.216  0.00  0.00     0.028 H 
ATOM    101  H28 non d ame     -37.249   8.876  30.452  0.00  0.00     0.028 H 
ATOM    102  H29 non d ame     -36.647  10.546  30.577  0.00  0.00     0.028 H 
ENDBRANCH  93  99
ENDBRANCH  90  93
ENDBRANCH   1  90
TORSDOF 26
ENDMDL
MODEL 19
REMARK VINA RESULT:      -7.0      2.736      6.894
REMARK  26 active torsions:
REMARK  status: ('A' for Active; 'I' for Inactive)
REMARK    1  A    between atoms: C2_2  and  C3_3 
REMARK    2  A    between atoms: C4_6  and  C5_7 
REMARK       I    between atoms: C5_7  and  N2_9 
REMARK    3  A    between atoms: N2_9  and  C6_10 
REMARK    4  A    between atoms: C6_10  and  C7_11 
REMARK    5  A    between atoms: C6_10  and  C8_13 
REMARK       I    between atoms: C7_11  and  N3_14 
REMARK    6  A    between atoms: N3_14  and  C9_15 
REMARK    7  A    between atoms: C9_15  and  C10_16 
REMARK    8  A    between atoms: C9_15  and  C11_18 
REMARK       I    between atoms: C10_16  and  N4_21 
REMARK    9  A    between atoms: C11_18  and  C12_19 
REMARK   10  A    between atoms: C11_18  and  C13_20 
REMARK   11  A    between atoms: N4_21  and  C14_22 
REMARK   12  A    between atoms: C14_22  and  C15_23 
REMARK   13  A    between atoms: C14_22  and  C16_25 
REMARK       I    between atoms: C15_23  and  N6_40 
REMARK   14  A    between atoms: C16_25  and  C17_26 
REMARK   15  A    between atoms: C17_26  and  C18_27 
REMARK   16  A    between atoms: C17_26  and  C19_28 
REMARK   17  A    between atoms: C20_29  and  C21_30 
REMARK   18  A    between atoms: C20_29  and  C24_33 
REMARK   19  A    between atoms: C20_29  and  N6_40 
REMARK   20  A    between atoms: C21_30  and  C22_31 
REMARK   21  A    between atoms: C22_31  and  C23_32 
REMARK   22  A    between atoms: C23_32  and  O8_43 
REMARK   23  A    between atoms: C24_33  and  C25_34 
REMARK   24  A    between atoms: C28_38  and  O6_39 
REMARK   25  A    between atoms: C29_42  and  O8_43 
REMARK   26  A    between atoms: C29_42  and  C35_49 
ROOT
ATOM      1  C14 non d ame     -32.978  10.059  25.546  0.00  0.00     0.089 C 
ATOM      2  H20 non d ame     -33.108   9.706  26.570  0.00  0.00     0.087 H 
ENDROOT
BRANCH   1   3
ATOM      3  N4  non d ame     -34.204  10.742  25.159  0.00  0.00    -0.346 N 
ATOM      4  C10 non d ame     -35.388  10.769  26.092  0.00  0.00     0.241 C 
ATOM      5  O4  non d ame     -35.332  10.230  27.148  0.00  0.00    -0.271 OA
ATOM      6  H19 non d ame     -34.232  11.192  24.255  0.00  0.00     0.163 HD
BRANCH   4   7
ATOM      7  C9  non d ame     -36.646  11.485  25.678  0.00  0.00     0.092 C 
ATOM      8  H11 non d ame     -37.232  11.724  26.565  0.00  0.00     0.088 H 
BRANCH   7   9
ATOM      9  N3  non d ame     -36.296  12.755  25.034  0.00  0.00    -0.346 N 
ATOM     10  C7  non d ame     -36.423  13.992  25.765  0.00  0.00     0.240 C 
ATOM     11  O3  non d ame     -36.807  13.984  26.871  0.00  0.00    -0.271 OA
ATOM     12  H10 non d ame     -35.966  12.778  24.080  0.00  0.00     0.163 HD
BRANCH  10  13
ATOM     13  C6  non d ame     -36.053  15.341  25.074  0.00  0.00     0.086 C 
ATOM     14  H6  non d ame     -36.758  15.623  24.293  0.00  0.00     0.086 H 
BRANCH  13  15
ATOM     15  N2  non d ame     -36.084  16.403  26.066  0.00  0.00    -0.343 N 
ATOM     16  C5  non d ame     -36.559  17.734  25.682  0.00  0.00     0.273 C 
ATOM     17  O2  non d ame     -36.910  17.941  24.572  0.00  0.00    -0.266 OA
ATOM     18  H5  non d ame     -35.780  16.218  27.011  0.00  0.00     0.163 HD
BRANCH  16  19
ATOM     19  C4  non d ame     -36.599  18.866  26.720  0.00  0.00     0.154 A 
ATOM     20  C1  non d ame     -36.609  18.733  28.145  0.00  0.00    -0.017 A 
ATOM     21  C2  non d ame     -36.649  20.058  28.634  0.00  0.00     0.077 A 
ATOM     22  H1  non d ame     -36.590  17.816  28.734  0.00  0.00     0.091 H 
ATOM     23  O1  non d ame     -36.659  20.851  27.603  0.00  0.00    -0.218 OA
ATOM     24  N1  non d ame     -36.631  20.179  26.475  0.00  0.00    -0.123 NA
BRANCH  21  25
ATOM     25  C3  non d ame     -36.675  20.478  30.098  0.00  0.00    -0.029 C 
ATOM     26  H2  non d ame     -36.868  19.607  30.723  0.00  0.00     0.036 H 
ATOM     27  H3  non d ame     -35.712  20.912  30.367  0.00  0.00     0.036 H 
ATOM     28  H4  non d ame     -37.461  21.217  30.250  0.00  0.00     0.036 H 
ENDBRANCH  21  25
ENDBRANCH  16  19
ENDBRANCH  13  15
BRANCH  13  29
ATOM     29  C8  non d ame     -34.674  15.238  24.472  0.00  0.00    -0.049 C 
ATOM     30  H7  non d ame     -33.990  14.807  25.202  0.00  0.00     0.030 H 
ATOM     31  H8  non d ame     -34.711  14.600  23.589  0.00  0.00     0.030 H 
ATOM     32  H9  non d ame     -34.326  16.232  24.189  0.00  0.00     0.030 H 
ENDBRANCH  13  29
ENDBRANCH  10  13
ENDBRANCH   7   9
BRANCH   7  33
ATOM     33  C11 non d ame     -37.441  10.600  24.673  0.00  0.00    -0.033 C 
ATOM     34  H12 non d ame     -36.808   9.752  24.410  0.00  0.00     0.042 H 
BRANCH  33  35
ATOM     35  C12 non d ame     -38.741  10.031  25.322  0.00  0.00    -0.071 C 
ATOM     36  H13 non d ame     -39.548  10.045  24.590  0.00  0.00     0.028 H 
ATOM     37  H14 non d ame     -38.565   9.007  25.650  0.00  0.00     0.028 H 
ATOM     38  H15 non d ame     -39.018  10.645  26.179  0.00  0.00     0.028 H 
ENDBRANCH  33  35
BRANCH  33  39
ATOM     39  C13 non d ame     -37.760  11.389  23.363  0.00  0.00    -0.071 C 
ATOM     40  H16 non d ame     -37.380  10.836  22.504  0.00  0.00     0.028 H 
ATOM     41  H17 non d ame     -38.840  11.512  23.267  0.00  0.00     0.028 H 
ATOM     42  H18 non d ame     -37.286  12.369  23.405  0.00  0.00     0.028 H 
ENDBRANCH  33  39
ENDBRANCH   7  33
ENDBRANCH   4   7
ENDBRANCH   1   3
BRANCH   1  43
ATOM     43  C15 non d ame     -31.792  11.056  25.414  0.00  0.00     0.240 C 
ATOM     44  O5  non d ame     -30.728  10.771  25.859  0.00  0.00    -0.271 OA
ATOM     45  N6  non d ame     -31.981  12.365  24.725  0.00  0.00    -0.355 N 
ATOM     46  H46 non d ame     -32.879  12.616  24.338  0.00  0.00     0.162 HD
BRANCH  45  47
ATOM     47  C20 non d ame     -30.843  13.302  24.606  0.00  0.00     0.013 C 
ATOM     48  H30 non d ame     -29.978  12.842  25.085  0.00  0.00     0.072 H 
BRANCH  47  49
ATOM     49  C21 non d ame     -31.189  14.599  25.302  0.00  0.00    -0.038 C 
ATOM     50  H31 non d ame     -30.338  15.259  25.135  0.00  0.00     0.036 H 
ATOM     51  H32 non d ame     -32.176  14.877  24.932  0.00  0.00     0.036 H 
BRANCH  49  52
ATOM     52  C22 non d ame     -31.325  14.440  26.832  0.00  0.00     0.018 C 
ATOM     53  H33 non d ame     -30.853  13.488  27.074  0.00  0.00     0.048 H 
ATOM     54  H34 non d ame     -30.938  15.365  27.260  0.00  0.00     0.048 H 
BRANCH  52  55
ATOM     55  C23 non d ame     -32.796  14.324  27.321  0.00  0.00     0.259 C 
ATOM     56  O7  non d ame     -33.344  13.270  27.340  0.00  0.00    -0.265 OA
BRANCH  55  57
ATOM     57  O8  non d ame     -33.487  15.497  27.735  0.00  0.00    -0.317 OA
BRANCH  57  58
ATOM     58  C29 non d ame     -32.650  16.477  28.356  0.00  0.00     0.052 C 
ATOM     59  H47 non d ame     -33.052  16.616  29.359  0.00  0.00     0.082 H 
ATOM     60  H48 non d ame     -31.629  16.121  28.223  0.00  0.00     0.082 H 
BRANCH  58  61
ATOM     61  C35 non d ame     -32.811  17.808  27.574  0.00  0.00    -0.034 A 
ATOM     62  C30 non d ame     -32.909  17.793  26.186  0.00  0.00    -0.075 A 
ATOM     63  C31 non d ame     -33.053  18.988  25.484  0.00  0.00    -0.082 A 
ATOM     64  H49 non d ame     -32.872  16.845  25.649  0.00  0.00     0.084 H 
ATOM     65  C32 non d ame     -33.097  20.203  26.174  0.00  0.00    -0.083 A 
ATOM     66  H50 non d ame     -33.132  18.973  24.396  0.00  0.00     0.083 H 
ATOM     67  C33 non d ame     -32.995  20.213  27.558  0.00  0.00    -0.082 A 
ATOM     68  H51 non d ame     -33.210  21.142  25.632  0.00  0.00     0.083 H 
ATOM     69  C34 non d ame     -32.853  19.020  28.265  0.00  0.00    -0.075 A 
ATOM     70  H52 non d ame     -33.027  21.162  28.094  0.00  0.00     0.083 H 
ATOM     71  H53 non d ame     -32.775  19.036  29.352  0.00  0.00     0.084 H 
ENDBRANCH  58  61
ENDBRANCH  57  58
ENDBRANCH  55  57
ENDBRANCH  52  55
ENDBRANCH  49  52
ENDBRANCH  47  49
BRANCH  47  72
ATOM     72  C24 non d ame     -30.551  13.576  23.133  0.00  0.00    -0.039 C 
ATOM     73  H35 non d ame     -29.680  12.965  22.891  0.00  0.00     0.036 H 
ATOM     74  H36 non d ame     -31.494  13.408  22.614  0.00  0.00     0.036 H 
BRANCH  72  75
ATOM     75  C25 non d ame     -30.139  15.104  22.884  0.00  0.00    -0.001 C 
ATOM     76  C26 non d ame     -31.317  15.869  22.028  0.00  0.00    -0.035 C 
ATOM     77  C27 non d ame     -30.751  16.490  20.966  0.00  0.00     0.085 C 
ATOM     78  H38 non d ame     -31.982  15.137  21.571  0.00  0.00     0.036 H 
ATOM     79  H39 non d ame     -31.730  16.691  22.613  0.00  0.00     0.036 H 
ATOM     80  N5  non d ame     -29.347  15.949  20.835  0.00  0.00    -0.049 N 
ATOM     81  H40 non d ame     -31.335  16.176  20.101  0.00  0.00     0.075 H 
ATOM     82  H41 non d ame     -30.701  17.544  21.237  0.00  0.00     0.075 H 
ATOM     83  C28 non d ame     -29.033  15.189  22.224  0.00  0.00     0.193 C 
ATOM     84  H42 non d ame     -29.373  15.264  20.092  0.00  0.00     0.280 HD
ATOM     85  H43 non d ame     -28.738  16.751  20.762  0.00  0.00     0.280 HD
ATOM     86  H44 non d ame     -28.389  15.650  22.974  0.00  0.00     0.129 H 
ATOM     87  H37 non d ame     -29.792  15.591  23.795  0.00  0.00     0.046 H 
BRANCH  83  88
ATOM     88  O6  non d ame     -28.460  13.906  21.965  0.00  0.00    -0.369 OA
ATOM     89  H45 non d ame     -27.513  13.941  22.121  0.00  0.00     0.212 HD
ENDBRANCH  83  88
ENDBRANCH  72  75
ENDBRANCH  47  72
ENDBRANCH  45  47
ENDBRANCH   1  43
BRANCH   1  90
ATOM     90  C16 non d ame     -32.756   8.875  24.618  0.00  0.00    -0.035 C 
ATOM     91  H21 non d ame     -31.772   8.486  24.878  0.00  0.00     0.037 H 
ATOM     92  H22 non d ame     -33.639   8.247  24.735  0.00  0.00     0.037 H 
BRANCH  90  93
ATOM     93  C17 non d ame     -32.691   9.267  23.107  0.00  0.00    -0.059 C 
ATOM     94  H23 non d ame     -32.877  10.338  23.035  0.00  0.00     0.038 H 
BRANCH  93  95
ATOM     95  C18 non d ame     -31.285   8.985  22.486  0.00  0.00    -0.073 C 
ATOM     96  H24 non d ame     -31.313   8.045  21.936  0.00  0.00     0.028 H 
ATOM     97  H25 non d ame     -31.019   9.795  21.808  0.00  0.00     0.028 H 
ATOM     98  H26 non d ame     -30.543   8.919  23.282  0.00  0.00     0.028 H 
ENDBRANCH  93  95
BRANCH  93  99
ATOM     99  C19 non d ame     -33.790   8.559  22.311  0.00  0.00    -0.073 C 
ATOM    100  H27 non d ame     -34.746   9.049  22.496  0.00  0.00     0.028 H 
ATOM    101  H28 non d ame     -33.557   8.607  21.247  0.00  0.00     0.028 H 
ATOM    102  H29 non d ame     -33.850   7.516  22.622  0.00  0.00     0.028 H 
ENDBRANCH  93  99
ENDBRANCH  90  93
ENDBRANCH   1  90
TORSDOF 26
ENDMDL
MODEL 20
REMARK VINA RESULT:      -6.9      2.213      5.431
REMARK  26 active torsions:
REMARK  status: ('A' for Active; 'I' for Inactive)
REMARK    1  A    between atoms: C2_2  and  C3_3 
REMARK    2  A    between atoms: C4_6  and  C5_7 
REMARK       I    between atoms: C5_7  and  N2_9 
REMARK    3  A    between atoms: N2_9  and  C6_10 
REMARK    4  A    between atoms: C6_10  and  C7_11 
REMARK    5  A    between atoms: C6_10  and  C8_13 
REMARK       I    between atoms: C7_11  and  N3_14 
REMARK    6  A    between atoms: N3_14  and  C9_15 
REMARK    7  A    between atoms: C9_15  and  C10_16 
REMARK    8  A    between atoms: C9_15  and  C11_18 
REMARK       I    between atoms: C10_16  and  N4_21 
REMARK    9  A    between atoms: C11_18  and  C12_19 
REMARK   10  A    between atoms: C11_18  and  C13_20 
REMARK   11  A    between atoms: N4_21  and  C14_22 
REMARK   12  A    between atoms: C14_22  and  C15_23 
REMARK   13  A    between atoms: C14_22  and  C16_25 
REMARK       I    between atoms: C15_23  and  N6_40 
REMARK   14  A    between atoms: C16_25  and  C17_26 
REMARK   15  A    between atoms: C17_26  and  C18_27 
REMARK   16  A    between atoms: C17_26  and  C19_28 
REMARK   17  A    between atoms: C20_29  and  C21_30 
REMARK   18  A    between atoms: C20_29  and  C24_33 
REMARK   19  A    between atoms: C20_29  and  N6_40 
REMARK   20  A    between atoms: C21_30  and  C22_31 
REMARK   21  A    between atoms: C22_31  and  C23_32 
REMARK   22  A    between atoms: C23_32  and  O8_43 
REMARK   23  A    between atoms: C24_33  and  C25_34 
REMARK   24  A    between atoms: C28_38  and  O6_39 
REMARK   25  A    between atoms: C29_42  and  O8_43 
REMARK   26  A    between atoms: C29_42  and  C35_49 
ROOT
ATOM      1  C14 non d ame     -30.936  14.150  23.902  0.00  0.00     0.089 C 
ATOM      2  H20 non d ame     -29.899  14.281  24.213  0.00  0.00     0.087 H 
ENDROOT
BRANCH   1   3
ATOM      3  N4  non d ame     -31.271  12.745  24.079  0.00  0.00    -0.346 N 
ATOM      4  C10 non d ame     -30.549  11.684  23.287  0.00  0.00     0.241 C 
ATOM      5  O4  non d ame     -29.703  11.985  22.511  0.00  0.00    -0.271 OA
ATOM      6  H19 non d ame     -31.996  12.509  24.742  0.00  0.00     0.163 HD
BRANCH   4   7
ATOM      7  C9  non d ame     -30.906  10.234  23.487  0.00  0.00     0.092 C 
ATOM      8  H11 non d ame     -30.486   9.888  24.431  0.00  0.00     0.088 H 
BRANCH   7   9
ATOM      9  N3  non d ame     -32.362  10.097  23.585  0.00  0.00    -0.346 N 
ATOM     10  C7  non d ame     -32.999  10.084  24.879  0.00  0.00     0.240 C 
ATOM     11  O3  non d ame     -32.355  10.180  25.851  0.00  0.00    -0.271 OA
ATOM     12  H10 non d ame     -32.931  10.012  22.754  0.00  0.00     0.163 HD
BRANCH  10  13
ATOM     13  C6  non d ame     -34.549   9.935  24.976  0.00  0.00     0.086 C 
ATOM     14  H6  non d ame     -34.863   9.348  25.839  0.00  0.00     0.086 H 
BRANCH  13  15
ATOM     15  N2  non d ame     -35.140  11.254  25.134  0.00  0.00    -0.343 N 
ATOM     16  C5  non d ame     -35.888  11.568  26.353  0.00  0.00     0.273 C 
ATOM     17  O2  non d ame     -36.011  10.753  27.200  0.00  0.00    -0.266 OA
ATOM     18  H5  non d ame     -35.033  11.944  24.404  0.00  0.00     0.163 HD
BRANCH  16  19
ATOM     19  C4  non d ame     -36.517  12.958  26.534  0.00  0.00     0.154 A 
ATOM     20  C1  non d ame     -35.861  14.225  26.423  0.00  0.00    -0.017 A 
ATOM     21  C2  non d ame     -36.870  15.181  26.676  0.00  0.00     0.077 A 
ATOM     22  H1  non d ame     -34.813  14.421  26.193  0.00  0.00     0.091 H 
ATOM     23  O1  non d ame     -37.972  14.529  26.903  0.00  0.00    -0.218 OA
ATOM     24  N1  non d ame     -37.792  13.231  26.826  0.00  0.00    -0.123 NA
BRANCH  21  25
ATOM     25  C3  non d ame     -36.698  16.694  26.680  0.00  0.00    -0.029 C 
ATOM     26  H2  non d ame     -35.711  16.947  27.066  0.00  0.00     0.036 H 
ATOM     27  H3  non d ame     -36.799  17.074  25.664  0.00  0.00     0.036 H 
ATOM     28  H4  non d ame     -37.462  17.145  27.313  0.00  0.00     0.036 H 
ENDBRANCH  21  25
ENDBRANCH  16  19
ENDBRANCH  13  15
BRANCH  13  29
ATOM     29  C8  non d ame     -35.074   9.280  23.724  0.00  0.00    -0.049 C 
ATOM     30  H7  non d ame     -36.119   9.556  23.580  0.00  0.00     0.030 H 
ATOM     31  H8  non d ame     -34.489   9.613  22.868  0.00  0.00     0.030 H 
ATOM     32  H9  non d ame     -34.995   8.197  23.820  0.00  0.00     0.030 H 
ENDBRANCH  13  29
ENDBRANCH  10  13
ENDBRANCH   7   9
BRANCH   7  33
ATOM     33  C11 non d ame     -30.390   9.402  22.277  0.00  0.00    -0.033 C 
ATOM     34  H12 non d ame     -30.208  10.094  21.455  0.00  0.00     0.042 H 
BRANCH  33  35
ATOM     35  C12 non d ame     -29.036   8.699  22.606  0.00  0.00    -0.071 C 
ATOM     36  H13 non d ame     -29.157   7.619  22.522  0.00  0.00     0.028 H 
ATOM     37  H14 non d ame     -28.272   9.035  21.905  0.00  0.00     0.028 H 
ATOM     38  H15 non d ame     -28.733   8.952  23.622  0.00  0.00     0.028 H 
ENDBRANCH  33  35
BRANCH  33  39
ATOM     39  C13 non d ame     -31.465   8.369  21.809  0.00  0.00    -0.071 C 
ATOM     40  H16 non d ame     -31.121   7.359  22.035  0.00  0.00     0.028 H 
ATOM     41  H17 non d ame     -32.403   8.559  22.332  0.00  0.00     0.028 H 
ATOM     42  H18 non d ame     -31.622   8.468  20.735  0.00  0.00     0.028 H 
ENDBRANCH  33  39
ENDBRANCH   7  33
ENDBRANCH   4   7
ENDBRANCH   1   3
BRANCH   1  43
ATOM     43  C15 non d ame     -31.917  15.005  24.754  0.00  0.00     0.240 C 
ATOM     44  O5  non d ame     -32.817  15.574  24.226  0.00  0.00    -0.271 OA
ATOM     45  N6  non d ame     -31.739  15.106  26.231  0.00  0.00    -0.355 N 
ATOM     46  H46 non d ame     -30.982  14.623  26.691  0.00  0.00     0.162 HD
BRANCH  45  47
ATOM     47  C20 non d ame     -32.681  15.922  27.028  0.00  0.00     0.013 C 
ATOM     48  H30 non d ame     -33.665  15.845  26.565  0.00  0.00     0.072 H 
BRANCH  47  49
ATOM     49  C21 non d ame     -32.221  17.362  27.026  0.00  0.00    -0.038 C 
ATOM     50  H31 non d ame     -32.035  17.613  28.070  0.00  0.00     0.036 H 
ATOM     51  H32 non d ame     -31.408  17.410  26.301  0.00  0.00     0.036 H 
BRANCH  49  52
ATOM     52  C22 non d ame     -33.308  18.339  26.529  0.00  0.00     0.018 C 
ATOM     53  H33 non d ame     -33.091  18.511  25.475  0.00  0.00     0.048 H 
ATOM     54  H34 non d ame     -34.260  17.896  26.823  0.00  0.00     0.048 H 
BRANCH  52  55
ATOM     55  C23 non d ame     -33.256  19.734  27.211  0.00  0.00     0.259 C 
ATOM     56  O7  non d ame     -32.370  20.010  27.953  0.00  0.00    -0.265 OA
BRANCH  55  57
ATOM     57  O8  non d ame     -34.288  20.677  26.948  0.00  0.00    -0.317 OA
BRANCH  57  58
ATOM     58  C29 non d ame     -35.510  20.090  26.491  0.00  0.00     0.052 C 
ATOM     59  H47 non d ame     -35.747  20.593  25.553  0.00  0.00     0.082 H 
ATOM     60  H48 non d ame     -35.344  19.014  26.505  0.00  0.00     0.082 H 
BRANCH  58  61
ATOM     61  C35 non d ame     -36.619  20.429  27.523  0.00  0.00    -0.034 A 
ATOM     62  C30 non d ame     -36.503  19.991  28.838  0.00  0.00    -0.075 A 
ATOM     63  C31 non d ame     -37.499  20.295  29.766  0.00  0.00    -0.082 A 
ATOM     64  H49 non d ame     -35.633  19.410  29.143  0.00  0.00     0.084 H 
ATOM     65  C32 non d ame     -38.616  21.038  29.372  0.00  0.00    -0.083 A 
ATOM     66  H50 non d ame     -37.405  19.952  30.796  0.00  0.00     0.083 H 
ATOM     67  C33 non d ame     -38.728  21.470  28.058  0.00  0.00    -0.082 A 
ATOM     68  H51 non d ame     -39.398  21.280  30.091  0.00  0.00     0.083 H 
ATOM     69  C34 non d ame     -37.734  21.170  27.128  0.00  0.00    -0.075 A 
ATOM     70  H52 non d ame     -39.602  22.047  27.753  0.00  0.00     0.083 H 
ATOM     71  H53 non d ame     -37.830  21.514  26.098  0.00  0.00     0.084 H 
ENDBRANCH  58  61
ENDBRANCH  57  58
ENDBRANCH  55  57
ENDBRANCH  52  55
ENDBRANCH  49  52
ENDBRANCH  47  49
BRANCH  47  72
ATOM     72  C24 non d ame     -32.728  15.403  28.463  0.00  0.00    -0.039 C 
ATOM     73  H35 non d ame     -32.682  16.291  29.094  0.00  0.00     0.036 H 
ATOM     74  H36 non d ame     -33.598  14.748  28.507  0.00  0.00     0.036 H 
BRANCH  72  75
ATOM     75  C25 non d ame     -31.445  14.509  28.812  0.00  0.00    -0.001 C 
ATOM     76  C26 non d ame     -31.906  12.957  29.100  0.00  0.00    -0.035 C 
ATOM     77  C27 non d ame     -31.379  12.557  30.282  0.00  0.00     0.085 C 
ATOM     78  H38 non d ame     -32.981  12.912  29.272  0.00  0.00     0.036 H 
ATOM     79  H39 non d ame     -31.441  12.288  28.375  0.00  0.00     0.036 H 
ATOM     80  N5  non d ame     -30.874  13.796  30.982  0.00  0.00    -0.049 N 
ATOM     81  H40 non d ame     -32.214  12.144  30.848  0.00  0.00     0.075 H 
ATOM     82  H41 non d ame     -30.530  11.925  30.023  0.00  0.00     0.075 H 
ATOM     83  C28 non d ame     -30.835  14.955  29.859  0.00  0.00     0.193 C 
ATOM     84  H42 non d ame     -31.571  14.039  31.671  0.00  0.00     0.280 HD
ATOM     85  H43 non d ame     -29.927  13.595  31.270  0.00  0.00     0.280 HD
ATOM     86  H44 non d ame     -29.887  15.267  29.418  0.00  0.00     0.129 H 
ATOM     87  H37 non d ame     -30.631  14.661  28.103  0.00  0.00     0.046 H 
BRANCH  83  88
ATOM     88  O6  non d ame     -31.433  16.151  30.363  0.00  0.00    -0.369 OA
ATOM     89  H45 non d ame     -30.979  16.422  31.164  0.00  0.00     0.212 HD
ENDBRANCH  83  88
ENDBRANCH  72  75
ENDBRANCH  47  72
ENDBRANCH  45  47
ENDBRANCH   1  43
BRANCH   1  90
ATOM     90  C16 non d ame     -31.083  14.514  22.433  0.00  0.00    -0.035 C 
ATOM     91  H21 non d ame     -30.817  13.612  21.884  0.00  0.00     0.037 H 
ATOM     92  H22 non d ame     -32.085  14.934  22.340  0.00  0.00     0.037 H 
BRANCH  90  93
ATOM     93  C17 non d ame     -30.093  15.626  21.961  0.00  0.00    -0.059 C 
ATOM     94  H23 non d ame     -30.368  16.551  22.468  0.00  0.00     0.038 H 
BRANCH  93  95
ATOM     95  C18 non d ame     -28.613  15.296  22.340  0.00  0.00    -0.073 C 
ATOM     96  H24 non d ame     -28.577  14.900  23.354  0.00  0.00     0.028 H 
ATOM     97  H25 non d ame     -28.217  14.555  21.647  0.00  0.00     0.028 H 
ATOM     98  H26 non d ame     -28.013  16.204  22.283  0.00  0.00     0.028 H 
ENDBRANCH  93  95
BRANCH  93  99
ATOM     99  C19 non d ame     -30.228  15.874  20.457  0.00  0.00    -0.073 C 
ATOM    100  H27 non d ame     -29.539  16.665  20.156  0.00  0.00     0.028 H 
ATOM    101  H28 non d ame     -29.989  14.960  19.914  0.00  0.00     0.028 H 
ATOM    102  H29 non d ame     -31.250  16.175  20.228  0.00  0.00     0.028 H 
ENDBRANCH  93  99
ENDBRANCH  90  93
ENDBRANCH   1  90
TORSDOF 26
ENDMDL
