MODEL 1
REMARK VINA RESULT:      -7.1      0.000      0.000
REMARK  26 active torsions:
REMARK  status: ('A' for Active; 'I' for Inactive)
REMARK    1  A    between atoms: C2_2  and  C3_3 
REMARK    2  A    between atoms: C4_6  and  C5_7 
REMARK       I    between atoms: C5_7  and  N2_9 
REMARK    3  A    between atoms: N2_9  and  C6_10 
REMARK    4  A    between atoms: C6_10  and  C7_11 
REMARK    5  A    between atoms: C6_10  and  C8_13 
REMARK       I    between atoms: C7_11  and  N3_14 
REMARK    6  A    between atoms: N3_14  and  C9_15 
REMARK    7  A    between atoms: C9_15  and  C10_16 
REMARK    8  A    between atoms: C9_15  and  C11_18 
REMARK       I    between atoms: C10_16  and  N4_21 
REMARK    9  A    between atoms: C11_18  and  C12_19 
REMARK   10  A    between atoms: C11_18  and  C13_20 
REMARK   11  A    between atoms: N4_21  and  C14_22 
REMARK   12  A    between atoms: C14_22  and  C15_23 
REMARK   13  A    between atoms: C14_22  and  C16_25 
REMARK       I    between atoms: C15_23  and  N6_40 
REMARK   14  A    between atoms: C16_25  and  C17_26 
REMARK   15  A    between atoms: C17_26  and  C18_27 
REMARK   16  A    between atoms: C17_26  and  C19_28 
REMARK   17  A    between atoms: C20_29  and  C21_30 
REMARK   18  A    between atoms: C20_29  and  C24_33 
REMARK   19  A    between atoms: C20_29  and  N6_40 
REMARK   20  A    between atoms: C21_30  and  C22_31 
REMARK   21  A    between atoms: C22_31  and  C23_32 
REMARK   22  A    between atoms: C23_32  and  O8_43 
REMARK   23  A    between atoms: C24_33  and  C25_34 
REMARK   24  A    between atoms: C28_38  and  O6_39 
REMARK   25  A    between atoms: C29_42  and  O8_43 
REMARK   26  A    between atoms: C29_42  and  C35_49 
ROOT
ATOM      1  C14 non d ame     -31.179  14.151  24.457  0.00  0.00     0.089 C 
ATOM      2  H20 non d ame     -30.177  13.735  24.571  0.00  0.00     0.087 H 
ENDROOT
BRANCH   1   3
ATOM      3  N4  non d ame     -32.128  13.064  24.647  0.00  0.00    -0.346 N 
ATOM      4  C10 non d ame     -31.824  11.946  25.612  0.00  0.00     0.241 C 
ATOM      5  O4  non d ame     -30.807  11.941  26.223  0.00  0.00    -0.271 OA
ATOM      6  H19 non d ame     -32.988  13.086  24.116  0.00  0.00     0.163 HD
BRANCH   4   7
ATOM      7  C9  non d ame     -32.821  10.833  25.800  0.00  0.00     0.092 C 
ATOM      8  H11 non d ame     -32.998  10.687  26.866  0.00  0.00     0.088 H 
BRANCH   7   9
ATOM      9  N3  non d ame     -34.101  11.216  25.197  0.00  0.00    -0.346 N 
ATOM     10  C7  non d ame     -35.332  10.991  25.915  0.00  0.00     0.240 C 
ATOM     11  O3  non d ame     -35.311  10.502  26.978  0.00  0.00    -0.271 OA
ATOM     12  H10 non d ame     -34.136  11.637  24.280  0.00  0.00     0.163 HD
BRANCH  10  13
ATOM     13  C6  non d ame     -36.692  11.398  25.266  0.00  0.00     0.086 C 
ATOM     14  H6  non d ame     -37.551  11.101  25.867  0.00  0.00     0.086 H 
BRANCH  13  15
ATOM     15  N2  non d ame     -36.745  12.845  25.151  0.00  0.00    -0.343 N 
ATOM     16  C5  non d ame     -37.327  13.634  26.239  0.00  0.00     0.273 C 
ATOM     17  O2  non d ame     -37.752  13.095  27.201  0.00  0.00    -0.266 OA
ATOM     18  H5  non d ame     -36.382  13.298  24.324  0.00  0.00     0.163 HD
BRANCH  16  19
ATOM     19  C4  non d ame     -37.388  15.166  26.132  0.00  0.00     0.154 A 
ATOM     20  C1  non d ame     -37.098  15.965  24.981  0.00  0.00    -0.017 A 
ATOM     21  C2  non d ame     -37.303  17.298  25.402  0.00  0.00     0.077 A 
ATOM     22  H1  non d ame     -36.787  15.629  23.991  0.00  0.00     0.091 H 
ATOM     23  O1  non d ame     -37.669  17.258  26.649  0.00  0.00    -0.218 OA
ATOM     24  N1  non d ame     -37.725  16.025  27.098  0.00  0.00    -0.123 NA
BRANCH  21  25
ATOM     25  C3  non d ame     -37.129  18.549  24.551  0.00  0.00    -0.029 C 
ATOM     26  H2  non d ame     -37.991  18.665  23.894  0.00  0.00     0.036 H 
ATOM     27  H3  non d ame     -37.047  19.420  25.200  0.00  0.00     0.036 H 
ATOM     28  H4  non d ame     -36.225  18.457  23.950  0.00  0.00     0.036 H 
ENDBRANCH  21  25
ENDBRANCH  16  19
ENDBRANCH  13  15
BRANCH  13  29
ATOM     29  C8  non d ame     -36.809  10.767  23.902  0.00  0.00    -0.049 C 
ATOM     30  H7  non d ame     -37.656  10.081  23.890  0.00  0.00     0.030 H 
ATOM     31  H8  non d ame     -36.961  11.544  23.154  0.00  0.00     0.030 H 
ATOM     32  H9  non d ame     -35.895  10.218  23.675  0.00  0.00     0.030 H 
ENDBRANCH  13  29
ENDBRANCH  10  13
ENDBRANCH   7   9
BRANCH   7  33
ATOM     33  C11 non d ame     -32.292   9.541  25.112  0.00  0.00    -0.033 C 
ATOM     34  H12 non d ame     -31.203   9.579  25.134  0.00  0.00     0.042 H 
BRANCH  33  35
ATOM     35  C12 non d ame     -32.732   8.262  25.889  0.00  0.00    -0.071 C 
ATOM     36  H13 non d ame     -32.219   8.225  26.850  0.00  0.00     0.028 H 
ATOM     37  H14 non d ame     -33.809   8.289  26.053  0.00  0.00     0.028 H 
ATOM     38  H15 non d ame     -32.476   7.377  25.307  0.00  0.00     0.028 H 
ENDBRANCH  33  35
BRANCH  33  39
ATOM     39  C13 non d ame     -32.743   9.479  23.617  0.00  0.00    -0.071 C 
ATOM     40  H16 non d ame     -31.931   9.829  22.978  0.00  0.00     0.028 H 
ATOM     41  H17 non d ame     -32.994   8.451  23.356  0.00  0.00     0.028 H 
ATOM     42  H18 non d ame     -33.618  10.113  23.475  0.00  0.00     0.028 H 
ENDBRANCH  33  39
ENDBRANCH   7  33
ENDBRANCH   4   7
ENDBRANCH   1   3
BRANCH   1  43
ATOM     43  C15 non d ame     -31.477  15.259  25.507  0.00  0.00     0.240 C 
ATOM     44  O5  non d ame     -31.097  16.369  25.319  0.00  0.00    -0.271 OA
ATOM     45  N6  non d ame     -32.245  14.938  26.744  0.00  0.00    -0.355 N 
ATOM     46  H46 non d ame     -32.578  13.999  26.912  0.00  0.00     0.162 HD
BRANCH  45  47
ATOM     47  C20 non d ame     -32.522  16.003  27.732  0.00  0.00     0.013 C 
ATOM     48  H30 non d ame     -31.810  16.810  27.563  0.00  0.00     0.072 H 
BRANCH  47  49
ATOM     49  C21 non d ame     -32.352  15.447  29.127  0.00  0.00    -0.038 C 
ATOM     50  H31 non d ame     -31.280  15.476  29.327  0.00  0.00     0.036 H 
ATOM     51  H32 non d ame     -33.039  16.013  29.756  0.00  0.00     0.036 H 
BRANCH  49  52
ATOM     52  C22 non d ame     -32.777  13.966  29.239  0.00  0.00     0.018 C 
ATOM     53  H33 non d ame     -33.440  13.914  30.101  0.00  0.00     0.048 H 
ATOM     54  H34 non d ame     -33.145  13.690  28.250  0.00  0.00     0.048 H 
BRANCH  52  55
ATOM     55  C23 non d ame     -31.600  12.998  29.544  0.00  0.00     0.259 C 
ATOM     56  O7  non d ame     -30.513  13.216  29.116  0.00  0.00    -0.265 OA
BRANCH  55  57
ATOM     57  O8  non d ame     -31.839  11.838  30.332  0.00  0.00    -0.317 OA
BRANCH  57  58
ATOM     58  C29 non d ame     -32.659  10.857  29.691  0.00  0.00     0.052 C 
ATOM     59  H47 non d ame     -33.173  11.384  28.886  0.00  0.00     0.082 H 
ATOM     60  H48 non d ame     -31.997  10.024  29.460  0.00  0.00     0.082 H 
BRANCH  58  61
ATOM     61  C35 non d ame     -33.718  10.373  30.717  0.00  0.00    -0.034 A 
ATOM     62  C30 non d ame     -34.116  11.210  31.755  0.00  0.00    -0.075 A 
ATOM     63  C31 non d ame     -35.067  10.775  32.677  0.00  0.00    -0.082 A 
ATOM     64  H49 non d ame     -33.682  12.206  31.846  0.00  0.00     0.084 H 
ATOM     65  C32 non d ame     -35.619   9.497  32.560  0.00  0.00    -0.083 A 
ATOM     66  H50 non d ame     -35.377  11.434  33.488  0.00  0.00     0.083 H 
ATOM     67  C33 non d ame     -35.216   8.664  31.524  0.00  0.00    -0.082 A 
ATOM     68  H51 non d ame     -36.363   9.149  33.276  0.00  0.00     0.083 H 
ATOM     69  C34 non d ame     -34.268   9.095  30.599  0.00  0.00    -0.075 A 
ATOM     70  H52 non d ame     -35.647   7.666  31.437  0.00  0.00     0.083 H 
ATOM     71  H53 non d ame     -33.957   8.436  29.788  0.00  0.00     0.084 H 
ENDBRANCH  58  61
ENDBRANCH  57  58
ENDBRANCH  55  57
ENDBRANCH  52  55
ENDBRANCH  49  52
ENDBRANCH  47  49
BRANCH  47  72
ATOM     72  C24 non d ame     -33.952  16.511  27.557  0.00  0.00    -0.039 C 
ATOM     73  H35 non d ame     -34.390  15.882  26.781  0.00  0.00     0.036 H 
ATOM     74  H36 non d ame     -34.382  16.519  28.558  0.00  0.00     0.036 H 
BRANCH  72  75
ATOM     75  C25 non d ame     -33.983  18.019  27.017  0.00  0.00    -0.001 C 
ATOM     76  C26 non d ame     -32.503  18.711  27.204  0.00  0.00    -0.035 C 
ATOM     77  C27 non d ame     -32.653  19.895  27.844  0.00  0.00     0.085 C 
ATOM     78  H38 non d ame     -31.900  18.123  27.895  0.00  0.00     0.036 H 
ATOM     79  H39 non d ame     -32.098  18.996  26.233  0.00  0.00     0.036 H 
ATOM     80  N5  non d ame     -34.056  19.922  28.400  0.00  0.00    -0.049 N 
ATOM     81  H40 non d ame     -31.943  19.871  28.670  0.00  0.00     0.075 H 
ATOM     82  H41 non d ame     -32.564  20.658  27.071  0.00  0.00     0.075 H 
ATOM     83  C28 non d ame     -34.850  18.728  27.660  0.00  0.00     0.193 C 
ATOM     84  H42 non d ame     -33.979  19.697  29.382  0.00  0.00     0.280 HD
ATOM     85  H43 non d ame     -34.460  20.803  28.115  0.00  0.00     0.280 HD
ATOM     86  H44 non d ame     -35.559  18.946  26.861  0.00  0.00     0.129 H 
ATOM     87  H37 non d ame     -34.446  18.096  26.033  0.00  0.00     0.046 H 
BRANCH  83  88
ATOM     88  O6  non d ame     -35.578  17.953  28.615  0.00  0.00    -0.369 OA
ATOM     89  H45 non d ame     -35.036  17.814  29.395  0.00  0.00     0.212 HD
ENDBRANCH  83  88
ENDBRANCH  72  75
ENDBRANCH  47  72
ENDBRANCH  45  47
ENDBRANCH   1  43
BRANCH   1  90
ATOM     90  C16 non d ame     -31.345  14.716  23.056  0.00  0.00    -0.035 C 
ATOM     91  H21 non d ame     -32.184  14.172  22.623  0.00  0.00     0.037 H 
ATOM     92  H22 non d ame     -31.405  15.797  23.186  0.00  0.00     0.037 H 
BRANCH  90  93
ATOM     93  C17 non d ame     -30.120  14.451  22.124  0.00  0.00    -0.059 C 
ATOM     94  H23 non d ame     -30.004  13.371  22.029  0.00  0.00     0.038 H 
BRANCH  93  95
ATOM     95  C18 non d ame     -30.334  15.034  20.690  0.00  0.00    -0.073 C 
ATOM     96  H24 non d ame     -29.495  14.752  20.054  0.00  0.00     0.028 H 
ATOM     97  H25 non d ame     -31.257  14.637  20.270  0.00  0.00     0.028 H 
ATOM     98  H26 non d ame     -30.398  16.120  20.746  0.00  0.00     0.028 H 
ENDBRANCH  93  95
BRANCH  93  99
ATOM     99  C19 non d ame     -28.832  14.994  22.747  0.00  0.00    -0.073 C 
ATOM    100  H27 non d ame     -28.932  16.067  22.913  0.00  0.00     0.028 H 
ATOM    101  H28 non d ame     -28.649  14.495  23.698  0.00  0.00     0.028 H 
ATOM    102  H29 non d ame     -27.996  14.807  22.073  0.00  0.00     0.028 H 
ENDBRANCH  93  99
ENDBRANCH  90  93
ENDBRANCH   1  90
TORSDOF 26
ENDMDL
MODEL 2
REMARK VINA RESULT:      -7.1      3.349      7.132
REMARK  26 active torsions:
REMARK  status: ('A' for Active; 'I' for Inactive)
REMARK    1  A    between atoms: C2_2  and  C3_3 
REMARK    2  A    between atoms: C4_6  and  C5_7 
REMARK       I    between atoms: C5_7  and  N2_9 
REMARK    3  A    between atoms: N2_9  and  C6_10 
REMARK    4  A    between atoms: C6_10  and  C7_11 
REMARK    5  A    between atoms: C6_10  and  C8_13 
REMARK       I    between atoms: C7_11  and  N3_14 
REMARK    6  A    between atoms: N3_14  and  C9_15 
REMARK    7  A    between atoms: C9_15  and  C10_16 
REMARK    8  A    between atoms: C9_15  and  C11_18 
REMARK       I    between atoms: C10_16  and  N4_21 
REMARK    9  A    between atoms: C11_18  and  C12_19 
REMARK   10  A    between atoms: C11_18  and  C13_20 
REMARK   11  A    between atoms: N4_21  and  C14_22 
REMARK   12  A    between atoms: C14_22  and  C15_23 
REMARK   13  A    between atoms: C14_22  and  C16_25 
REMARK       I    between atoms: C15_23  and  N6_40 
REMARK   14  A    between atoms: C16_25  and  C17_26 
REMARK   15  A    between atoms: C17_26  and  C18_27 
REMARK   16  A    between atoms: C17_26  and  C19_28 
REMARK   17  A    between atoms: C20_29  and  C21_30 
REMARK   18  A    between atoms: C20_29  and  C24_33 
REMARK   19  A    between atoms: C20_29  and  N6_40 
REMARK   20  A    between atoms: C21_30  and  C22_31 
REMARK   21  A    between atoms: C22_31  and  C23_32 
REMARK   22  A    between atoms: C23_32  and  O8_43 
REMARK   23  A    between atoms: C24_33  and  C25_34 
REMARK   24  A    between atoms: C28_38  and  O6_39 
REMARK   25  A    between atoms: C29_42  and  O8_43 
REMARK   26  A    between atoms: C29_42  and  C35_49 
ROOT
ATOM      1  C14 non d ame     -32.706  10.463  25.805  0.00  0.00     0.089 C 
ATOM      2  H20 non d ame     -33.577  10.531  25.153  0.00  0.00     0.087 H 
ENDROOT
BRANCH   1   3
ATOM      3  N4  non d ame     -32.191   9.106  25.707  0.00  0.00    -0.346 N 
ATOM      4  C10 non d ame     -32.970   8.046  24.969  0.00  0.00     0.241 C 
ATOM      5  O4  non d ame     -34.011   8.310  24.464  0.00  0.00    -0.271 OA
ATOM      6  H19 non d ame     -31.303   8.901  26.145  0.00  0.00     0.163 HD
BRANCH   4   7
ATOM      7  C9  non d ame     -32.418   6.648  24.872  0.00  0.00     0.092 C 
ATOM      8  H11 non d ame     -31.353   6.666  25.103  0.00  0.00     0.088 H 
BRANCH   7   9
ATOM      9  N3  non d ame     -33.066   5.797  25.874  0.00  0.00    -0.346 N 
ATOM     10  C7  non d ame     -32.652   5.866  27.254  0.00  0.00     0.240 C 
ATOM     11  O3  non d ame     -31.799   6.601  27.575  0.00  0.00    -0.271 OA
ATOM     12  H10 non d ame     -33.802   5.157  25.612  0.00  0.00     0.163 HD
BRANCH  10  13
ATOM     13  C6  non d ame     -33.343   4.955  28.316  0.00  0.00     0.086 C 
ATOM     14  H6  non d ame     -32.732   4.808  29.206  0.00  0.00     0.086 H 
BRANCH  13  15
ATOM     15  N2  non d ame     -34.572   5.593  28.756  0.00  0.00    -0.343 N 
ATOM     16  C5  non d ame     -34.939   5.553  30.174  0.00  0.00     0.273 C 
ATOM     17  O2  non d ame     -34.239   5.002  30.951  0.00  0.00    -0.266 OA
ATOM     18  H5  non d ame     -35.166   6.059  28.084  0.00  0.00     0.163 HD
BRANCH  16  19
ATOM     19  C4  non d ame     -36.235   6.224  30.653  0.00  0.00     0.154 A 
ATOM     20  C1  non d ame     -36.528   7.625  30.671  0.00  0.00    -0.017 A 
ATOM     21  C2  non d ame     -37.836   7.716  31.197  0.00  0.00     0.077 A 
ATOM     22  H1  non d ame     -35.889   8.449  30.351  0.00  0.00     0.091 H 
ATOM     23  O1  non d ame     -38.238   6.505  31.447  0.00  0.00    -0.218 OA
ATOM     24  N1  non d ame     -37.321   5.617  31.139  0.00  0.00    -0.123 NA
BRANCH  21  25
ATOM     25  C3  non d ame     -38.628   8.996  31.427  0.00  0.00    -0.029 C 
ATOM     26  H2  non d ame     -38.176   9.562  32.241  0.00  0.00     0.036 H 
ATOM     27  H3  non d ame     -38.618   9.597  30.518  0.00  0.00     0.036 H 
ATOM     28  H4  non d ame     -39.656   8.746  31.685  0.00  0.00     0.036 H 
ENDBRANCH  21  25
ENDBRANCH  16  19
ENDBRANCH  13  15
BRANCH  13  29
ATOM     29  C8  non d ame     -33.648   3.611  27.706  0.00  0.00    -0.049 C 
ATOM     30  H7  non d ame     -34.045   3.749  26.701  0.00  0.00     0.030 H 
ATOM     31  H8  non d ame     -32.734   3.019  27.657  0.00  0.00     0.030 H 
ATOM     32  H9  non d ame     -34.385   3.092  28.320  0.00  0.00     0.030 H 
ENDBRANCH  13  29
ENDBRANCH  10  13
ENDBRANCH   7   9
BRANCH   7  33
ATOM     33  C11 non d ame     -32.699   6.077  23.451  0.00  0.00    -0.033 C 
ATOM     34  H12 non d ame     -33.544   6.627  23.037  0.00  0.00     0.042 H 
BRANCH  33  35
ATOM     35  C12 non d ame     -31.483   6.299  22.499  0.00  0.00    -0.071 C 
ATOM     36  H13 non d ame     -31.154   7.336  22.565  0.00  0.00     0.028 H 
ATOM     37  H14 non d ame     -30.667   5.639  22.792  0.00  0.00     0.028 H 
ATOM     38  H15 non d ame     -31.780   6.078  21.473  0.00  0.00     0.028 H 
ENDBRANCH  33  35
BRANCH  33  39
ATOM     39  C13 non d ame     -33.094   4.567  23.523  0.00  0.00    -0.071 C 
ATOM     40  H16 non d ame     -34.013   4.459  24.099  0.00  0.00     0.028 H 
ATOM     41  H17 non d ame     -33.249   4.184  22.514  0.00  0.00     0.028 H 
ATOM     42  H18 non d ame     -32.294   4.005  24.005  0.00  0.00     0.028 H 
ENDBRANCH  33  39
ENDBRANCH   7  33
ENDBRANCH   4   7
ENDBRANCH   1   3
BRANCH   1  43
ATOM     43  C15 non d ame     -31.581  11.452  25.387  0.00  0.00     0.240 C 
ATOM     44  O5  non d ame     -30.462  11.064  25.280  0.00  0.00    -0.271 OA
ATOM     45  N6  non d ame     -31.899  12.882  25.111  0.00  0.00    -0.355 N 
ATOM     46  H46 non d ame     -32.845  13.222  25.194  0.00  0.00     0.162 HD
BRANCH  45  47
ATOM     47  C20 non d ame     -30.817  13.809  24.712  0.00  0.00     0.013 C 
ATOM     48  H30 non d ame     -29.883  13.433  25.128  0.00  0.00     0.072 H 
BRANCH  47  49
ATOM     49  C21 non d ame     -31.111  15.186  25.265  0.00  0.00    -0.038 C 
ATOM     50  H31 non d ame     -30.500  15.280  26.163  0.00  0.00     0.036 H 
ATOM     51  H32 non d ame     -30.966  15.874  24.432  0.00  0.00     0.036 H 
BRANCH  49  52
ATOM     52  C22 non d ame     -32.579  15.350  25.716  0.00  0.00     0.018 C 
ATOM     53  H33 non d ame     -33.103  15.781  24.864  0.00  0.00     0.048 H 
ATOM     54  H34 non d ame     -32.878  14.376  26.106  0.00  0.00     0.048 H 
BRANCH  52  55
ATOM     55  C23 non d ame     -32.765  16.355  26.886  0.00  0.00     0.259 C 
ATOM     56  O7  non d ame     -32.859  17.520  26.672  0.00  0.00    -0.265 OA
BRANCH  55  57
ATOM     57  O8  non d ame     -32.810  15.868  28.222  0.00  0.00    -0.317 OA
BRANCH  57  58
ATOM     58  C29 non d ame     -33.466  14.605  28.360  0.00  0.00     0.052 C 
ATOM     59  H47 non d ame     -34.327  14.788  29.003  0.00  0.00     0.082 H 
ATOM     60  H48 non d ame     -33.612  14.236  27.345  0.00  0.00     0.082 H 
BRANCH  58  61
ATOM     61  C35 non d ame     -32.499  13.641  29.098  0.00  0.00    -0.034 A 
ATOM     62  C30 non d ame     -32.969  12.840  30.133  0.00  0.00    -0.075 A 
ATOM     63  C31 non d ame     -32.100  11.974  30.796  0.00  0.00    -0.082 A 
ATOM     64  H49 non d ame     -34.018  12.890  30.426  0.00  0.00     0.084 H 
ATOM     65  C32 non d ame     -30.755  11.913  30.422  0.00  0.00    -0.083 A 
ATOM     66  H50 non d ame     -32.472  11.346  31.606  0.00  0.00     0.083 H 
ATOM     67  C33 non d ame     -30.290  12.718  29.390  0.00  0.00    -0.082 A 
ATOM     68  H51 non d ame     -30.069  11.239  30.934  0.00  0.00     0.083 H 
ATOM     69  C34 non d ame     -31.155  13.583  28.723  0.00  0.00    -0.075 A 
ATOM     70  H52 non d ame     -29.239  12.670  29.102  0.00  0.00     0.083 H 
ATOM     71  H53 non d ame     -30.782  14.210  27.913  0.00  0.00     0.084 H 
ENDBRANCH  58  61
ENDBRANCH  57  58
ENDBRANCH  55  57
ENDBRANCH  52  55
ENDBRANCH  49  52
ENDBRANCH  47  49
BRANCH  47  72
ATOM     72  C24 non d ame     -30.731  13.878  23.189  0.00  0.00    -0.039 C 
ATOM     73  H35 non d ame     -30.034  13.091  22.902  0.00  0.00     0.036 H 
ATOM     74  H36 non d ame     -31.763  13.847  22.839  0.00  0.00     0.036 H 
BRANCH  72  75
ATOM     75  C25 non d ame     -30.106  15.267  22.693  0.00  0.00    -0.001 C 
ATOM     76  C26 non d ame     -31.247  16.143  21.898  0.00  0.00    -0.035 C 
ATOM     77  C27 non d ame     -30.745  16.530  20.701  0.00  0.00     0.085 C 
ATOM     78  H38 non d ame     -32.087  15.504  21.627  0.00  0.00     0.036 H 
ATOM     79  H39 non d ame     -31.424  17.086  22.416  0.00  0.00     0.036 H 
ATOM     80  N5  non d ame     -29.489  15.726  20.468  0.00  0.00    -0.049 N 
ATOM     81  H40 non d ame     -31.494  16.242  19.964  0.00  0.00     0.075 H 
ATOM     82  H41 non d ame     -30.477  17.579  20.823  0.00  0.00     0.075 H 
ATOM     83  C28 non d ame     -29.109  15.073  21.895  0.00  0.00     0.193 C 
ATOM     84  H42 non d ame     -29.738  14.983  19.831  0.00  0.00     0.280 HD
ATOM     85  H43 non d ame     -28.769  16.387  20.216  0.00  0.00     0.280 HD
ATOM     86  H44 non d ame     -28.294  15.482  22.493  0.00  0.00     0.129 H 
ATOM     87  H37 non d ame     -29.551  15.776  23.483  0.00  0.00     0.046 H 
BRANCH  83  88
ATOM     88  O6  non d ame     -28.808  13.685  21.738  0.00  0.00    -0.369 OA
ATOM     89  H45 non d ame     -28.990  13.223  22.560  0.00  0.00     0.212 HD
ENDBRANCH  83  88
ENDBRANCH  72  75
ENDBRANCH  47  72
ENDBRANCH  45  47
ENDBRANCH   1  43
BRANCH   1  90
ATOM     90  C16 non d ame     -33.116  10.735  27.244  0.00  0.00    -0.035 C 
ATOM     91  H21 non d ame     -32.213  10.588  27.834  0.00  0.00     0.037 H 
ATOM     92  H22 non d ame     -33.604  11.710  27.225  0.00  0.00     0.037 H 
BRANCH  90  93
ATOM     93  C17 non d ame     -34.172   9.724  27.796  0.00  0.00    -0.059 C 
ATOM     94  H23 non d ame     -34.281   8.926  27.062  0.00  0.00     0.038 H 
BRANCH  93  95
ATOM     95  C18 non d ame     -33.718   9.075  29.142  0.00  0.00    -0.073 C 
ATOM     96  H24 non d ame     -34.520   9.158  29.875  0.00  0.00     0.028 H 
ATOM     97  H25 non d ame     -33.484   8.023  28.978  0.00  0.00     0.028 H 
ATOM     98  H26 non d ame     -32.832   9.590  29.513  0.00  0.00     0.028 H 
ENDBRANCH  93  95
BRANCH  93  99
ATOM     99  C19 non d ame     -35.541  10.392  27.948  0.00  0.00    -0.073 C 
ATOM    100  H27 non d ame     -36.263   9.662  28.315  0.00  0.00     0.028 H 
ATOM    101  H28 non d ame     -35.467  11.217  28.656  0.00  0.00     0.028 H 
ATOM    102  H29 non d ame     -35.869  10.773  26.981  0.00  0.00     0.028 H 
ENDBRANCH  93  99
ENDBRANCH  90  93
ENDBRANCH   1  90
TORSDOF 26
ENDMDL
MODEL 3
REMARK VINA RESULT:      -7.1      1.524      2.152
REMARK  26 active torsions:
REMARK  status: ('A' for Active; 'I' for Inactive)
REMARK    1  A    between atoms: C2_2  and  C3_3 
REMARK    2  A    between atoms: C4_6  and  C5_7 
REMARK       I    between atoms: C5_7  and  N2_9 
REMARK    3  A    between atoms: N2_9  and  C6_10 
REMARK    4  A    between atoms: C6_10  and  C7_11 
REMARK    5  A    between atoms: C6_10  and  C8_13 
REMARK       I    between atoms: C7_11  and  N3_14 
REMARK    6  A    between atoms: N3_14  and  C9_15 
REMARK    7  A    between atoms: C9_15  and  C10_16 
REMARK    8  A    between atoms: C9_15  and  C11_18 
REMARK       I    between atoms: C10_16  and  N4_21 
REMARK    9  A    between atoms: C11_18  and  C12_19 
REMARK   10  A    between atoms: C11_18  and  C13_20 
REMARK   11  A    between atoms: N4_21  and  C14_22 
REMARK   12  A    between atoms: C14_22  and  C15_23 
REMARK   13  A    between atoms: C14_22  and  C16_25 
REMARK       I    between atoms: C15_23  and  N6_40 
REMARK   14  A    between atoms: C16_25  and  C17_26 
REMARK   15  A    between atoms: C17_26  and  C18_27 
REMARK   16  A    between atoms: C17_26  and  C19_28 
REMARK   17  A    between atoms: C20_29  and  C21_30 
REMARK   18  A    between atoms: C20_29  and  C24_33 
REMARK   19  A    between atoms: C20_29  and  N6_40 
REMARK   20  A    between atoms: C21_30  and  C22_31 
REMARK   21  A    between atoms: C22_31  and  C23_32 
REMARK   22  A    between atoms: C23_32  and  O8_43 
REMARK   23  A    between atoms: C24_33  and  C25_34 
REMARK   24  A    between atoms: C28_38  and  O6_39 
REMARK   25  A    between atoms: C29_42  and  O8_43 
REMARK   26  A    between atoms: C29_42  and  C35_49 
ROOT
ATOM      1  C14 non d ame     -30.797  14.396  23.779  0.00  0.00     0.089 C 
ATOM      2  H20 non d ame     -29.713  14.429  23.673  0.00  0.00     0.087 H 
ENDROOT
BRANCH   1   3
ATOM      3  N4  non d ame     -31.170  13.014  24.045  0.00  0.00    -0.346 N 
ATOM      4  C10 non d ame     -30.511  11.888  23.290  0.00  0.00     0.241 C 
ATOM      5  O4  non d ame     -29.684  12.119  22.469  0.00  0.00    -0.271 OA
ATOM      6  H19 non d ame     -31.877  12.840  24.745  0.00  0.00     0.163 HD
BRANCH   4   7
ATOM      7  C9  non d ame     -30.905  10.464  23.582  0.00  0.00     0.092 C 
ATOM      8  H11 non d ame     -30.338  10.105  24.441  0.00  0.00     0.088 H 
BRANCH   7   9
ATOM      9  N3  non d ame     -32.324  10.414  23.947  0.00  0.00    -0.346 N 
ATOM     10  C7  non d ame     -32.707  10.247  25.327  0.00  0.00     0.240 C 
ATOM     11  O3  non d ame     -31.888  10.150  26.157  0.00  0.00    -0.271 OA
ATOM     12  H10 non d ame     -33.042  10.495  23.242  0.00  0.00     0.163 HD
BRANCH  10  13
ATOM     13  C6  non d ame     -34.219  10.192  25.708  0.00  0.00     0.086 C 
ATOM     14  H6  non d ame     -34.380  10.030  26.774  0.00  0.00     0.086 H 
BRANCH  13  15
ATOM     15  N2  non d ame     -34.834  11.469  25.385  0.00  0.00    -0.343 N 
ATOM     16  C5  non d ame     -35.786  12.069  26.323  0.00  0.00     0.273 C 
ATOM     17  O2  non d ame     -36.052  11.515  27.333  0.00  0.00    -0.266 OA
ATOM     18  H5  non d ame     -34.603  11.933  24.519  0.00  0.00     0.163 HD
BRANCH  16  19
ATOM     19  C4  non d ame     -36.442  13.419  25.995  0.00  0.00     0.154 A 
ATOM     20  C1  non d ame     -36.539  14.044  24.711  0.00  0.00    -0.017 A 
ATOM     21  C2  non d ame     -37.226  15.256  24.948  0.00  0.00     0.077 A 
ATOM     22  H1  non d ame     -36.168  13.675  23.755  0.00  0.00     0.091 H 
ATOM     23  O1  non d ame     -37.489  15.310  26.220  0.00  0.00    -0.218 OA
ATOM     24  N1  non d ame     -37.042  14.249  26.853  0.00  0.00    -0.123 NA
BRANCH  21  25
ATOM     25  C3  non d ame     -37.591  16.304  23.905  0.00  0.00    -0.029 C 
ATOM     26  H2  non d ame     -37.214  17.277  24.219  0.00  0.00     0.036 H 
ATOM     27  H3  non d ame     -37.145  16.034  22.948  0.00  0.00     0.036 H 
ATOM     28  H4  non d ame     -38.674  16.351  23.800  0.00  0.00     0.036 H 
ENDBRANCH  21  25
ENDBRANCH  16  19
ENDBRANCH  13  15
BRANCH  13  29
ATOM     29  C8  non d ame     -34.894   9.084  24.940  0.00  0.00    -0.049 C 
ATOM     30  H7  non d ame     -35.973   9.149  25.081  0.00  0.00     0.030 H 
ATOM     31  H8  non d ame     -34.660   9.183  23.880  0.00  0.00     0.030 H 
ATOM     32  H9  non d ame     -34.538   8.120  25.303  0.00  0.00     0.030 H 
ENDBRANCH  13  29
ENDBRANCH  10  13
ENDBRANCH   7   9
BRANCH   7  33
ATOM     33  C11 non d ame     -30.666   9.590  22.316  0.00  0.00    -0.033 C 
ATOM     34  H12 non d ame     -30.649  10.257  21.454  0.00  0.00     0.042 H 
BRANCH  33  35
ATOM     35  C12 non d ame     -29.284   8.867  22.377  0.00  0.00    -0.071 C 
ATOM     36  H13 non d ame     -29.190   8.343  23.328  0.00  0.00     0.028 H 
ATOM     37  H14 non d ame     -29.213   8.151  21.559  0.00  0.00     0.028 H 
ATOM     38  H15 non d ame     -28.485   9.603  22.287  0.00  0.00     0.028 H 
ENDBRANCH  33  35
BRANCH  33  39
ATOM     39  C13 non d ame     -31.831   8.568  22.115  0.00  0.00    -0.071 C 
ATOM     40  H16 non d ame     -32.138   8.171  23.082  0.00  0.00     0.028 H 
ATOM     41  H17 non d ame     -32.677   9.070  21.643  0.00  0.00     0.028 H 
ATOM     42  H18 non d ame     -31.492   7.752  21.477  0.00  0.00     0.028 H 
ENDBRANCH  33  39
ENDBRANCH   7  33
ENDBRANCH   4   7
ENDBRANCH   1   3
BRANCH   1  43
ATOM     43  C15 non d ame     -31.300  15.280  24.955  0.00  0.00     0.240 C 
ATOM     44  O5  non d ame     -30.879  16.384  25.087  0.00  0.00    -0.271 OA
ATOM     45  N6  non d ame     -32.314  14.754  25.913  0.00  0.00    -0.355 N 
ATOM     46  H46 non d ame     -32.683  13.820  25.809  0.00  0.00     0.162 HD
BRANCH  45  47
ATOM     47  C20 non d ame     -32.783  15.608  27.026  0.00  0.00     0.013 C 
ATOM     48  H30 non d ame     -32.007  16.343  27.235  0.00  0.00     0.072 H 
BRANCH  47  49
ATOM     49  C21 non d ame     -33.025  14.750  28.247  0.00  0.00    -0.038 C 
ATOM     50  H31 non d ame     -33.687  15.331  28.890  0.00  0.00     0.036 H 
ATOM     51  H32 non d ame     -33.347  13.780  27.866  0.00  0.00     0.036 H 
BRANCH  49  52
ATOM     52  C22 non d ame     -31.739  14.493  29.063  0.00  0.00     0.018 C 
ATOM     53  H33 non d ame     -31.039  15.274  28.765  0.00  0.00     0.048 H 
ATOM     54  H34 non d ame     -32.059  14.416  30.102  0.00  0.00     0.048 H 
BRANCH  52  55
ATOM     55  C23 non d ame     -31.043  13.145  28.728  0.00  0.00     0.259 C 
ATOM     56  O7  non d ame     -30.638  12.931  27.631  0.00  0.00    -0.265 OA
BRANCH  55  57
ATOM     57  O8  non d ame     -30.906  12.160  29.745  0.00  0.00    -0.317 OA
BRANCH  57  58
ATOM     58  C29 non d ame     -31.841  12.298  30.819  0.00  0.00     0.052 C 
ATOM     59  H47 non d ame     -31.283  12.069  31.727  0.00  0.00     0.082 H 
ATOM     60  H48 non d ame     -32.294  13.281  30.691  0.00  0.00     0.082 H 
BRANCH  58  61
ATOM     61  C35 non d ame     -32.943  11.221  30.635  0.00  0.00    -0.034 A 
ATOM     62  C30 non d ame     -32.908  10.368  29.537  0.00  0.00    -0.075 A 
ATOM     63  C31 non d ame     -33.898   9.401  29.372  0.00  0.00    -0.082 A 
ATOM     64  H49 non d ame     -32.105  10.457  28.805  0.00  0.00     0.084 H 
ATOM     65  C32 non d ame     -34.929   9.290  30.309  0.00  0.00    -0.083 A 
ATOM     66  H50 non d ame     -33.867   8.733  28.511  0.00  0.00     0.083 H 
ATOM     67  C33 non d ame     -34.962  10.146  31.402  0.00  0.00    -0.082 A 
ATOM     68  H51 non d ame     -35.707   8.536  30.188  0.00  0.00     0.083 H 
ATOM     69  C34 non d ame     -33.973  11.113  31.572  0.00  0.00    -0.075 A 
ATOM     70  H52 non d ame     -35.768  10.059  32.130  0.00  0.00     0.083 H 
ATOM     71  H53 non d ame     -34.005  11.780  32.433  0.00  0.00     0.084 H 
ENDBRANCH  58  61
ENDBRANCH  57  58
ENDBRANCH  55  57
ENDBRANCH  52  55
ENDBRANCH  49  52
ENDBRANCH  47  49
BRANCH  47  72
ATOM     72  C24 non d ame     -34.082  16.307  26.629  0.00  0.00    -0.039 C 
ATOM     73  H35 non d ame     -34.389  15.839  25.693  0.00  0.00     0.036 H 
ATOM     74  H36 non d ame     -34.726  16.242  27.506  0.00  0.00     0.036 H 
BRANCH  72  75
ATOM     75  C25 non d ame     -33.850  17.862  26.326  0.00  0.00    -0.001 C 
ATOM     76  C26 non d ame     -32.607  18.431  27.240  0.00  0.00    -0.035 C 
ATOM     77  C27 non d ame     -33.018  19.548  27.888  0.00  0.00     0.085 C 
ATOM     78  H38 non d ame     -32.388  17.734  28.048  0.00  0.00     0.036 H 
ATOM     79  H39 non d ame     -31.804  18.791  26.597  0.00  0.00     0.036 H 
ATOM     80  N5  non d ame     -34.521  19.607  27.756  0.00  0.00    -0.049 N 
ATOM     81  H40 non d ame     -32.759  19.389  28.935  0.00  0.00     0.075 H 
ATOM     82  H41 non d ame     -32.580  20.381  27.339  0.00  0.00     0.075 H 
ATOM     83  C28 non d ame     -34.907  18.554  26.595  0.00  0.00     0.193 C 
ATOM     84  H42 non d ame     -34.898  19.274  28.632  0.00  0.00     0.280 HD
ATOM     85  H43 non d ame     -34.742  20.538  27.433  0.00  0.00     0.280 HD
ATOM     86  H44 non d ame     -35.175  18.903  25.598  0.00  0.00     0.129 H 
ATOM     87  H37 non d ame     -33.817  18.074  25.257  0.00  0.00     0.046 H 
BRANCH  83  88
ATOM     88  O6  non d ame     -35.996  17.732  27.018  0.00  0.00    -0.369 OA
ATOM     89  H45 non d ame     -36.472  17.411  26.249  0.00  0.00     0.212 HD
ENDBRANCH  83  88
ENDBRANCH  72  75
ENDBRANCH  47  72
ENDBRANCH  45  47
ENDBRANCH   1  43
BRANCH   1  90
ATOM     90  C16 non d ame     -31.454  14.846  22.484  0.00  0.00    -0.035 C 
ATOM     91  H21 non d ame     -31.707  13.928  21.954  0.00  0.00     0.037 H 
ATOM     92  H22 non d ame     -32.243  15.536  22.785  0.00  0.00     0.037 H 
BRANCH  90  93
ATOM     93  C17 non d ame     -30.500  15.649  21.543  0.00  0.00    -0.059 C 
ATOM     94  H23 non d ame     -30.773  16.702  21.616  0.00  0.00     0.038 H 
BRANCH  93  95
ATOM     95  C18 non d ame     -29.003  15.514  21.969  0.00  0.00    -0.073 C 
ATOM     96  H24 non d ame     -28.695  14.472  21.890  0.00  0.00     0.028 H 
ATOM     97  H25 non d ame     -28.382  16.127  21.315  0.00  0.00     0.028 H 
ATOM     98  H26 non d ame     -28.886  15.851  22.999  0.00  0.00     0.028 H 
ENDBRANCH  93  95
BRANCH  93  99
ATOM     99  C19 non d ame     -30.691  15.230  20.083  0.00  0.00    -0.073 C 
ATOM    100  H27 non d ame     -29.718  15.047  19.627  0.00  0.00     0.028 H 
ATOM    101  H28 non d ame     -31.289  14.319  20.042  0.00  0.00     0.028 H 
ATOM    102  H29 non d ame     -31.203  16.025  19.541  0.00  0.00     0.028 H 
ENDBRANCH  93  99
ENDBRANCH  90  93
ENDBRANCH   1  90
TORSDOF 26
ENDMDL
MODEL 4
REMARK VINA RESULT:      -7.0      2.907      5.970
REMARK  26 active torsions:
REMARK  status: ('A' for Active; 'I' for Inactive)
REMARK    1  A    between atoms: C2_2  and  C3_3 
REMARK    2  A    between atoms: C4_6  and  C5_7 
REMARK       I    between atoms: C5_7  and  N2_9 
REMARK    3  A    between atoms: N2_9  and  C6_10 
REMARK    4  A    between atoms: C6_10  and  C7_11 
REMARK    5  A    between atoms: C6_10  and  C8_13 
REMARK       I    between atoms: C7_11  and  N3_14 
REMARK    6  A    between atoms: N3_14  and  C9_15 
REMARK    7  A    between atoms: C9_15  and  C10_16 
REMARK    8  A    between atoms: C9_15  and  C11_18 
REMARK       I    between atoms: C10_16  and  N4_21 
REMARK    9  A    between atoms: C11_18  and  C12_19 
REMARK   10  A    between atoms: C11_18  and  C13_20 
REMARK   11  A    between atoms: N4_21  and  C14_22 
REMARK   12  A    between atoms: C14_22  and  C15_23 
REMARK   13  A    between atoms: C14_22  and  C16_25 
REMARK       I    between atoms: C15_23  and  N6_40 
REMARK   14  A    between atoms: C16_25  and  C17_26 
REMARK   15  A    between atoms: C17_26  and  C18_27 
REMARK   16  A    between atoms: C17_26  and  C19_28 
REMARK   17  A    between atoms: C20_29  and  C21_30 
REMARK   18  A    between atoms: C20_29  and  C24_33 
REMARK   19  A    between atoms: C20_29  and  N6_40 
REMARK   20  A    between atoms: C21_30  and  C22_31 
REMARK   21  A    between atoms: C22_31  and  C23_32 
REMARK   22  A    between atoms: C23_32  and  O8_43 
REMARK   23  A    between atoms: C24_33  and  C25_34 
REMARK   24  A    between atoms: C28_38  and  O6_39 
REMARK   25  A    between atoms: C29_42  and  O8_43 
REMARK   26  A    between atoms: C29_42  and  C35_49 
ROOT
ATOM      1  C14 non d ame     -32.884  10.057  26.455  0.00  0.00     0.089 C 
ATOM      2  H20 non d ame     -33.602  10.524  25.781  0.00  0.00     0.087 H 
ENDROOT
BRANCH   1   3
ATOM      3  N4  non d ame     -32.210   9.001  25.714  0.00  0.00    -0.346 N 
ATOM      4  C10 non d ame     -32.978   8.142  24.742  0.00  0.00     0.241 C 
ATOM      5  O4  non d ame     -34.140   8.318  24.575  0.00  0.00    -0.271 OA
ATOM      6  H19 non d ame     -31.221   8.866  25.873  0.00  0.00     0.163 HD
BRANCH   4   7
ATOM      7  C9  non d ame     -32.263   7.058  23.980  0.00  0.00     0.092 C 
ATOM      8  H11 non d ame     -32.824   6.827  23.074  0.00  0.00     0.088 H 
BRANCH   7   9
ATOM      9  N3  non d ame     -30.944   7.542  23.562  0.00  0.00    -0.346 N 
ATOM     10  C7  non d ame     -30.745   8.020  22.216  0.00  0.00     0.240 C 
ATOM     11  O3  non d ame     -31.635   8.021  21.456  0.00  0.00    -0.271 OA
ATOM     12  H10 non d ame     -30.166   7.546  24.206  0.00  0.00     0.163 HD
BRANCH  10  13
ATOM     13  C6  non d ame     -29.338   8.531  21.776  0.00  0.00     0.086 C 
ATOM     14  H6  non d ame     -29.030   8.138  20.808  0.00  0.00     0.086 H 
BRANCH  13  15
ATOM     15  N2  non d ame     -29.383   9.978  21.642  0.00  0.00    -0.343 N 
ATOM     16  C5  non d ame     -29.909  10.788  22.743  0.00  0.00     0.273 C 
ATOM     17  O2  non d ame     -30.296  10.267  23.730  0.00  0.00    -0.266 OA
ATOM     18  H5  non d ame     -29.052  10.415  20.794  0.00  0.00     0.163 HD
BRANCH  16  19
ATOM     19  C4  non d ame     -29.960  12.319  22.615  0.00  0.00     0.154 A 
ATOM     20  C1  non d ame     -30.698  13.231  23.436  0.00  0.00    -0.017 A 
ATOM     21  C2  non d ame     -30.409  14.509  22.909  0.00  0.00     0.077 A 
ATOM     22  H1  non d ame     -31.343  13.000  24.283  0.00  0.00     0.091 H 
ATOM     23  O1  non d ame     -29.599  14.340  21.905  0.00  0.00    -0.218 OA
ATOM     24  N1  non d ame     -29.323  13.071  21.714  0.00  0.00    -0.123 NA
BRANCH  21  25
ATOM     25  C3  non d ame     -30.946  15.838  23.422  0.00  0.00    -0.029 C 
ATOM     26  H2  non d ame     -31.738  16.190  22.761  0.00  0.00     0.036 H 
ATOM     27  H3  non d ame     -31.345  15.704  24.427  0.00  0.00     0.036 H 
ATOM     28  H4  non d ame     -30.140  16.571  23.446  0.00  0.00     0.036 H 
ENDBRANCH  21  25
ENDBRANCH  16  19
ENDBRANCH  13  15
BRANCH  13  29
ATOM     29  C8  non d ame     -28.313   8.140  22.810  0.00  0.00    -0.049 C 
ATOM     30  H7  non d ame     -28.176   8.960  23.515  0.00  0.00     0.030 H 
ATOM     31  H8  non d ame     -28.656   7.255  23.345  0.00  0.00     0.030 H 
ATOM     32  H9  non d ame     -27.365   7.922  22.318  0.00  0.00     0.030 H 
ENDBRANCH  13  29
ENDBRANCH  10  13
ENDBRANCH   7   9
BRANCH   7  33
ATOM     33  C11 non d ame     -32.089   5.810  24.894  0.00  0.00    -0.033 C 
ATOM     34  H12 non d ame     -31.067   5.452  24.771  0.00  0.00     0.042 H 
BRANCH  33  35
ATOM     35  C12 non d ame     -32.279   6.177  26.399  0.00  0.00    -0.071 C 
ATOM     36  H13 non d ame     -33.236   5.789  26.750  0.00  0.00     0.028 H 
ATOM     37  H14 non d ame     -31.472   5.738  26.985  0.00  0.00     0.028 H 
ATOM     38  H15 non d ame     -32.264   7.260  26.513  0.00  0.00     0.028 H 
ENDBRANCH  33  35
BRANCH  33  39
ATOM     39  C13 non d ame     -33.058   4.662  24.464  0.00  0.00    -0.071 C 
ATOM     40  H16 non d ame     -32.489   3.869  23.978  0.00  0.00     0.028 H 
ATOM     41  H17 non d ame     -33.560   4.261  25.345  0.00  0.00     0.028 H 
ATOM     42  H18 non d ame     -33.802   5.055  23.771  0.00  0.00     0.028 H 
ENDBRANCH  33  39
ENDBRANCH   7  33
ENDBRANCH   4   7
ENDBRANCH   1   3
BRANCH   1  43
ATOM     43  C15 non d ame     -31.815  11.065  26.964  0.00  0.00     0.240 C 
ATOM     44  O5  non d ame     -30.821  11.241  26.336  0.00  0.00    -0.271 OA
ATOM     45  N6  non d ame     -32.033  11.819  28.232  0.00  0.00    -0.355 N 
ATOM     46  H46 non d ame     -32.875  11.681  28.772  0.00  0.00     0.162 HD
BRANCH  45  47
ATOM     47  C20 non d ame     -31.007  12.775  28.702  0.00  0.00     0.013 C 
ATOM     48  H30 non d ame     -30.044  12.454  28.308  0.00  0.00     0.072 H 
BRANCH  47  49
ATOM     49  C21 non d ame     -30.975  12.770  30.214  0.00  0.00    -0.038 C 
ATOM     50  H31 non d ame     -29.926  12.886  30.486  0.00  0.00     0.036 H 
ATOM     51  H32 non d ame     -31.705  13.517  30.526  0.00  0.00     0.036 H 
BRANCH  49  52
ATOM     52  C22 non d ame     -31.438  11.427  30.819  0.00  0.00     0.018 C 
ATOM     53  H33 non d ame     -31.213  10.671  30.066  0.00  0.00     0.048 H 
ATOM     54  H34 non d ame     -30.973  11.370  31.803  0.00  0.00     0.048 H 
BRANCH  52  55
ATOM     55  C23 non d ame     -32.970  11.345  31.063  0.00  0.00     0.259 C 
ATOM     56  O7  non d ame     -33.653  12.310  30.941  0.00  0.00    -0.265 OA
BRANCH  55  57
ATOM     57  O8  non d ame     -33.549  10.104  31.449  0.00  0.00    -0.317 OA
BRANCH  57  58
ATOM     58  C29 non d ame     -34.878  10.217  31.966  0.00  0.00     0.052 C 
ATOM     59  H47 non d ame     -34.767  10.291  33.048  0.00  0.00     0.082 H 
ATOM     60  H48 non d ame     -35.343  11.029  31.409  0.00  0.00     0.082 H 
BRANCH  58  61
ATOM     61  C35 non d ame     -35.633   8.901  31.639  0.00  0.00    -0.034 A 
ATOM     62  C30 non d ame     -37.019   8.904  31.522  0.00  0.00    -0.075 A 
ATOM     63  C31 non d ame     -37.697   7.722  31.228  0.00  0.00    -0.082 A 
ATOM     64  H49 non d ame     -37.574   9.832  31.661  0.00  0.00     0.084 H 
ATOM     65  C32 non d ame     -36.984   6.533  31.053  0.00  0.00    -0.083 A 
ATOM     66  H50 non d ame     -38.784   7.728  31.135  0.00  0.00     0.083 H 
ATOM     67  C33 non d ame     -35.601   6.535  31.174  0.00  0.00    -0.082 A 
ATOM     68  H51 non d ame     -37.507   5.605  30.822  0.00  0.00     0.083 H 
ATOM     69  C34 non d ame     -34.919   7.714  31.465  0.00  0.00    -0.075 A 
ATOM     70  H52 non d ame     -35.048   5.605  31.039  0.00  0.00     0.083 H 
ATOM     71  H53 non d ame     -33.832   7.707  31.557  0.00  0.00     0.084 H 
ENDBRANCH  58  61
ENDBRANCH  57  58
ENDBRANCH  55  57
ENDBRANCH  52  55
ENDBRANCH  49  52
ENDBRANCH  47  49
BRANCH  47  72
ATOM     72  C24 non d ame     -31.344  14.179  28.204  0.00  0.00    -0.039 C 
ATOM     73  H35 non d ame     -31.022  14.853  28.998  0.00  0.00     0.036 H 
ATOM     74  H36 non d ame     -30.894  14.251  27.213  0.00  0.00     0.036 H 
BRANCH  72  75
ATOM     75  C25 non d ame     -32.922  14.382  28.023  0.00  0.00    -0.001 C 
ATOM     76  C26 non d ame     -33.266  14.731  26.453  0.00  0.00    -0.035 C 
ATOM     77  C27 non d ame     -34.034  15.846  26.413  0.00  0.00     0.085 C 
ATOM     78  H38 non d ame     -32.358  15.028  25.929  0.00  0.00     0.036 H 
ATOM     79  H39 non d ame     -33.912  13.961  26.031  0.00  0.00     0.036 H 
ATOM     80  N5  non d ame     -33.973  16.474  27.784  0.00  0.00    -0.049 N 
ATOM     81  H40 non d ame     -33.547  16.509  25.696  0.00  0.00     0.075 H 
ATOM     82  H41 non d ame     -35.048  15.495  26.228  0.00  0.00     0.075 H 
ATOM     83  C28 non d ame     -33.358  15.347  28.762  0.00  0.00     0.193 C 
ATOM     84  H42 non d ame     -33.316  17.239  27.720  0.00  0.00     0.280 HD
ATOM     85  H43 non d ame     -34.929  16.652  28.059  0.00  0.00     0.280 HD
ATOM     86  H44 non d ame     -34.002  14.797  29.447  0.00  0.00     0.129 H 
ATOM     87  H37 non d ame     -33.498  13.582  28.490  0.00  0.00     0.046 H 
BRANCH  83  88
ATOM     88  O6  non d ame     -32.327  15.910  29.576  0.00  0.00    -0.369 OA
ATOM     89  H45 non d ame     -31.966  16.687  29.143  0.00  0.00     0.212 HD
ENDBRANCH  83  88
ENDBRANCH  72  75
ENDBRANCH  47  72
ENDBRANCH  45  47
ENDBRANCH   1  43
BRANCH   1  90
ATOM     90  C16 non d ame     -33.614   9.444  27.640  0.00  0.00    -0.035 C 
ATOM     91  H21 non d ame     -33.346   8.388  27.628  0.00  0.00     0.037 H 
ATOM     92  H22 non d ame     -33.347  10.064  28.495  0.00  0.00     0.037 H 
BRANCH  90  93
ATOM     93  C17 non d ame     -35.170   9.506  27.517  0.00  0.00    -0.059 C 
ATOM     94  H23 non d ame     -35.410   9.758  26.485  0.00  0.00     0.038 H 
BRANCH  93  95
ATOM     95  C18 non d ame     -35.841   8.133  27.842  0.00  0.00    -0.073 C 
ATOM     96  H24 non d ame     -35.471   7.764  28.798  0.00  0.00     0.028 H 
ATOM     97  H25 non d ame     -36.922   8.260  27.896  0.00  0.00     0.028 H 
ATOM     98  H26 non d ame     -35.599   7.416  27.057  0.00  0.00     0.028 H 
ENDBRANCH  93  95
BRANCH  93  99
ATOM     99  C19 non d ame     -35.744  10.615  28.402  0.00  0.00    -0.073 C 
ATOM    100  H27 non d ame     -34.927  11.181  28.852  0.00  0.00     0.028 H 
ATOM    101  H28 non d ame     -36.357  11.283  27.797  0.00  0.00     0.028 H 
ATOM    102  H29 non d ame     -36.356  10.173  29.188  0.00  0.00     0.028 H 
ENDBRANCH  93  99
ENDBRANCH  90  93
ENDBRANCH   1  90
TORSDOF 26
ENDMDL
MODEL 5
REMARK VINA RESULT:      -6.9      3.396      7.805
REMARK  26 active torsions:
REMARK  status: ('A' for Active; 'I' for Inactive)
REMARK    1  A    between atoms: C2_2  and  C3_3 
REMARK    2  A    between atoms: C4_6  and  C5_7 
REMARK       I    between atoms: C5_7  and  N2_9 
REMARK    3  A    between atoms: N2_9  and  C6_10 
REMARK    4  A    between atoms: C6_10  and  C7_11 
REMARK    5  A    between atoms: C6_10  and  C8_13 
REMARK       I    between atoms: C7_11  and  N3_14 
REMARK    6  A    between atoms: N3_14  and  C9_15 
REMARK    7  A    between atoms: C9_15  and  C10_16 
REMARK    8  A    between atoms: C9_15  and  C11_18 
REMARK       I    between atoms: C10_16  and  N4_21 
REMARK    9  A    between atoms: C11_18  and  C12_19 
REMARK   10  A    between atoms: C11_18  and  C13_20 
REMARK   11  A    between atoms: N4_21  and  C14_22 
REMARK   12  A    between atoms: C14_22  and  C15_23 
REMARK   13  A    between atoms: C14_22  and  C16_25 
REMARK       I    between atoms: C15_23  and  N6_40 
REMARK   14  A    between atoms: C16_25  and  C17_26 
REMARK   15  A    between atoms: C17_26  and  C18_27 
REMARK   16  A    between atoms: C17_26  and  C19_28 
REMARK   17  A    between atoms: C20_29  and  C21_30 
REMARK   18  A    between atoms: C20_29  and  C24_33 
REMARK   19  A    between atoms: C20_29  and  N6_40 
REMARK   20  A    between atoms: C21_30  and  C22_31 
REMARK   21  A    between atoms: C22_31  and  C23_32 
REMARK   22  A    between atoms: C23_32  and  O8_43 
REMARK   23  A    between atoms: C24_33  and  C25_34 
REMARK   24  A    between atoms: C28_38  and  O6_39 
REMARK   25  A    between atoms: C29_42  and  O8_43 
REMARK   26  A    between atoms: C29_42  and  C35_49 
ROOT
ATOM      1  C14 non d ame     -32.990  10.206  25.390  0.00  0.00     0.089 C 
ATOM      2  H20 non d ame     -33.667  10.279  24.538  0.00  0.00     0.087 H 
ENDROOT
BRANCH   1   3
ATOM      3  N4  non d ame     -32.415   8.870  25.380  0.00  0.00    -0.346 N 
ATOM      4  C10 non d ame     -33.186   7.713  24.795  0.00  0.00     0.241 C 
ATOM      5  O4  non d ame     -34.269   7.882  24.342  0.00  0.00    -0.271 OA
ATOM      6  H19 non d ame     -31.492   8.747  25.773  0.00  0.00     0.163 HD
BRANCH   4   7
ATOM      7  C9  non d ame     -32.572   6.337  24.787  0.00  0.00     0.092 C 
ATOM      8  H11 non d ame     -31.506   6.419  25.000  0.00  0.00     0.088 H 
BRANCH   7   9
ATOM      9  N3  non d ame     -33.167   5.530  25.857  0.00  0.00    -0.346 N 
ATOM     10  C7  non d ame     -32.718   5.694  27.218  0.00  0.00     0.240 C 
ATOM     11  O3  non d ame     -31.877   6.469  27.469  0.00  0.00    -0.271 OA
ATOM     12  H10 non d ame     -33.892   4.857  25.655  0.00  0.00     0.163 HD
BRANCH  10  13
ATOM     13  C6  non d ame     -33.353   4.830  28.351  0.00  0.00     0.086 C 
ATOM     14  H6  non d ame     -32.718   4.762  29.235  0.00  0.00     0.086 H 
BRANCH  13  15
ATOM     15  N2  non d ame     -34.595   5.452  28.778  0.00  0.00    -0.343 N 
ATOM     16  C5  non d ame     -34.916   5.516  30.206  0.00  0.00     0.273 C 
ATOM     17  O2  non d ame     -34.170   5.063  31.002  0.00  0.00    -0.266 OA
ATOM     18  H5  non d ame     -35.228   5.834  28.091  0.00  0.00     0.163 HD
BRANCH  16  19
ATOM     19  C4  non d ame     -36.225   6.172  30.671  0.00  0.00     0.154 A 
ATOM     20  C1  non d ame     -36.502   7.573  30.774  0.00  0.00    -0.017 A 
ATOM     21  C2  non d ame     -37.832   7.647  31.244  0.00  0.00     0.077 A 
ATOM     22  H1  non d ame     -35.840   8.407  30.542  0.00  0.00     0.091 H 
ATOM     23  O1  non d ame     -38.260   6.427  31.391  0.00  0.00    -0.218 OA
ATOM     24  N1  non d ame     -37.340   5.549  31.063  0.00  0.00    -0.123 NA
BRANCH  21  25
ATOM     25  C3  non d ame     -38.619   8.920  31.527  0.00  0.00    -0.029 C 
ATOM     26  H2  non d ame     -37.972   9.786  31.386  0.00  0.00     0.036 H 
ATOM     27  H3  non d ame     -39.464   8.983  30.842  0.00  0.00     0.036 H 
ATOM     28  H4  non d ame     -38.984   8.901  32.554  0.00  0.00     0.036 H 
ENDBRANCH  21  25
ENDBRANCH  16  19
ENDBRANCH  13  15
BRANCH  13  29
ATOM     29  C8  non d ame     -33.622   3.439  27.836  0.00  0.00    -0.049 C 
ATOM     30  H7  non d ame     -32.846   2.762  28.195  0.00  0.00     0.030 H 
ATOM     31  H8  non d ame     -34.594   3.101  28.194  0.00  0.00     0.030 H 
ATOM     32  H9  non d ame     -33.619   3.448  26.746  0.00  0.00     0.030 H 
ENDBRANCH  13  29
ENDBRANCH  10  13
ENDBRANCH   7   9
BRANCH   7  33
ATOM     33  C11 non d ame     -32.844   5.656  23.414  0.00  0.00    -0.033 C 
ATOM     34  H12 non d ame     -33.721   6.134  22.978  0.00  0.00     0.042 H 
BRANCH  33  35
ATOM     35  C12 non d ame     -31.654   5.869  22.428  0.00  0.00    -0.071 C 
ATOM     36  H13 non d ame     -31.065   4.954  22.367  0.00  0.00     0.028 H 
ATOM     37  H14 non d ame     -32.041   6.119  21.441  0.00  0.00     0.028 H 
ATOM     38  H15 non d ame     -31.025   6.683  22.789  0.00  0.00     0.028 H 
ENDBRANCH  33  35
BRANCH  33  39
ATOM     39  C13 non d ame     -33.163   4.137  23.597  0.00  0.00    -0.071 C 
ATOM     40  H16 non d ame     -32.249   3.557  23.477  0.00  0.00     0.028 H 
ATOM     41  H17 non d ame     -33.572   3.969  24.594  0.00  0.00     0.028 H 
ATOM     42  H18 non d ame     -33.893   3.827  22.850  0.00  0.00     0.028 H 
ENDBRANCH  33  39
ENDBRANCH   7  33
ENDBRANCH   4   7
ENDBRANCH   1   3
BRANCH   1  43
ATOM     43  C15 non d ame     -31.834  11.244  25.312  0.00  0.00     0.240 C 
ATOM     44  O5  non d ame     -30.759  10.964  25.733  0.00  0.00    -0.271 OA
ATOM     45  N6  non d ame     -32.066  12.586  24.705  0.00  0.00    -0.355 N 
ATOM     46  H46 non d ame     -32.974  12.834  24.339  0.00  0.00     0.162 HD
BRANCH  45  47
ATOM     47  C20 non d ame     -30.956  13.561  24.636  0.00  0.00     0.013 C 
ATOM     48  H30 non d ame     -30.135  13.178  25.243  0.00  0.00     0.072 H 
BRANCH  47  49
ATOM     49  C21 non d ame     -31.425  14.890  25.182  0.00  0.00    -0.038 C 
ATOM     50  H31 non d ame     -30.656  15.611  24.903  0.00  0.00     0.036 H 
ATOM     51  H32 non d ame     -32.446  15.014  24.820  0.00  0.00     0.036 H 
BRANCH  49  52
ATOM     52  C22 non d ame     -31.504  14.911  26.724  0.00  0.00     0.018 C 
ATOM     53  H33 non d ame     -30.932  14.047  27.061  0.00  0.00     0.048 H 
ATOM     54  H34 non d ame     -31.202  15.915  27.022  0.00  0.00     0.048 H 
BRANCH  52  55
ATOM     55  C23 non d ame     -32.942  14.714  27.280  0.00  0.00     0.259 C 
ATOM     56  O7  non d ame     -33.683  13.934  26.775  0.00  0.00    -0.265 OA
BRANCH  55  57
ATOM     57  O8  non d ame     -33.370  15.488  28.395  0.00  0.00    -0.317 OA
BRANCH  57  58
ATOM     58  C29 non d ame     -34.469  16.359  28.112  0.00  0.00     0.052 C 
ATOM     59  H47 non d ame     -35.094  15.822  27.398  0.00  0.00     0.082 H 
ATOM     60  H48 non d ame     -34.874  16.648  29.081  0.00  0.00     0.082 H 
BRANCH  58  61
ATOM     61  C35 non d ame     -33.908  17.628  27.417  0.00  0.00    -0.034 A 
ATOM     62  C30 non d ame     -32.887  18.357  28.017  0.00  0.00    -0.075 A 
ATOM     63  C31 non d ame     -32.383  19.497  27.393  0.00  0.00    -0.082 A 
ATOM     64  H49 non d ame     -32.482  18.036  28.977  0.00  0.00     0.084 H 
ATOM     65  C32 non d ame     -32.905  19.909  26.164  0.00  0.00    -0.083 A 
ATOM     66  H50 non d ame     -31.581  20.066  27.866  0.00  0.00     0.083 H 
ATOM     67  C33 non d ame     -33.926  19.180  25.570  0.00  0.00    -0.082 A 
ATOM     68  H51 non d ame     -32.517  20.799  25.669  0.00  0.00     0.083 H 
ATOM     69  C34 non d ame     -34.432  18.039  26.189  0.00  0.00    -0.075 A 
ATOM     70  H52 non d ame     -34.334  19.505  24.612  0.00  0.00     0.083 H 
ATOM     71  H53 non d ame     -35.233  17.470  25.716  0.00  0.00     0.084 H 
ENDBRANCH  58  61
ENDBRANCH  57  58
ENDBRANCH  55  57
ENDBRANCH  52  55
ENDBRANCH  49  52
ENDBRANCH  47  49
BRANCH  47  72
ATOM     72  C24 non d ame     -30.509  13.734  23.186  0.00  0.00    -0.039 C 
ATOM     73  H35 non d ame     -29.572  13.182  23.104  0.00  0.00     0.036 H 
ATOM     74  H36 non d ame     -31.367  13.442  22.581  0.00  0.00     0.036 H 
BRANCH  72  75
ATOM     75  C25 non d ame     -30.187  15.265  22.844  0.00  0.00    -0.001 C 
ATOM     76  C26 non d ame     -31.269  15.832  21.744  0.00  0.00    -0.035 C 
ATOM     77  C27 non d ame     -30.592  16.405  20.720  0.00  0.00     0.085 C 
ATOM     78  H38 non d ame     -31.791  15.001  21.270  0.00  0.00     0.036 H 
ATOM     79  H39 non d ame     -31.836  16.661  22.169  0.00  0.00     0.036 H 
ATOM     80  N5  non d ame     -29.146  15.992  20.862  0.00  0.00    -0.049 N 
ATOM     81  H40 non d ame     -31.002  15.959  19.814  0.00  0.00     0.075 H 
ATOM     82  H41 non d ame     -30.671  17.479  20.883  0.00  0.00     0.075 H 
ATOM     83  C28 non d ame     -28.999  15.396  22.355  0.00  0.00     0.193 C 
ATOM     84  H42 non d ame     -28.997  15.244  20.200  0.00  0.00     0.280 HD
ATOM     85  H43 non d ame     -28.600  16.839  20.798  0.00  0.00     0.280 HD
ATOM     86  H44 non d ame     -28.524  15.983  23.141  0.00  0.00     0.129 H 
ATOM     87  H37 non d ame     -30.032  15.865  23.741  0.00  0.00     0.046 H 
BRANCH  83  88
ATOM     88  O6  non d ame     -28.291  14.156  22.323  0.00  0.00    -0.369 OA
ATOM     89  H45 non d ame     -28.876  13.460  22.014  0.00  0.00     0.212 HD
ENDBRANCH  83  88
ENDBRANCH  72  75
ENDBRANCH  47  72
ENDBRANCH  45  47
ENDBRANCH   1  43
BRANCH   1  90
ATOM     90  C16 non d ame     -33.767  10.402  26.683  0.00  0.00    -0.035 C 
ATOM     91  H21 non d ame     -33.929  11.476  26.762  0.00  0.00     0.037 H 
ATOM     92  H22 non d ame     -34.619   9.726  26.613  0.00  0.00     0.037 H 
BRANCH  90  93
ATOM     93  C17 non d ame     -32.973   9.980  27.960  0.00  0.00    -0.059 C 
ATOM     94  H23 non d ame     -32.078   9.451  27.634  0.00  0.00     0.038 H 
BRANCH  93  95
ATOM     95  C18 non d ame     -32.516  11.214  28.804  0.00  0.00    -0.073 C 
ATOM     96  H24 non d ame     -33.379  11.651  29.304  0.00  0.00     0.028 H 
ATOM     97  H25 non d ame     -31.788  10.895  29.549  0.00  0.00     0.028 H 
ATOM     98  H26 non d ame     -32.062  11.955  28.147  0.00  0.00     0.028 H 
ENDBRANCH  93  95
BRANCH  93  99
ATOM     99  C19 non d ame     -33.789   9.008  28.815  0.00  0.00    -0.073 C 
ATOM    100  H27 non d ame     -33.757   9.325  29.858  0.00  0.00     0.028 H 
ATOM    101  H28 non d ame     -34.824   9.001  28.470  0.00  0.00     0.028 H 
ATOM    102  H29 non d ame     -33.371   8.006  28.726  0.00  0.00     0.028 H 
ENDBRANCH  93  99
ENDBRANCH  90  93
ENDBRANCH   1  90
TORSDOF 26
ENDMDL
MODEL 6
REMARK VINA RESULT:      -6.9      2.808      7.729
REMARK  26 active torsions:
REMARK  status: ('A' for Active; 'I' for Inactive)
REMARK    1  A    between atoms: C2_2  and  C3_3 
REMARK    2  A    between atoms: C4_6  and  C5_7 
REMARK       I    between atoms: C5_7  and  N2_9 
REMARK    3  A    between atoms: N2_9  and  C6_10 
REMARK    4  A    between atoms: C6_10  and  C7_11 
REMARK    5  A    between atoms: C6_10  and  C8_13 
REMARK       I    between atoms: C7_11  and  N3_14 
REMARK    6  A    between atoms: N3_14  and  C9_15 
REMARK    7  A    between atoms: C9_15  and  C10_16 
REMARK    8  A    between atoms: C9_15  and  C11_18 
REMARK       I    between atoms: C10_16  and  N4_21 
REMARK    9  A    between atoms: C11_18  and  C12_19 
REMARK   10  A    between atoms: C11_18  and  C13_20 
REMARK   11  A    between atoms: N4_21  and  C14_22 
REMARK   12  A    between atoms: C14_22  and  C15_23 
REMARK   13  A    between atoms: C14_22  and  C16_25 
REMARK       I    between atoms: C15_23  and  N6_40 
REMARK   14  A    between atoms: C16_25  and  C17_26 
REMARK   15  A    between atoms: C17_26  and  C18_27 
REMARK   16  A    between atoms: C17_26  and  C19_28 
REMARK   17  A    between atoms: C20_29  and  C21_30 
REMARK   18  A    between atoms: C20_29  and  C24_33 
REMARK   19  A    between atoms: C20_29  and  N6_40 
REMARK   20  A    between atoms: C21_30  and  C22_31 
REMARK   21  A    between atoms: C22_31  and  C23_32 
REMARK   22  A    between atoms: C23_32  and  O8_43 
REMARK   23  A    between atoms: C24_33  and  C25_34 
REMARK   24  A    between atoms: C28_38  and  O6_39 
REMARK   25  A    between atoms: C29_42  and  O8_43 
REMARK   26  A    between atoms: C29_42  and  C35_49 
ROOT
ATOM      1  C14 non d ame     -31.083  13.809  24.624  0.00  0.00     0.089 C 
ATOM      2  H20 non d ame     -30.080  13.765  25.050  0.00  0.00     0.087 H 
ENDROOT
BRANCH   1   3
ATOM      3  N4  non d ame     -31.456  12.456  24.240  0.00  0.00    -0.346 N 
ATOM      4  C10 non d ame     -31.329  11.322  25.226  0.00  0.00     0.241 C 
ATOM      5  O4  non d ame     -30.921  11.522  26.322  0.00  0.00    -0.271 OA
ATOM      6  H19 non d ame     -31.799  12.306  23.302  0.00  0.00     0.163 HD
BRANCH   4   7
ATOM      7  C9  non d ame     -31.726   9.928  24.813  0.00  0.00     0.092 C 
ATOM      8  H11 non d ame     -31.021   9.214  25.238  0.00  0.00     0.088 H 
BRANCH   7   9
ATOM      9  N3  non d ame     -33.047   9.613  25.363  0.00  0.00    -0.346 N 
ATOM     10  C7  non d ame     -33.162   8.747  26.510  0.00  0.00     0.240 C 
ATOM     11  O3  non d ame     -32.201   8.294  27.003  0.00  0.00    -0.271 OA
ATOM     12  H10 non d ame     -33.885   9.994  24.948  0.00  0.00     0.163 HD
BRANCH  10  13
ATOM     13  C6  non d ame     -34.572   8.412  27.090  0.00  0.00     0.086 C 
ATOM     14  H6  non d ame     -35.121   7.698  26.476  0.00  0.00     0.086 H 
BRANCH  13  15
ATOM     15  N2  non d ame     -34.410   7.798  28.397  0.00  0.00    -0.343 N 
ATOM     16  C5  non d ame     -34.772   6.391  28.584  0.00  0.00     0.273 C 
ATOM     17  O2  non d ame     -35.194   5.763  27.676  0.00  0.00    -0.266 OA
ATOM     18  H5  non d ame     -34.051   8.344  29.168  0.00  0.00     0.163 HD
BRANCH  16  19
ATOM     19  C4  non d ame     -34.605   5.730  29.961  0.00  0.00     0.154 A 
ATOM     20  C1  non d ame     -33.650   4.730  30.330  0.00  0.00    -0.017 A 
ATOM     21  C2  non d ame     -33.912   4.462  31.692  0.00  0.00     0.077 A 
ATOM     22  H1  non d ame     -32.884   4.270  29.705  0.00  0.00     0.091 H 
ATOM     23  O1  non d ame     -34.903   5.224  32.053  0.00  0.00    -0.218 OA
ATOM     24  N1  non d ame     -35.324   5.973  31.060  0.00  0.00    -0.123 NA
BRANCH  21  25
ATOM     25  C3  non d ame     -33.171   3.466  32.573  0.00  0.00    -0.029 C 
ATOM     26  H2  non d ame     -32.098   3.635  32.491  0.00  0.00     0.036 H 
ATOM     27  H3  non d ame     -33.480   3.598  33.610  0.00  0.00     0.036 H 
ATOM     28  H4  non d ame     -33.405   2.451  32.252  0.00  0.00     0.036 H 
ENDBRANCH  21  25
ENDBRANCH  16  19
ENDBRANCH  13  15
BRANCH  13  29
ATOM     29  C8  non d ame     -35.383   9.677  27.209  0.00  0.00    -0.049 C 
ATOM     30  H7  non d ame     -34.871  10.375  27.871  0.00  0.00     0.030 H 
ATOM     31  H8  non d ame     -35.498  10.128  26.224  0.00  0.00     0.030 H 
ATOM     32  H9  non d ame     -36.365   9.442  27.618  0.00  0.00     0.030 H 
ENDBRANCH  13  29
ENDBRANCH  10  13
ENDBRANCH   7   9
BRANCH   7  33
ATOM     33  C11 non d ame     -31.780   9.844  23.259  0.00  0.00    -0.033 C 
ATOM     34  H12 non d ame     -31.956  10.851  22.881  0.00  0.00     0.042 H 
BRANCH  33  35
ATOM     35  C12 non d ame     -30.421   9.352  22.669  0.00  0.00    -0.071 C 
ATOM     36  H13 non d ame     -29.776   9.011  23.479  0.00  0.00     0.028 H 
ATOM     37  H14 non d ame     -30.603   8.529  21.978  0.00  0.00     0.028 H 
ATOM     38  H15 non d ame     -29.937  10.172  22.140  0.00  0.00     0.028 H 
ENDBRANCH  33  35
BRANCH  33  39
ATOM     39  C13 non d ame     -32.963   8.938  22.789  0.00  0.00    -0.071 C 
ATOM     40  H16 non d ame     -32.740   7.897  23.026  0.00  0.00     0.028 H 
ATOM     41  H17 non d ame     -33.877   9.239  23.301  0.00  0.00     0.028 H 
ATOM     42  H18 non d ame     -33.098   9.046  21.713  0.00  0.00     0.028 H 
ENDBRANCH  33  39
ENDBRANCH   7  33
ENDBRANCH   4   7
ENDBRANCH   1   3
BRANCH   1  43
ATOM     43  C15 non d ame     -32.131  14.341  25.644  0.00  0.00     0.240 C 
ATOM     44  O5  non d ame     -33.229  14.609  25.278  0.00  0.00    -0.271 OA
ATOM     45  N6  non d ame     -31.766  14.508  27.080  0.00  0.00    -0.355 N 
ATOM     46  H46 non d ame     -30.838  14.279  27.404  0.00  0.00     0.162 HD
BRANCH  45  47
ATOM     47  C20 non d ame     -32.774  15.014  28.037  0.00  0.00     0.013 C 
ATOM     48  H30 non d ame     -33.761  14.820  27.618  0.00  0.00     0.072 H 
BRANCH  47  49
ATOM     49  C21 non d ame     -32.577  16.500  28.231  0.00  0.00    -0.038 C 
ATOM     50  H31 non d ame     -32.722  16.681  29.296  0.00  0.00     0.036 H 
ATOM     51  H32 non d ame     -31.621  16.734  27.763  0.00  0.00     0.036 H 
BRANCH  49  52
ATOM     52  C22 non d ame     -33.641  17.346  27.497  0.00  0.00     0.018 C 
ATOM     53  H33 non d ame     -33.903  16.781  26.603  0.00  0.00     0.048 H 
ATOM     54  H34 non d ame     -34.404  17.572  28.242  0.00  0.00     0.048 H 
BRANCH  52  55
ATOM     55  C23 non d ame     -33.113  18.719  26.995  0.00  0.00     0.259 C 
ATOM     56  O7  non d ame     -31.959  18.869  26.752  0.00  0.00    -0.265 OA
BRANCH  55  57
ATOM     57  O8  non d ame     -34.022  19.801  26.841  0.00  0.00    -0.317 OA
BRANCH  57  58
ATOM     58  C29 non d ame     -35.342  19.526  27.319  0.00  0.00     0.052 C 
ATOM     59  H47 non d ame     -35.326  18.485  27.645  0.00  0.00     0.082 H 
ATOM     60  H48 non d ame     -35.568  20.317  28.034  0.00  0.00     0.082 H 
BRANCH  58  61
ATOM     61  C35 non d ame     -36.321  19.651  26.122  0.00  0.00    -0.034 A 
ATOM     62  C30 non d ame     -36.483  18.588  25.240  0.00  0.00    -0.075 A 
ATOM     63  C31 non d ame     -37.362  18.700  24.164  0.00  0.00    -0.082 A 
ATOM     64  H49 non d ame     -35.921  17.666  25.391  0.00  0.00     0.084 H 
ATOM     65  C32 non d ame     -38.080  19.884  23.970  0.00  0.00    -0.083 A 
ATOM     66  H50 non d ame     -37.488  17.864  23.475  0.00  0.00     0.083 H 
ATOM     67  C33 non d ame     -37.912  20.944  24.851  0.00  0.00    -0.082 A 
ATOM     68  H51 non d ame     -38.770  19.980  23.132  0.00  0.00     0.083 H 
ATOM     69  C34 non d ame     -37.036  20.835  25.929  0.00  0.00    -0.075 A 
ATOM     70  H52 non d ame     -38.472  21.866  24.696  0.00  0.00     0.083 H 
ATOM     71  H53 non d ame     -36.911  21.671  26.617  0.00  0.00     0.084 H 
ENDBRANCH  58  61
ENDBRANCH  57  58
ENDBRANCH  55  57
ENDBRANCH  52  55
ENDBRANCH  49  52
ENDBRANCH  47  49
BRANCH  47  72
ATOM     72  C24 non d ame     -32.617  14.300  29.378  0.00  0.00    -0.039 C 
ATOM     73  H35 non d ame     -31.962  14.939  29.972  0.00  0.00     0.036 H 
ATOM     74  H36 non d ame     -33.632  14.094  29.718  0.00  0.00     0.036 H 
BRANCH  72  75
ATOM     75  C25 non d ame     -31.878  12.888  29.214  0.00  0.00    -0.001 C 
ATOM     76  C26 non d ame     -32.984  11.671  29.234  0.00  0.00    -0.035 C 
ATOM     77  C27 non d ame     -32.597  10.745  30.144  0.00  0.00     0.085 C 
ATOM     78  H38 non d ame     -33.932  12.035  29.629  0.00  0.00     0.036 H 
ATOM     79  H39 non d ame     -32.958  11.127  28.290  0.00  0.00     0.036 H 
ATOM     80  N5  non d ame     -31.506  11.373  30.977  0.00  0.00    -0.049 N 
ATOM     81  H40 non d ame     -33.470  10.572  30.772  0.00  0.00     0.075 H 
ATOM     82  H41 non d ame     -32.173   9.926  29.563  0.00  0.00     0.075 H 
ATOM     83  C28 non d ame     -31.033  12.689  30.171  0.00  0.00     0.193 C 
ATOM     84  H42 non d ame     -31.938  11.663  31.842  0.00  0.00     0.280 HD
ATOM     85  H43 non d ame     -30.742  10.712  30.991  0.00  0.00     0.280 HD
ATOM     86  H44 non d ame     -30.097  12.689  29.612  0.00  0.00     0.129 H 
ATOM     87  H37 non d ame     -31.158  12.891  28.395  0.00  0.00     0.046 H 
BRANCH  83  88
ATOM     88  O6  non d ame     -30.949  13.806  31.057  0.00  0.00    -0.369 OA
ATOM     89  H45 non d ame     -31.358  14.572  30.646  0.00  0.00     0.212 HD
ENDBRANCH  83  88
ENDBRANCH  72  75
ENDBRANCH  47  72
ENDBRANCH  45  47
ENDBRANCH   1  43
BRANCH   1  90
ATOM     90  C16 non d ame     -31.079  14.693  23.387  0.00  0.00    -0.035 C 
ATOM     91  H21 non d ame     -32.033  14.505  22.895  0.00  0.00     0.037 H 
ATOM     92  H22 non d ame     -30.840  15.693  23.748  0.00  0.00     0.037 H 
BRANCH  90  93
ATOM     93  C17 non d ame     -29.970  14.319  22.353  0.00  0.00    -0.059 C 
ATOM     94  H23 non d ame     -29.892  13.232  22.330  0.00  0.00     0.038 H 
BRANCH  93  95
ATOM     95  C18 non d ame     -30.322  14.802  20.910  0.00  0.00    -0.073 C 
ATOM     96  H24 non d ame     -29.444  14.709  20.271  0.00  0.00     0.028 H 
ATOM     97  H25 non d ame     -31.129  14.191  20.509  0.00  0.00     0.028 H 
ATOM     98  H26 non d ame     -30.637  15.845  20.944  0.00  0.00     0.028 H 
ENDBRANCH  93  95
BRANCH  93  99
ATOM     99  C19 non d ame     -28.608  14.862  22.793  0.00  0.00    -0.073 C 
ATOM    100  H27 non d ame     -28.421  14.580  23.830  0.00  0.00     0.028 H 
ATOM    101  H28 non d ame     -27.827  14.444  22.157  0.00  0.00     0.028 H 
ATOM    102  H29 non d ame     -28.604  15.948  22.705  0.00  0.00     0.028 H 
ENDBRANCH  93  99
ENDBRANCH  90  93
ENDBRANCH   1  90
TORSDOF 26
ENDMDL
MODEL 7
REMARK VINA RESULT:      -6.9      2.023      8.383
REMARK  26 active torsions:
REMARK  status: ('A' for Active; 'I' for Inactive)
REMARK    1  A    between atoms: C2_2  and  C3_3 
REMARK    2  A    between atoms: C4_6  and  C5_7 
REMARK       I    between atoms: C5_7  and  N2_9 
REMARK    3  A    between atoms: N2_9  and  C6_10 
REMARK    4  A    between atoms: C6_10  and  C7_11 
REMARK    5  A    between atoms: C6_10  and  C8_13 
REMARK       I    between atoms: C7_11  and  N3_14 
REMARK    6  A    between atoms: N3_14  and  C9_15 
REMARK    7  A    between atoms: C9_15  and  C10_16 
REMARK    8  A    between atoms: C9_15  and  C11_18 
REMARK       I    between atoms: C10_16  and  N4_21 
REMARK    9  A    between atoms: C11_18  and  C12_19 
REMARK   10  A    between atoms: C11_18  and  C13_20 
REMARK   11  A    between atoms: N4_21  and  C14_22 
REMARK   12  A    between atoms: C14_22  and  C15_23 
REMARK   13  A    between atoms: C14_22  and  C16_25 
REMARK       I    between atoms: C15_23  and  N6_40 
REMARK   14  A    between atoms: C16_25  and  C17_26 
REMARK   15  A    between atoms: C17_26  and  C18_27 
REMARK   16  A    between atoms: C17_26  and  C19_28 
REMARK   17  A    between atoms: C20_29  and  C21_30 
REMARK   18  A    between atoms: C20_29  and  C24_33 
REMARK   19  A    between atoms: C20_29  and  N6_40 
REMARK   20  A    between atoms: C21_30  and  C22_31 
REMARK   21  A    between atoms: C22_31  and  C23_32 
REMARK   22  A    between atoms: C23_32  and  O8_43 
REMARK   23  A    between atoms: C24_33  and  C25_34 
REMARK   24  A    between atoms: C28_38  and  O6_39 
REMARK   25  A    between atoms: C29_42  and  O8_43 
REMARK   26  A    between atoms: C29_42  and  C35_49 
ROOT
ATOM      1  C14 non d ame     -36.479  16.000  26.503  0.00  0.00     0.089 C 
ATOM      2  H20 non d ame     -37.088  16.562  27.211  0.00  0.00     0.087 H 
ENDROOT
BRANCH   1   3
ATOM      3  N4  non d ame     -35.086  16.170  26.891  0.00  0.00    -0.346 N 
ATOM      4  C10 non d ame     -34.696  17.241  27.878  0.00  0.00     0.241 C 
ATOM      5  O4  non d ame     -35.521  17.957  28.344  0.00  0.00    -0.271 OA
ATOM      6  H19 non d ame     -34.400  15.552  26.482  0.00  0.00     0.163 HD
BRANCH   4   7
ATOM      7  C9  non d ame     -33.252  17.399  28.274  0.00  0.00     0.092 C 
ATOM      8  H11 non d ame     -33.197  17.894  29.243  0.00  0.00     0.088 H 
BRANCH   7   9
ATOM      9  N3  non d ame     -32.639  16.076  28.428  0.00  0.00    -0.346 N 
ATOM     10  C7  non d ame     -31.748  15.819  29.532  0.00  0.00     0.240 C 
ATOM     11  O3  non d ame     -31.511  16.666  30.305  0.00  0.00    -0.271 OA
ATOM     12  H10 non d ame     -32.833  15.336  27.768  0.00  0.00     0.163 HD
BRANCH  10  13
ATOM     13  C6  non d ame     -31.097  14.410  29.689  0.00  0.00     0.086 C 
ATOM     14  H6  non d ame     -30.440  14.343  30.556  0.00  0.00     0.086 H 
BRANCH  13  15
ATOM     15  N2  non d ame     -32.147  13.424  29.885  0.00  0.00    -0.343 N 
ATOM     16  C5  non d ame     -31.846  12.181  30.598  0.00  0.00     0.273 C 
ATOM     17  O2  non d ame     -30.755  11.982  31.007  0.00  0.00    -0.266 OA
ATOM     18  H5  non d ame     -33.076  13.602  29.530  0.00  0.00     0.163 HD
BRANCH  16  19
ATOM     19  C4  non d ame     -32.947  11.131  30.815  0.00  0.00     0.154 A 
ATOM     20  C1  non d ame     -33.342  10.094  29.912  0.00  0.00    -0.017 A 
ATOM     21  C2  non d ame     -34.384   9.410  30.577  0.00  0.00     0.077 A 
ATOM     22  H1  non d ame     -32.934   9.870  28.926  0.00  0.00     0.091 H 
ATOM     23  O1  non d ame     -34.558   9.994  31.727  0.00  0.00    -0.218 OA
ATOM     24  N1  non d ame     -33.732  11.001  31.888  0.00  0.00    -0.123 NA
BRANCH  21  25
ATOM     25  C3  non d ame     -35.158   8.211  30.047  0.00  0.00    -0.029 C 
ATOM     26  H2  non d ame     -35.340   7.507  30.859  0.00  0.00     0.036 H 
ATOM     27  H3  non d ame     -36.111   8.546  29.637  0.00  0.00     0.036 H 
ATOM     28  H4  non d ame     -34.579   7.721  29.264  0.00  0.00     0.036 H 
ENDBRANCH  21  25
ENDBRANCH  16  19
ENDBRANCH  13  15
BRANCH  13  29
ATOM     29  C8  non d ame     -30.304  14.079  28.450  0.00  0.00    -0.049 C 
ATOM     30  H7  non d ame     -30.971  14.049  27.589  0.00  0.00     0.030 H 
ATOM     31  H8  non d ame     -29.541  14.841  28.293  0.00  0.00     0.030 H 
ATOM     32  H9  non d ame     -29.826  13.107  28.574  0.00  0.00     0.030 H 
ENDBRANCH  13  29
ENDBRANCH  10  13
ENDBRANCH   7   9
BRANCH   7  33
ATOM     33  C11 non d ame     -32.495  18.192  27.168  0.00  0.00    -0.033 C 
ATOM     34  H12 non d ame     -31.433  17.967  27.270  0.00  0.00     0.042 H 
BRANCH  33  35
ATOM     35  C12 non d ame     -32.936  17.739  25.741  0.00  0.00    -0.071 C 
ATOM     36  H13 non d ame     -33.975  17.412  25.769  0.00  0.00     0.028 H 
ATOM     37  H14 non d ame     -32.837  18.574  25.048  0.00  0.00     0.028 H 
ATOM     38  H15 non d ame     -32.305  16.915  25.410  0.00  0.00     0.028 H 
ENDBRANCH  33  35
BRANCH  33  39
ATOM     39  C13 non d ame     -32.682  19.732  27.357  0.00  0.00    -0.071 C 
ATOM     40  H16 non d ame     -33.206  20.143  26.493  0.00  0.00     0.028 H 
ATOM     41  H17 non d ame     -33.265  19.919  28.259  0.00  0.00     0.028 H 
ATOM     42  H18 non d ame     -31.706  20.208  27.451  0.00  0.00     0.028 H 
ENDBRANCH  33  39
ENDBRANCH   7  33
ENDBRANCH   4   7
ENDBRANCH   1   3
BRANCH   1  43
ATOM     43  C15 non d ame     -36.814  14.482  26.514  0.00  0.00     0.240 C 
ATOM     44  O5  non d ame     -37.872  14.113  26.913  0.00  0.00    -0.271 OA
ATOM     45  N6  non d ame     -35.821  13.487  26.019  0.00  0.00    -0.355 N 
ATOM     46  H46 non d ame     -34.921  13.788  25.674  0.00  0.00     0.162 HD
BRANCH  45  47
ATOM     47  C20 non d ame     -36.156  12.046  26.036  0.00  0.00     0.013 C 
ATOM     48  H30 non d ame     -37.064  11.920  26.624  0.00  0.00     0.072 H 
BRANCH  47  49
ATOM     49  C21 non d ame     -35.019  11.276  26.668  0.00  0.00    -0.038 C 
ATOM     50  H31 non d ame     -34.817  11.773  27.617  0.00  0.00     0.036 H 
ATOM     51  H32 non d ame     -35.329  10.231  26.655  0.00  0.00     0.036 H 
BRANCH  49  52
ATOM     52  C22 non d ame     -33.713  11.354  25.848  0.00  0.00     0.018 C 
ATOM     53  H33 non d ame     -33.085  10.541  26.213  0.00  0.00     0.048 H 
ATOM     54  H34 non d ame     -34.021  11.376  24.802  0.00  0.00     0.048 H 
BRANCH  52  55
ATOM     55  C23 non d ame     -32.903  12.659  26.083  0.00  0.00     0.259 C 
ATOM     56  O7  non d ame     -33.177  13.386  26.982  0.00  0.00    -0.265 OA
BRANCH  55  57
ATOM     57  O8  non d ame     -31.834  12.984  25.202  0.00  0.00    -0.317 OA
BRANCH  57  58
ATOM     58  C29 non d ame     -31.622  14.389  25.038  0.00  0.00     0.052 C 
ATOM     59  H47 non d ame     -32.610  14.845  25.093  0.00  0.00     0.082 H 
ATOM     60  H48 non d ame     -30.856  14.659  25.765  0.00  0.00     0.082 H 
BRANCH  58  61
ATOM     61  C35 non d ame     -31.050  14.624  23.614  0.00  0.00    -0.034 A 
ATOM     62  C30 non d ame     -31.339  15.802  22.933  0.00  0.00    -0.075 A 
ATOM     63  C31 non d ame     -30.826  16.013  21.654  0.00  0.00    -0.082 A 
ATOM     64  H49 non d ame     -31.967  16.560  23.401  0.00  0.00     0.084 H 
ATOM     65  C32 non d ame     -30.023  15.039  21.055  0.00  0.00    -0.083 A 
ATOM     66  H50 non d ame     -31.053  16.938  21.124  0.00  0.00     0.083 H 
ATOM     67  C33 non d ame     -29.741  13.863  21.737  0.00  0.00    -0.082 A 
ATOM     68  H51 non d ame     -29.617  15.196  20.056  0.00  0.00     0.083 H 
ATOM     69  C34 non d ame     -30.249  13.649  23.016  0.00  0.00    -0.075 A 
ATOM     70  H52 non d ame     -29.116  13.104  21.266  0.00  0.00     0.083 H 
ATOM     71  H53 non d ame     -30.022  12.723  23.546  0.00  0.00     0.084 H 
ENDBRANCH  58  61
ENDBRANCH  57  58
ENDBRANCH  55  57
ENDBRANCH  52  55
ENDBRANCH  49  52
ENDBRANCH  47  49
BRANCH  47  72
ATOM     72  C24 non d ame     -36.375  11.551  24.608  0.00  0.00    -0.039 C 
ATOM     73  H35 non d ame     -35.779  12.211  23.977  0.00  0.00     0.036 H 
ATOM     74  H36 non d ame     -36.160  10.483  24.635  0.00  0.00     0.036 H 
BRANCH  72  75
ATOM     75  C25 non d ame     -37.903  11.714  24.152  0.00  0.00    -0.001 C 
ATOM     76  C26 non d ame     -38.432  10.320  23.459  0.00  0.00    -0.035 C 
ATOM     77  C27 non d ame     -38.989  10.614  22.260  0.00  0.00     0.085 C 
ATOM     78  H38 non d ame     -37.584   9.687  23.198  0.00  0.00     0.036 H 
ATOM     79  H39 non d ame     -39.263   9.909  24.032  0.00  0.00     0.036 H 
ATOM     80  N5  non d ame     -38.596  12.032  21.925  0.00  0.00    -0.049 N 
ATOM     81  H40 non d ame     -38.519   9.937  21.547  0.00  0.00     0.075 H 
ATOM     82  H41 non d ame     -40.066  10.572  22.421  0.00  0.00     0.075 H 
ATOM     83  C28 non d ame     -38.036  12.673  23.297  0.00  0.00     0.193 C 
ATOM     84  H42 non d ame     -37.835  11.970  21.265  0.00  0.00     0.280 HD
ATOM     85  H43 non d ame     -39.448  12.512  21.671  0.00  0.00     0.280 HD
ATOM     86  H44 non d ame     -38.645  13.369  23.873  0.00  0.00     0.129 H 
ATOM     87  H37 non d ame     -38.524  12.144  24.938  0.00  0.00     0.046 H 
BRANCH  83  88
ATOM     88  O6  non d ame     -36.803  13.354  23.055  0.00  0.00    -0.369 OA
ATOM     89  H45 non d ame     -36.983  14.204  22.646  0.00  0.00     0.212 HD
ENDBRANCH  83  88
ENDBRANCH  72  75
ENDBRANCH  47  72
ENDBRANCH  45  47
ENDBRANCH   1  43
BRANCH   1  90
ATOM     90  C16 non d ame     -36.674  16.557  25.101  0.00  0.00    -0.035 C 
ATOM     91  H21 non d ame     -35.669  16.728  24.716  0.00  0.00     0.037 H 
ATOM     92  H22 non d ame     -37.336  15.850  24.600  0.00  0.00     0.037 H 
BRANCH  90  93
ATOM     93  C17 non d ame     -37.399  17.939  25.071  0.00  0.00    -0.059 C 
ATOM     94  H23 non d ame     -37.961  17.998  24.139  0.00  0.00     0.038 H 
BRANCH  93  95
ATOM     95  C18 non d ame     -38.414  18.098  26.249  0.00  0.00    -0.073 C 
ATOM     96  H24 non d ame     -37.966  17.720  27.167  0.00  0.00     0.028 H 
ATOM     97  H25 non d ame     -38.663  19.152  26.375  0.00  0.00     0.028 H 
ATOM     98  H26 non d ame     -39.319  17.535  26.027  0.00  0.00     0.028 H 
ENDBRANCH  93  95
BRANCH  93  99
ATOM     99  C19 non d ame     -36.387  19.088  25.065  0.00  0.00    -0.073 C 
ATOM    100  H27 non d ame     -36.507  19.683  25.971  0.00  0.00     0.028 H 
ATOM    101  H28 non d ame     -35.376  18.682  25.029  0.00  0.00     0.028 H 
ATOM    102  H29 non d ame     -36.556  19.717  24.192  0.00  0.00     0.028 H 
ENDBRANCH  93  99
ENDBRANCH  90  93
ENDBRANCH   1  90
TORSDOF 26
ENDMDL
MODEL 8
REMARK VINA RESULT:      -6.9      1.990      5.659
REMARK  26 active torsions:
REMARK  status: ('A' for Active; 'I' for Inactive)
REMARK    1  A    between atoms: C2_2  and  C3_3 
REMARK    2  A    between atoms: C4_6  and  C5_7 
REMARK       I    between atoms: C5_7  and  N2_9 
REMARK    3  A    between atoms: N2_9  and  C6_10 
REMARK    4  A    between atoms: C6_10  and  C7_11 
REMARK    5  A    between atoms: C6_10  and  C8_13 
REMARK       I    between atoms: C7_11  and  N3_14 
REMARK    6  A    between atoms: N3_14  and  C9_15 
REMARK    7  A    between atoms: C9_15  and  C10_16 
REMARK    8  A    between atoms: C9_15  and  C11_18 
REMARK       I    between atoms: C10_16  and  N4_21 
REMARK    9  A    between atoms: C11_18  and  C12_19 
REMARK   10  A    between atoms: C11_18  and  C13_20 
REMARK   11  A    between atoms: N4_21  and  C14_22 
REMARK   12  A    between atoms: C14_22  and  C15_23 
REMARK   13  A    between atoms: C14_22  and  C16_25 
REMARK       I    between atoms: C15_23  and  N6_40 
REMARK   14  A    between atoms: C16_25  and  C17_26 
REMARK   15  A    between atoms: C17_26  and  C18_27 
REMARK   16  A    between atoms: C17_26  and  C19_28 
REMARK   17  A    between atoms: C20_29  and  C21_30 
REMARK   18  A    between atoms: C20_29  and  C24_33 
REMARK   19  A    between atoms: C20_29  and  N6_40 
REMARK   20  A    between atoms: C21_30  and  C22_31 
REMARK   21  A    between atoms: C22_31  and  C23_32 
REMARK   22  A    between atoms: C23_32  and  O8_43 
REMARK   23  A    between atoms: C24_33  and  C25_34 
REMARK   24  A    between atoms: C28_38  and  O6_39 
REMARK   25  A    between atoms: C29_42  and  O8_43 
REMARK   26  A    between atoms: C29_42  and  C35_49 
ROOT
ATOM      1  C14 non d ame     -30.918  13.688  24.659  0.00  0.00     0.089 C 
ATOM      2  H20 non d ame     -29.968  13.455  25.141  0.00  0.00     0.087 H 
ENDROOT
BRANCH   1   3
ATOM      3  N4  non d ame     -31.404  12.467  24.034  0.00  0.00    -0.346 N 
ATOM      4  C10 non d ame     -31.300  11.148  24.757  0.00  0.00     0.241 C 
ATOM      5  O4  non d ame     -30.818  11.094  25.840  0.00  0.00    -0.271 OA
ATOM      6  H19 non d ame     -31.809  12.535  23.111  0.00  0.00     0.163 HD
BRANCH   4   7
ATOM      7  C9  non d ame     -31.814   9.895  24.097  0.00  0.00     0.092 C 
ATOM      8  H11 non d ame     -31.678   9.052  24.775  0.00  0.00     0.088 H 
BRANCH   7   9
ATOM      9  N3  non d ame     -33.253  10.027  23.852  0.00  0.00    -0.346 N 
ATOM     10  C7  non d ame     -34.193   9.745  24.910  0.00  0.00     0.240 C 
ATOM     11  O3  non d ame     -33.808   9.410  25.963  0.00  0.00    -0.271 OA
ATOM     12  H10 non d ame     -33.600  10.313  22.948  0.00  0.00     0.163 HD
BRANCH  10  13
ATOM     13  C6  non d ame     -35.724   9.883  24.642  0.00  0.00     0.086 C 
ATOM     14  H6  non d ame     -36.330   9.572  25.492  0.00  0.00     0.086 H 
BRANCH  13  15
ATOM     15  N2  non d ame     -36.035  11.282  24.399  0.00  0.00    -0.343 N 
ATOM     16  C5  non d ame     -36.240  12.183  25.535  0.00  0.00     0.273 C 
ATOM     17  O2  non d ame     -36.154  11.773  26.640  0.00  0.00    -0.266 OA
ATOM     18  H5  non d ame     -36.109  11.624  23.451  0.00  0.00     0.163 HD
BRANCH  16  19
ATOM     19  C4  non d ame     -36.568  13.665  25.292  0.00  0.00     0.154 A 
ATOM     20  C1  non d ame     -36.672  14.700  26.275  0.00  0.00    -0.017 A 
ATOM     21  C2  non d ame     -36.988  15.866  25.544  0.00  0.00     0.077 A 
ATOM     22  H1  non d ame     -36.539  14.617  27.354  0.00  0.00     0.091 H 
ATOM     23  O1  non d ame     -37.054  15.530  24.289  0.00  0.00    -0.218 OA
ATOM     24  N1  non d ame     -36.813  14.251  24.117  0.00  0.00    -0.123 NA
BRANCH  21  25
ATOM     25  C3  non d ame     -37.210  17.259  26.119  0.00  0.00    -0.029 C 
ATOM     26  H2  non d ame     -38.176  17.639  25.787  0.00  0.00     0.036 H 
ATOM     27  H3  non d ame     -37.194  17.209  27.207  0.00  0.00     0.036 H 
ATOM     28  H4  non d ame     -36.419  17.924  25.774  0.00  0.00     0.036 H 
ENDBRANCH  21  25
ENDBRANCH  16  19
ENDBRANCH  13  15
BRANCH  13  29
ATOM     29  C8  non d ame     -36.104   9.053  23.442  0.00  0.00    -0.049 C 
ATOM     30  H7  non d ame     -35.235   8.492  23.099  0.00  0.00     0.030 H 
ATOM     31  H8  non d ame     -36.899   8.361  23.717  0.00  0.00     0.030 H 
ATOM     32  H9  non d ame     -36.452   9.708  22.643  0.00  0.00     0.030 H 
ENDBRANCH  13  29
ENDBRANCH  10  13
ENDBRANCH   7   9
BRANCH   7  33
ATOM     33  C11 non d ame     -31.077   9.683  22.742  0.00  0.00    -0.033 C 
ATOM     34  H12 non d ame     -31.264  10.561  22.125  0.00  0.00     0.042 H 
BRANCH  33  35
ATOM     35  C12 non d ame     -29.534   9.573  22.946  0.00  0.00    -0.071 C 
ATOM     36  H13 non d ame     -29.022   9.996  22.081  0.00  0.00     0.028 H 
ATOM     37  H14 non d ame     -29.246  10.121  23.842  0.00  0.00     0.028 H 
ATOM     38  H15 non d ame     -29.255   8.525  23.055  0.00  0.00     0.028 H 
ENDBRANCH  33  35
BRANCH  33  39
ATOM     39  C13 non d ame     -31.639   8.434  21.990  0.00  0.00    -0.071 C 
ATOM     40  H16 non d ame     -32.459   8.002  22.564  0.00  0.00     0.028 H 
ATOM     41  H17 non d ame     -32.003   8.736  21.007  0.00  0.00     0.028 H 
ATOM     42  H18 non d ame     -30.848   7.694  21.871  0.00  0.00     0.028 H 
ENDBRANCH  33  39
ENDBRANCH   7  33
ENDBRANCH   4   7
ENDBRANCH   1   3
BRANCH   1  43
ATOM     43  C15 non d ame     -31.986  14.184  25.675  0.00  0.00     0.240 C 
ATOM     44  O5  non d ame     -33.105  14.365  25.316  0.00  0.00    -0.271 OA
ATOM     45  N6  non d ame     -31.616  14.426  27.099  0.00  0.00    -0.355 N 
ATOM     46  H46 non d ame     -30.671  14.271  27.417  0.00  0.00     0.162 HD
BRANCH  45  47
ATOM     47  C20 non d ame     -32.644  14.896  28.053  0.00  0.00     0.013 C 
ATOM     48  H30 non d ame     -33.619  14.593  27.672  0.00  0.00     0.072 H 
BRANCH  47  49
ATOM     49  C21 non d ame     -32.576  16.403  28.158  0.00  0.00    -0.038 C 
ATOM     50  H31 non d ame     -32.685  16.629  29.219  0.00  0.00     0.036 H 
ATOM     51  H32 non d ame     -31.668  16.694  27.630  0.00  0.00     0.036 H 
BRANCH  49  52
ATOM     52  C22 non d ame     -33.746  17.108  27.438  0.00  0.00     0.018 C 
ATOM     53  H33 non d ame     -34.366  16.310  27.031  0.00  0.00     0.048 H 
ATOM     54  H34 non d ame     -34.163  17.805  28.165  0.00  0.00     0.048 H 
BRANCH  52  55
ATOM     55  C23 non d ame     -33.305  17.969  26.222  0.00  0.00     0.259 C 
ATOM     56  O7  non d ame     -32.353  17.664  25.580  0.00  0.00    -0.265 OA
BRANCH  55  57
ATOM     57  O8  non d ame     -34.046  19.137  25.891  0.00  0.00    -0.317 OA
BRANCH  57  58
ATOM     58  C29 non d ame     -34.054  20.132  26.918  0.00  0.00     0.052 C 
ATOM     59  H47 non d ame     -33.478  19.711  27.741  0.00  0.00     0.082 H 
ATOM     60  H48 non d ame     -33.727  21.054  26.439  0.00  0.00     0.082 H 
BRANCH  58  61
ATOM     61  C35 non d ame     -35.521  20.320  27.391  0.00  0.00    -0.034 A 
ATOM     62  C30 non d ame     -35.911  19.867  28.647  0.00  0.00    -0.075 A 
ATOM     63  C31 non d ame     -37.228  20.035  29.072  0.00  0.00    -0.082 A 
ATOM     64  H49 non d ame     -35.185  19.380  29.298  0.00  0.00     0.084 H 
ATOM     65  C32 non d ame     -38.158  20.657  28.234  0.00  0.00    -0.083 A 
ATOM     66  H50 non d ame     -37.530  19.680  30.057  0.00  0.00     0.083 H 
ATOM     67  C33 non d ame     -37.764  21.104  26.980  0.00  0.00    -0.082 A 
ATOM     68  H51 non d ame     -39.189  20.793  28.558  0.00  0.00     0.083 H 
ATOM     69  C34 non d ame     -36.449  20.940  26.552  0.00  0.00    -0.075 A 
ATOM     70  H52 non d ame     -38.493  21.587  26.327  0.00  0.00     0.083 H 
ATOM     71  H53 non d ame     -36.147  21.295  25.566  0.00  0.00     0.084 H 
ENDBRANCH  58  61
ENDBRANCH  57  58
ENDBRANCH  55  57
ENDBRANCH  52  55
ENDBRANCH  49  52
ENDBRANCH  47  49
BRANCH  47  72
ATOM     72  C24 non d ame     -32.395  14.277  29.427  0.00  0.00    -0.039 C 
ATOM     73  H35 non d ame     -31.654  14.918  29.904  0.00  0.00     0.036 H 
ATOM     74  H36 non d ame     -33.382  14.158  29.875  0.00  0.00     0.036 H 
BRANCH  72  75
ATOM     75  C25 non d ame     -31.751  12.815  29.310  0.00  0.00    -0.001 C 
ATOM     76  C26 non d ame     -32.940  11.681  29.259  0.00  0.00    -0.035 C 
ATOM     77  C27 non d ame     -32.679  10.733  30.191  0.00  0.00     0.085 C 
ATOM     78  H38 non d ame     -33.883  12.113  29.593  0.00  0.00     0.036 H 
ATOM     79  H39 non d ame     -32.895  11.132  28.318  0.00  0.00     0.036 H 
ATOM     80  N5  non d ame     -31.601  11.284  31.092  0.00  0.00    -0.049 N 
ATOM     81  H40 non d ame     -33.601  10.626  30.763  0.00  0.00     0.075 H 
ATOM     82  H41 non d ame     -32.280   9.883  29.638  0.00  0.00     0.075 H 
ATOM     83  C28 non d ame     -30.985  12.560  30.317  0.00  0.00     0.193 C 
ATOM     84  H42 non d ame     -32.065  11.609  31.928  0.00  0.00     0.280 HD
ATOM     85  H43 non d ame     -30.889  10.571  31.154  0.00  0.00     0.280 HD
ATOM     86  H44 non d ame     -30.018  12.491  29.819  0.00  0.00     0.129 H 
ATOM     87  H37 non d ame     -30.983  12.763  28.538  0.00  0.00     0.046 H 
BRANCH  83  88
ATOM     88  O6  non d ame     -30.877  13.672  31.208  0.00  0.00    -0.369 OA
ATOM     89  H45 non d ame     -31.697  13.771  31.697  0.00  0.00     0.212 HD
ENDBRANCH  83  88
ENDBRANCH  72  75
ENDBRANCH  47  72
ENDBRANCH  45  47
ENDBRANCH   1  43
BRANCH   1  90
ATOM     90  C16 non d ame     -30.704  14.744  23.585  0.00  0.00    -0.035 C 
ATOM     91  H21 non d ame     -31.674  14.866  23.103  0.00  0.00     0.037 H 
ATOM     92  H22 non d ame     -30.241  15.587  24.098  0.00  0.00     0.037 H 
BRANCH  90  93
ATOM     93  C17 non d ame     -29.707  14.306  22.466  0.00  0.00    -0.059 C 
ATOM     94  H23 non d ame     -29.595  13.224  22.528  0.00  0.00     0.038 H 
BRANCH  93  95
ATOM     95  C18 non d ame     -30.239  14.649  21.037  0.00  0.00    -0.073 C 
ATOM     96  H24 non d ame     -30.078  13.798  20.376  0.00  0.00     0.028 H 
ATOM     97  H25 non d ame     -31.304  14.871  21.089  0.00  0.00     0.028 H 
ATOM     98  H26 non d ame     -29.705  15.516  20.649  0.00  0.00     0.028 H 
ENDBRANCH  93  95
BRANCH  93  99
ATOM     99  C19 non d ame     -28.324  14.921  22.694  0.00  0.00    -0.073 C 
ATOM    100  H27 non d ame     -27.954  14.629  23.678  0.00  0.00     0.028 H 
ATOM    101  H28 non d ame     -27.636  14.565  21.927  0.00  0.00     0.028 H 
ATOM    102  H29 non d ame     -28.396  16.007  22.641  0.00  0.00     0.028 H 
ENDBRANCH  93  99
ENDBRANCH  90  93
ENDBRANCH   1  90
TORSDOF 26
ENDMDL
MODEL 9
REMARK VINA RESULT:      -6.9      1.930      8.585
REMARK  26 active torsions:
REMARK  status: ('A' for Active; 'I' for Inactive)
REMARK    1  A    between atoms: C2_2  and  C3_3 
REMARK    2  A    between atoms: C4_6  and  C5_7 
REMARK       I    between atoms: C5_7  and  N2_9 
REMARK    3  A    between atoms: N2_9  and  C6_10 
REMARK    4  A    between atoms: C6_10  and  C7_11 
REMARK    5  A    between atoms: C6_10  and  C8_13 
REMARK       I    between atoms: C7_11  and  N3_14 
REMARK    6  A    between atoms: N3_14  and  C9_15 
REMARK    7  A    between atoms: C9_15  and  C10_16 
REMARK    8  A    between atoms: C9_15  and  C11_18 
REMARK       I    between atoms: C10_16  and  N4_21 
REMARK    9  A    between atoms: C11_18  and  C12_19 
REMARK   10  A    between atoms: C11_18  and  C13_20 
REMARK   11  A    between atoms: N4_21  and  C14_22 
REMARK   12  A    between atoms: C14_22  and  C15_23 
REMARK   13  A    between atoms: C14_22  and  C16_25 
REMARK       I    between atoms: C15_23  and  N6_40 
REMARK   14  A    between atoms: C16_25  and  C17_26 
REMARK   15  A    between atoms: C17_26  and  C18_27 
REMARK   16  A    between atoms: C17_26  and  C19_28 
REMARK   17  A    between atoms: C20_29  and  C21_30 
REMARK   18  A    between atoms: C20_29  and  C24_33 
REMARK   19  A    between atoms: C20_29  and  N6_40 
REMARK   20  A    between atoms: C21_30  and  C22_31 
REMARK   21  A    between atoms: C22_31  and  C23_32 
REMARK   22  A    between atoms: C23_32  and  O8_43 
REMARK   23  A    between atoms: C24_33  and  C25_34 
REMARK   24  A    between atoms: C28_38  and  O6_39 
REMARK   25  A    between atoms: C29_42  and  O8_43 
REMARK   26  A    between atoms: C29_42  and  C35_49 
ROOT
ATOM      1  C14 non d ame     -37.556  13.930  25.100  0.00  0.00     0.089 C 
ATOM      2  H20 non d ame     -38.589  13.974  25.447  0.00  0.00     0.087 H 
ENDROOT
BRANCH   1   3
ATOM      3  N4  non d ame     -37.002  15.271  25.201  0.00  0.00    -0.346 N 
ATOM      4  C10 non d ame     -37.470  16.210  26.284  0.00  0.00     0.241 C 
ATOM      5  O4  non d ame     -38.297  15.864  27.062  0.00  0.00    -0.271 OA
ATOM      6  H19 non d ame     -36.301  15.548  24.528  0.00  0.00     0.163 HD
BRANCH   4   7
ATOM      7  C9  non d ame     -36.882  17.594  26.376  0.00  0.00     0.092 C 
ATOM      8  H11 non d ame     -37.279  18.094  27.260  0.00  0.00     0.088 H 
BRANCH   7   9
ATOM      9  N3  non d ame     -35.429  17.496  26.549  0.00  0.00    -0.346 N 
ATOM     10  C7  non d ame     -34.804  18.064  27.718  0.00  0.00     0.240 C 
ATOM     11  O3  non d ame     -35.453  18.603  28.529  0.00  0.00    -0.271 OA
ATOM     12  H10 non d ame     -34.855  17.036  25.857  0.00  0.00     0.163 HD
BRANCH  10  13
ATOM     13  C6  non d ame     -33.257  17.960  27.895  0.00  0.00     0.086 C 
ATOM     14  H6  non d ame     -32.902  18.453  28.800  0.00  0.00     0.086 H 
BRANCH  13  15
ATOM     15  N2  non d ame     -32.889  16.559  28.014  0.00  0.00    -0.343 N 
ATOM     16  C5  non d ame     -32.106  16.114  29.169  0.00  0.00     0.273 C 
ATOM     17  O2  non d ame     -31.774  16.891  29.995  0.00  0.00    -0.266 OA
ATOM     18  H5  non d ame     -33.174  15.902  27.301  0.00  0.00     0.163 HD
BRANCH  16  19
ATOM     19  C4  non d ame     -31.711  14.635  29.307  0.00  0.00     0.154 A 
ATOM     20  C1  non d ame     -32.498  13.579  29.867  0.00  0.00    -0.017 A 
ATOM     21  C2  non d ame     -31.689  12.426  29.759  0.00  0.00     0.077 A 
ATOM     22  H1  non d ame     -33.502  13.640  30.286  0.00  0.00     0.091 H 
ATOM     23  O1  non d ame     -30.571  12.788  29.200  0.00  0.00    -0.218 OA
ATOM     24  N1  non d ame     -30.560  14.073  28.928  0.00  0.00    -0.123 NA
BRANCH  21  25
ATOM     25  C3  non d ame     -32.058  11.020  30.211  0.00  0.00    -0.029 C 
ATOM     26  H2  non d ame     -33.099  11.003  30.533  0.00  0.00     0.036 H 
ATOM     27  H3  non d ame     -31.922  10.324  29.383  0.00  0.00     0.036 H 
ATOM     28  H4  non d ame     -31.416  10.725  31.041  0.00  0.00     0.036 H 
ENDBRANCH  21  25
ENDBRANCH  16  19
ENDBRANCH  13  15
BRANCH  13  29
ATOM     29  C8  non d ame     -32.569  18.575  26.703  0.00  0.00    -0.049 C 
ATOM     30  H7  non d ame     -32.220  17.786  26.038  0.00  0.00     0.030 H 
ATOM     31  H8  non d ame     -33.272  19.215  26.170  0.00  0.00     0.030 H 
ATOM     32  H9  non d ame     -31.720  19.170  27.040  0.00  0.00     0.030 H 
ENDBRANCH  13  29
ENDBRANCH  10  13
ENDBRANCH   7   9
BRANCH   7  33
ATOM     33  C11 non d ame     -37.194  18.379  25.069  0.00  0.00    -0.033 C 
ATOM     34  H12 non d ame     -36.930  17.736  24.229  0.00  0.00     0.042 H 
BRANCH  33  35
ATOM     35  C12 non d ame     -38.716  18.703  24.951  0.00  0.00    -0.071 C 
ATOM     36  H13 non d ame     -38.843  19.725  24.593  0.00  0.00     0.028 H 
ATOM     37  H14 non d ame     -39.182  18.012  24.248  0.00  0.00     0.028 H 
ATOM     38  H15 non d ame     -39.187  18.600  25.928  0.00  0.00     0.028 H 
ENDBRANCH  33  35
BRANCH  33  39
ATOM     39  C13 non d ame     -36.330  19.676  24.975  0.00  0.00    -0.071 C 
ATOM     40  H16 non d ame     -36.131  19.906  23.928  0.00  0.00     0.028 H 
ATOM     41  H17 non d ame     -36.869  20.506  25.433  0.00  0.00     0.028 H 
ATOM     42  H18 non d ame     -35.387  19.523  25.500  0.00  0.00     0.028 H 
ENDBRANCH  33  39
ENDBRANCH   7  33
ENDBRANCH   4   7
ENDBRANCH   1   3
BRANCH   1  43
ATOM     43  C15 non d ame     -36.688  12.969  25.963  0.00  0.00     0.240 C 
ATOM     44  O5  non d ame     -36.923  12.839  27.121  0.00  0.00    -0.271 OA
ATOM     45  N6  non d ame     -35.568  12.205  25.344  0.00  0.00    -0.355 N 
ATOM     46  H46 non d ame     -35.362  12.303  24.361  0.00  0.00     0.162 HD
BRANCH  45  47
ATOM     47  C20 non d ame     -34.753  11.295  26.178  0.00  0.00     0.013 C 
ATOM     48  H30 non d ame     -35.401  10.874  26.947  0.00  0.00     0.072 H 
BRANCH  47  49
ATOM     49  C21 non d ame     -33.630  12.077  26.820  0.00  0.00    -0.038 C 
ATOM     50  H31 non d ame     -34.113  12.845  27.424  0.00  0.00     0.036 H 
ATOM     51  H32 non d ame     -32.988  11.334  27.294  0.00  0.00     0.036 H 
BRANCH  49  52
ATOM     52  C22 non d ame     -32.752  12.820  25.789  0.00  0.00     0.018 C 
ATOM     53  H33 non d ame     -31.723  12.663  26.111  0.00  0.00     0.048 H 
ATOM     54  H34 non d ame     -33.077  12.463  24.812  0.00  0.00     0.048 H 
BRANCH  52  55
ATOM     55  C23 non d ame     -32.967  14.359  25.777  0.00  0.00     0.259 C 
ATOM     56  O7  non d ame     -34.051  14.818  25.940  0.00  0.00    -0.265 OA
BRANCH  55  57
ATOM     57  O8  non d ame     -31.853  15.216  25.556  0.00  0.00    -0.317 OA
BRANCH  57  58
ATOM     58  C29 non d ame     -30.687  14.543  25.074  0.00  0.00     0.052 C 
ATOM     59  H47 non d ame     -29.845  15.010  25.585  0.00  0.00     0.082 H 
ATOM     60  H48 non d ame     -30.884  13.480  25.207  0.00  0.00     0.082 H 
BRANCH  58  61
ATOM     61  C35 non d ame     -30.561  14.833  23.555  0.00  0.00    -0.034 A 
ATOM     62  C30 non d ame     -29.855  13.958  22.735  0.00  0.00    -0.075 A 
ATOM     63  C31 non d ame     -29.742  14.218  21.370  0.00  0.00    -0.082 A 
ATOM     64  H49 non d ame     -29.391  13.068  23.161  0.00  0.00     0.084 H 
ATOM     65  C32 non d ame     -30.335  15.360  20.825  0.00  0.00    -0.083 A 
ATOM     66  H50 non d ame     -29.190  13.529  20.730  0.00  0.00     0.083 H 
ATOM     67  C33 non d ame     -31.034  16.232  21.648  0.00  0.00    -0.082 A 
ATOM     68  H51 non d ame     -30.251  15.571  19.759  0.00  0.00     0.083 H 
ATOM     69  C34 non d ame     -31.152  15.975  23.012  0.00  0.00    -0.075 A 
ATOM     70  H52 non d ame     -31.494  17.124  21.221  0.00  0.00     0.083 H 
ATOM     71  H53 non d ame     -31.705  16.665  23.652  0.00  0.00     0.084 H 
ENDBRANCH  58  61
ENDBRANCH  57  58
ENDBRANCH  55  57
ENDBRANCH  52  55
ENDBRANCH  49  52
ENDBRANCH  47  49
BRANCH  47  72
ATOM     72  C24 non d ame     -34.169  10.183  25.309  0.00  0.00    -0.039 C 
ATOM     73  H35 non d ame     -34.849  10.089  24.462  0.00  0.00     0.036 H 
ATOM     74  H36 non d ame     -33.128  10.461  25.143  0.00  0.00     0.036 H 
BRANCH  72  75
ATOM     75  C25 non d ame     -34.166   8.774  26.072  0.00  0.00    -0.001 C 
ATOM     76  C26 non d ame     -34.914   8.925  27.529  0.00  0.00    -0.035 C 
ATOM     77  C27 non d ame     -34.103   8.421  28.490  0.00  0.00     0.085 C 
ATOM     78  H38 non d ame     -35.002   9.978  27.796  0.00  0.00     0.036 H 
ATOM     79  H39 non d ame     -35.790   8.277  27.569  0.00  0.00     0.036 H 
ATOM     80  N5  non d ame     -32.740   8.240  27.867  0.00  0.00    -0.049 N 
ATOM     81  H40 non d ame     -34.044   9.194  29.256  0.00  0.00     0.075 H 
ATOM     82  H41 non d ame     -34.515   7.442  28.734  0.00  0.00     0.075 H 
ATOM     83  C28 non d ame     -32.962   8.353  26.272  0.00  0.00     0.193 C 
ATOM     84  H42 non d ame     -32.180   9.024  28.170  0.00  0.00     0.280 HD
ATOM     85  H43 non d ame     -32.449   7.297  28.085  0.00  0.00     0.280 HD
ATOM     86  H44 non d ame     -32.959   7.459  25.648  0.00  0.00     0.129 H 
ATOM     87  H37 non d ame     -34.492   7.956  25.430  0.00  0.00     0.046 H 
BRANCH  83  88
ATOM     88  O6  non d ame     -31.985   9.223  25.699  0.00  0.00    -0.369 OA
ATOM     89  H45 non d ame     -31.441   9.597  26.396  0.00  0.00     0.212 HD
ENDBRANCH  83  88
ENDBRANCH  72  75
ENDBRANCH  47  72
ENDBRANCH  45  47
ENDBRANCH   1  43
BRANCH   1  90
ATOM     90  C16 non d ame     -37.519  13.485  23.647  0.00  0.00    -0.035 C 
ATOM     91  H21 non d ame     -36.463  13.461  23.379  0.00  0.00     0.037 H 
ATOM     92  H22 non d ame     -38.112  12.571  23.610  0.00  0.00     0.037 H 
BRANCH  90  93
ATOM     93  C17 non d ame     -38.200  14.492  22.666  0.00  0.00    -0.059 C 
ATOM     94  H23 non d ame     -37.797  15.483  22.878  0.00  0.00     0.038 H 
BRANCH  93  95
ATOM     95  C18 non d ame     -37.889  14.160  21.172  0.00  0.00    -0.073 C 
ATOM     96  H24 non d ame     -37.989  15.064  20.570  0.00  0.00     0.028 H 
ATOM     97  H25 non d ame     -36.871  13.780  21.088  0.00  0.00     0.028 H 
ATOM     98  H26 non d ame     -38.589  13.406  20.814  0.00  0.00     0.028 H 
ENDBRANCH  93  95
BRANCH  93  99
ATOM     99  C19 non d ame     -39.710  14.554  22.908  0.00  0.00    -0.073 C 
ATOM    100  H27 non d ame     -39.906  14.586  23.980  0.00  0.00     0.028 H 
ATOM    101  H28 non d ame     -40.117  15.450  22.437  0.00  0.00     0.028 H 
ATOM    102  H29 non d ame     -40.183  13.672  22.477  0.00  0.00     0.028 H 
ENDBRANCH  93  99
ENDBRANCH  90  93
ENDBRANCH   1  90
TORSDOF 26
ENDMDL
MODEL 10
REMARK VINA RESULT:      -6.8      1.869      4.883
REMARK  26 active torsions:
REMARK  status: ('A' for Active; 'I' for Inactive)
REMARK    1  A    between atoms: C2_2  and  C3_3 
REMARK    2  A    between atoms: C4_6  and  C5_7 
REMARK       I    between atoms: C5_7  and  N2_9 
REMARK    3  A    between atoms: N2_9  and  C6_10 
REMARK    4  A    between atoms: C6_10  and  C7_11 
REMARK    5  A    between atoms: C6_10  and  C8_13 
REMARK       I    between atoms: C7_11  and  N3_14 
REMARK    6  A    between atoms: N3_14  and  C9_15 
REMARK    7  A    between atoms: C9_15  and  C10_16 
REMARK    8  A    between atoms: C9_15  and  C11_18 
REMARK       I    between atoms: C10_16  and  N4_21 
REMARK    9  A    between atoms: C11_18  and  C12_19 
REMARK   10  A    between atoms: C11_18  and  C13_20 
REMARK   11  A    between atoms: N4_21  and  C14_22 
REMARK   12  A    between atoms: C14_22  and  C15_23 
REMARK   13  A    between atoms: C14_22  and  C16_25 
REMARK       I    between atoms: C15_23  and  N6_40 
REMARK   14  A    between atoms: C16_25  and  C17_26 
REMARK   15  A    between atoms: C17_26  and  C18_27 
REMARK   16  A    between atoms: C17_26  and  C19_28 
REMARK   17  A    between atoms: C20_29  and  C21_30 
REMARK   18  A    between atoms: C20_29  and  C24_33 
REMARK   19  A    between atoms: C20_29  and  N6_40 
REMARK   20  A    between atoms: C21_30  and  C22_31 
REMARK   21  A    between atoms: C22_31  and  C23_32 
REMARK   22  A    between atoms: C23_32  and  O8_43 
REMARK   23  A    between atoms: C24_33  and  C25_34 
REMARK   24  A    between atoms: C28_38  and  O6_39 
REMARK   25  A    between atoms: C29_42  and  O8_43 
REMARK   26  A    between atoms: C29_42  and  C35_49 
ROOT
ATOM      1  C14 non d ame     -32.643   9.936  24.867  0.00  0.00     0.089 C 
ATOM      2  H20 non d ame     -32.476   9.152  25.606  0.00  0.00     0.087 H 
ENDROOT
BRANCH   1   3
ATOM      3  N4  non d ame     -33.995  10.439  25.061  0.00  0.00    -0.346 N 
ATOM      4  C10 non d ame     -35.003   9.633  25.841  0.00  0.00     0.241 C 
ATOM      5  O4  non d ame     -34.704   8.581  26.302  0.00  0.00    -0.271 OA
ATOM      6  H19 non d ame     -34.231  11.335  24.658  0.00  0.00     0.163 HD
BRANCH   4   7
ATOM      7  C9  non d ame     -36.396  10.172  26.036  0.00  0.00     0.092 C 
ATOM      8  H11 non d ame     -36.576  10.324  27.100  0.00  0.00     0.088 H 
BRANCH   7   9
ATOM      9  N3  non d ame     -36.511  11.480  25.385  0.00  0.00    -0.346 N 
ATOM     10  C7  non d ame     -36.972  12.621  26.138  0.00  0.00     0.240 C 
ATOM     11  O3  non d ame     -37.256  12.504  27.267  0.00  0.00    -0.271 OA
ATOM     12  H10 non d ame     -36.270  11.597  24.412  0.00  0.00     0.163 HD
BRANCH  10  13
ATOM     13  C6  non d ame     -37.094  14.011  25.439  0.00  0.00     0.086 C 
ATOM     14  H6  non d ame     -38.000  14.547  25.723  0.00  0.00     0.086 H 
BRANCH  13  15
ATOM     15  N2  non d ame     -35.974  14.843  25.846  0.00  0.00    -0.343 N 
ATOM     16  C5  non d ame     -36.180  15.892  26.847  0.00  0.00     0.273 C 
ATOM     17  O2  non d ame     -37.252  16.059  27.318  0.00  0.00    -0.266 OA
ATOM     18  H5  non d ame     -35.062  14.695  25.437  0.00  0.00     0.163 HD
BRANCH  16  19
ATOM     19  C4  non d ame     -35.005  16.778  27.288  0.00  0.00     0.154 A 
ATOM     20  C1  non d ame     -34.333  17.773  26.509  0.00  0.00    -0.017 A 
ATOM     21  C2  non d ame     -33.338  18.294  27.366  0.00  0.00     0.077 A 
ATOM     22  H1  non d ame     -34.536  18.071  25.480  0.00  0.00     0.091 H 
ATOM     23  O1  non d ame     -33.437  17.667  28.501  0.00  0.00    -0.218 OA
ATOM     24  N1  non d ame     -34.402  16.777  28.480  0.00  0.00    -0.123 NA
BRANCH  21  25
ATOM     25  C3  non d ame     -32.337  19.389  27.023  0.00  0.00    -0.029 C 
ATOM     26  H2  non d ame     -32.720  19.987  26.196  0.00  0.00     0.036 H 
ATOM     27  H3  non d ame     -32.186  20.028  27.893  0.00  0.00     0.036 H 
ATOM     28  H4  non d ame     -31.388  18.937  26.736  0.00  0.00     0.036 H 
ENDBRANCH  21  25
ENDBRANCH  16  19
ENDBRANCH  13  15
BRANCH  13  29
ATOM     29  C8  non d ame     -37.084  13.827  23.943  0.00  0.00    -0.049 C 
ATOM     30  H7  non d ame     -38.104  13.888  23.563  0.00  0.00     0.030 H 
ATOM     31  H8  non d ame     -36.478  14.608  23.485  0.00  0.00     0.030 H 
ATOM     32  H9  non d ame     -36.664  12.851  23.700  0.00  0.00     0.030 H 
ENDBRANCH  13  29
ENDBRANCH  10  13
ENDBRANCH   7   9
BRANCH   7  33
ATOM     33  C11 non d ame     -37.425   9.189  25.403  0.00  0.00    -0.033 C 
ATOM     34  H12 non d ame     -37.034   8.179  25.527  0.00  0.00     0.042 H 
BRANCH  33  35
ATOM     35  C12 non d ame     -38.800   9.253  26.140  0.00  0.00    -0.071 C 
ATOM     36  H13 non d ame     -39.436   9.996  25.658  0.00  0.00     0.028 H 
ATOM     37  H14 non d ame     -39.282   8.278  26.094  0.00  0.00     0.028 H 
ATOM     38  H15 non d ame     -38.641   9.532  27.181  0.00  0.00     0.028 H 
ENDBRANCH  33  35
BRANCH  33  39
ATOM     39  C13 non d ame     -37.589   9.461  23.873  0.00  0.00    -0.071 C 
ATOM     40  H16 non d ame     -38.069  10.428  23.725  0.00  0.00     0.028 H 
ATOM     41  H17 non d ame     -36.608   9.465  23.397  0.00  0.00     0.028 H 
ATOM     42  H18 non d ame     -38.204   8.678  23.429  0.00  0.00     0.028 H 
ENDBRANCH  33  39
ENDBRANCH   7  33
ENDBRANCH   4   7
ENDBRANCH   1   3
BRANCH   1  43
ATOM     43  C15 non d ame     -31.647  11.119  25.031  0.00  0.00     0.240 C 
ATOM     44  O5  non d ame     -30.724  11.016  25.773  0.00  0.00    -0.271 OA
ATOM     45  N6  non d ame     -31.838  12.378  24.256  0.00  0.00    -0.355 N 
ATOM     46  H46 non d ame     -32.616  12.475  23.619  0.00  0.00     0.162 HD
BRANCH  45  47
ATOM     47  C20 non d ame     -30.881  13.493  24.421  0.00  0.00     0.013 C 
ATOM     48  H30 non d ame     -30.188  13.225  25.219  0.00  0.00     0.072 H 
BRANCH  47  49
ATOM     49  C21 non d ame     -31.637  14.749  24.795  0.00  0.00    -0.038 C 
ATOM     50  H31 non d ame     -31.157  15.557  24.242  0.00  0.00     0.036 H 
ATOM     51  H32 non d ame     -32.689  14.520  24.624  0.00  0.00     0.036 H 
BRANCH  49  52
ATOM     52  C22 non d ame     -31.504  15.105  26.291  0.00  0.00     0.018 C 
ATOM     53  H33 non d ame     -30.460  14.926  26.546  0.00  0.00     0.048 H 
ATOM     54  H34 non d ame     -31.926  16.105  26.395  0.00  0.00     0.048 H 
BRANCH  52  55
ATOM     55  C23 non d ame     -32.337  14.189  27.230  0.00  0.00     0.259 C 
ATOM     56  O7  non d ame     -33.325  13.660  26.834  0.00  0.00    -0.265 OA
BRANCH  55  57
ATOM     57  O8  non d ame     -31.914  13.999  28.574  0.00  0.00    -0.317 OA
BRANCH  57  58
ATOM     58  C29 non d ame     -31.213  12.772  28.795  0.00  0.00     0.052 C 
ATOM     59  H47 non d ame     -30.952  12.398  27.805  0.00  0.00     0.082 H 
ATOM     60  H48 non d ame     -30.427  13.006  29.513  0.00  0.00     0.082 H 
BRANCH  58  61
ATOM     61  C35 non d ame     -32.197  11.770  29.455  0.00  0.00    -0.034 A 
ATOM     62  C30 non d ame     -32.661  11.998  30.747  0.00  0.00    -0.075 A 
ATOM     63  C31 non d ame     -33.546  11.099  31.340  0.00  0.00    -0.082 A 
ATOM     64  H49 non d ame     -32.333  12.882  31.294  0.00  0.00     0.084 H 
ATOM     65  C32 non d ame     -33.963   9.965  30.638  0.00  0.00    -0.083 A 
ATOM     66  H50 non d ame     -33.909  11.281  32.352  0.00  0.00     0.083 H 
ATOM     67  C33 non d ame     -33.495   9.740  29.351  0.00  0.00    -0.082 A 
ATOM     68  H51 non d ame     -34.655   9.257  31.094  0.00  0.00     0.083 H 
ATOM     69  C34 non d ame     -32.613  10.637  28.753  0.00  0.00    -0.075 A 
ATOM     70  H52 non d ame     -33.821   8.853  28.806  0.00  0.00     0.083 H 
ATOM     71  H53 non d ame     -32.250  10.454  27.741  0.00  0.00     0.084 H 
ENDBRANCH  58  61
ENDBRANCH  57  58
ENDBRANCH  55  57
ENDBRANCH  52  55
ENDBRANCH  49  52
ENDBRANCH  47  49
BRANCH  47  72
ATOM     72  C24 non d ame     -30.124  13.723  23.115  0.00  0.00    -0.039 C 
ATOM     73  H35 non d ame     -29.080  13.506  23.343  0.00  0.00     0.036 H 
ATOM     74  H36 non d ame     -30.652  13.132  22.366  0.00  0.00     0.036 H 
BRANCH  72  75
ATOM     75  C25 non d ame     -30.198  15.253  22.648  0.00  0.00    -0.001 C 
ATOM     76  C26 non d ame     -31.192  15.394  21.345  0.00  0.00    -0.035 C 
ATOM     77  C27 non d ame     -30.540  16.072  20.371  0.00  0.00     0.085 C 
ATOM     78  H38 non d ame     -31.366  14.414  20.901  0.00  0.00     0.036 H 
ATOM     79  H39 non d ame     -32.035  16.041  21.586  0.00  0.00     0.036 H 
ATOM     80  N5  non d ame     -29.084  16.122  20.766  0.00  0.00    -0.049 N 
ATOM     81  H40 non d ame     -30.644  15.464  19.472  0.00  0.00     0.075 H 
ATOM     82  H41 non d ame     -30.949  17.082  20.395  0.00  0.00     0.075 H 
ATOM     83  C28 non d ame     -29.031  15.700  22.323  0.00  0.00     0.193 C 
ATOM     84  H42 non d ame     -28.616  15.410  20.223  0.00  0.00     0.280 HD
ATOM     85  H43 non d ame     -28.799  17.088  20.684  0.00  0.00     0.280 HD
ATOM     86  H44 non d ame     -28.885  16.454  23.096  0.00  0.00     0.129 H 
ATOM     87  H37 non d ame     -30.377  15.932  23.483  0.00  0.00     0.046 H 
BRANCH  83  88
ATOM     88  O6  non d ame     -28.004  14.730  22.537  0.00  0.00    -0.369 OA
ATOM     89  H45 non d ame     -27.936  14.538  23.475  0.00  0.00     0.212 HD
ENDBRANCH  83  88
ENDBRANCH  72  75
ENDBRANCH  47  72
ENDBRANCH  45  47
ENDBRANCH   1  43
BRANCH   1  90
ATOM     90  C16 non d ame     -32.525   9.358  23.466  0.00  0.00    -0.035 C 
ATOM     91  H21 non d ame     -33.333   8.632  23.384  0.00  0.00     0.037 H 
ATOM     92  H22 non d ame     -32.497  10.220  22.800  0.00  0.00     0.037 H 
BRANCH  90  93
ATOM     93  C17 non d ame     -31.198   8.569  23.224  0.00  0.00    -0.059 C 
ATOM     94  H23 non d ame     -30.729   8.405  24.194  0.00  0.00     0.038 H 
BRANCH  93  95
ATOM     95  C18 non d ame     -31.454   7.171  22.576  0.00  0.00    -0.073 C 
ATOM     96  H24 non d ame     -32.526   6.984  22.525  0.00  0.00     0.028 H 
ATOM     97  H25 non d ame     -31.035   7.154  21.570  0.00  0.00     0.028 H 
ATOM     98  H26 non d ame     -30.979   6.398  23.180  0.00  0.00     0.028 H 
ENDBRANCH  93  95
BRANCH  93  99
ATOM     99  C19 non d ame     -30.221   9.390  22.379  0.00  0.00    -0.073 C 
ATOM    100  H27 non d ame     -30.473   9.283  21.324  0.00  0.00     0.028 H 
ATOM    101  H28 non d ame     -30.288  10.441  22.664  0.00  0.00     0.028 H 
ATOM    102  H29 non d ame     -29.205   9.033  22.549  0.00  0.00     0.028 H 
ENDBRANCH  93  99
ENDBRANCH  90  93
ENDBRANCH   1  90
TORSDOF 26
ENDMDL
MODEL 11
REMARK VINA RESULT:      -6.8      2.879      7.417
REMARK  26 active torsions:
REMARK  status: ('A' for Active; 'I' for Inactive)
REMARK    1  A    between atoms: C2_2  and  C3_3 
REMARK    2  A    between atoms: C4_6  and  C5_7 
REMARK       I    between atoms: C5_7  and  N2_9 
REMARK    3  A    between atoms: N2_9  and  C6_10 
REMARK    4  A    between atoms: C6_10  and  C7_11 
REMARK    5  A    between atoms: C6_10  and  C8_13 
REMARK       I    between atoms: C7_11  and  N3_14 
REMARK    6  A    between atoms: N3_14  and  C9_15 
REMARK    7  A    between atoms: C9_15  and  C10_16 
REMARK    8  A    between atoms: C9_15  and  C11_18 
REMARK       I    between atoms: C10_16  and  N4_21 
REMARK    9  A    between atoms: C11_18  and  C12_19 
REMARK   10  A    between atoms: C11_18  and  C13_20 
REMARK   11  A    between atoms: N4_21  and  C14_22 
REMARK   12  A    between atoms: C14_22  and  C15_23 
REMARK   13  A    between atoms: C14_22  and  C16_25 
REMARK       I    between atoms: C15_23  and  N6_40 
REMARK   14  A    between atoms: C16_25  and  C17_26 
REMARK   15  A    between atoms: C17_26  and  C18_27 
REMARK   16  A    between atoms: C17_26  and  C19_28 
REMARK   17  A    between atoms: C20_29  and  C21_30 
REMARK   18  A    between atoms: C20_29  and  C24_33 
REMARK   19  A    between atoms: C20_29  and  N6_40 
REMARK   20  A    between atoms: C21_30  and  C22_31 
REMARK   21  A    between atoms: C22_31  and  C23_32 
REMARK   22  A    between atoms: C23_32  and  O8_43 
REMARK   23  A    between atoms: C24_33  and  C25_34 
REMARK   24  A    between atoms: C28_38  and  O6_39 
REMARK   25  A    between atoms: C29_42  and  O8_43 
REMARK   26  A    between atoms: C29_42  and  C35_49 
ROOT
ATOM      1  C14 non d ame     -35.333  14.149  26.309  0.00  0.00     0.089 C 
ATOM      2  H20 non d ame     -35.754  14.642  27.185  0.00  0.00     0.087 H 
ENDROOT
BRANCH   1   3
ATOM      3  N4  non d ame     -34.244  14.981  25.819  0.00  0.00    -0.346 N 
ATOM      4  C10 non d ame     -33.585  15.987  26.730  0.00  0.00     0.241 C 
ATOM      5  O4  non d ame     -33.951  16.110  27.852  0.00  0.00    -0.271 OA
ATOM      6  H19 non d ame     -33.949  14.863  24.860  0.00  0.00     0.163 HD
BRANCH   4   7
ATOM      7  C9  non d ame     -32.456  16.836  26.208  0.00  0.00     0.092 C 
ATOM      8  H11 non d ame     -31.620  16.789  26.906  0.00  0.00     0.088 H 
BRANCH   7   9
ATOM      9  N3  non d ame     -31.984  16.292  24.931  0.00  0.00    -0.346 N 
ATOM     10  C7  non d ame     -31.197  15.084  24.909  0.00  0.00     0.240 C 
ATOM     11  O3  non d ame     -30.933  14.537  25.910  0.00  0.00    -0.271 OA
ATOM     12  H10 non d ame     -32.203  16.753  24.059  0.00  0.00     0.163 HD
BRANCH  10  13
ATOM     13  C6  non d ame     -30.696  14.511  23.547  0.00  0.00     0.086 C 
ATOM     14  H6  non d ame     -29.628  14.667  23.392  0.00  0.00     0.086 H 
BRANCH  13  15
ATOM     15  N2  non d ame     -30.913  13.074  23.531  0.00  0.00    -0.343 N 
ATOM     16  C5  non d ame     -30.074  12.227  22.680  0.00  0.00     0.273 C 
ATOM     17  O2  non d ame     -29.230  12.712  22.010  0.00  0.00    -0.266 OA
ATOM     18  H5  non d ame     -31.639  12.669  24.105  0.00  0.00     0.163 HD
BRANCH  16  19
ATOM     19  C4  non d ame     -30.292  10.706  22.654  0.00  0.00     0.154 A 
ATOM     20  C1  non d ame     -31.351   9.974  23.279  0.00  0.00    -0.017 A 
ATOM     21  C2  non d ame     -31.096   8.622  22.957  0.00  0.00     0.077 A 
ATOM     22  H1  non d ame     -32.176  10.363  23.874  0.00  0.00     0.091 H 
ATOM     23  O1  non d ame     -30.017   8.593  22.231  0.00  0.00    -0.218 OA
ATOM     24  N1  non d ame     -29.529   9.797  22.041  0.00  0.00    -0.123 NA
BRANCH  21  25
ATOM     25  C3  non d ame     -31.932   7.421  23.380  0.00  0.00    -0.029 C 
ATOM     26  H2  non d ame     -31.355   6.798  24.062  0.00  0.00     0.036 H 
ATOM     27  H3  non d ame     -32.836   7.767  23.882  0.00  0.00     0.036 H 
ATOM     28  H4  non d ame     -32.206   6.840  22.500  0.00  0.00     0.036 H 
ENDBRANCH  21  25
ENDBRANCH  16  19
ENDBRANCH  13  15
BRANCH  13  29
ATOM     29  C8  non d ame     -31.453  15.161  22.417  0.00  0.00    -0.049 C 
ATOM     30  H7  non d ame     -30.796  15.266  21.553  0.00  0.00     0.030 H 
ATOM     31  H8  non d ame     -32.307  14.540  22.149  0.00  0.00     0.030 H 
ATOM     32  H9  non d ame     -31.801  16.145  22.731  0.00  0.00     0.030 H 
ENDBRANCH  13  29
ENDBRANCH  10  13
ENDBRANCH   7   9
BRANCH   7  33
ATOM     33  C11 non d ame     -32.959  18.293  25.994  0.00  0.00    -0.033 C 
ATOM     34  H12 non d ame     -32.494  18.671  25.083  0.00  0.00     0.042 H 
BRANCH  33  35
ATOM     35  C12 non d ame     -34.505  18.336  25.782  0.00  0.00    -0.071 C 
ATOM     36  H13 non d ame     -34.894  19.291  26.136  0.00  0.00     0.028 H 
ATOM     37  H14 non d ame     -34.730  18.222  24.722  0.00  0.00     0.028 H 
ATOM     38  H15 non d ame     -34.970  17.525  26.342  0.00  0.00     0.028 H 
ENDBRANCH  33  35
BRANCH  33  39
ATOM     39  C13 non d ame     -32.524  19.215  27.178  0.00  0.00    -0.071 C 
ATOM     40  H16 non d ame     -32.475  20.249  26.834  0.00  0.00     0.028 H 
ATOM     41  H17 non d ame     -33.250  19.135  27.987  0.00  0.00     0.028 H 
ATOM     42  H18 non d ame     -31.544  18.905  27.538  0.00  0.00     0.028 H 
ENDBRANCH  33  39
ENDBRANCH   7  33
ENDBRANCH   4   7
ENDBRANCH   1   3
BRANCH   1  43
ATOM     43  C15 non d ame     -34.767  12.739  26.642  0.00  0.00     0.240 C 
ATOM     44  O5  non d ame     -34.203  12.114  25.803  0.00  0.00    -0.271 OA
ATOM     45  N6  non d ame     -34.920  12.171  28.012  0.00  0.00    -0.355 N 
ATOM     46  H46 non d ame     -35.392  12.694  28.735  0.00  0.00     0.162 HD
BRANCH  45  47
ATOM     47  C20 non d ame     -34.375  10.829  28.314  0.00  0.00     0.013 C 
ATOM     48  H30 non d ame     -34.282  10.286  27.374  0.00  0.00     0.072 H 
BRANCH  47  49
ATOM     49  C21 non d ame     -35.323  10.102  29.240  0.00  0.00    -0.038 C 
ATOM     50  H31 non d ame     -35.280  10.639  30.188  0.00  0.00     0.036 H 
ATOM     51  H32 non d ame     -36.266  10.028  28.697  0.00  0.00     0.036 H 
BRANCH  49  52
ATOM     52  C22 non d ame     -34.877   8.654  29.538  0.00  0.00     0.018 C 
ATOM     53  H33 non d ame     -35.631   8.013  29.083  0.00  0.00     0.048 H 
ATOM     54  H34 non d ame     -33.839   8.591  29.210  0.00  0.00     0.048 H 
BRANCH  52  55
ATOM     55  C23 non d ame     -34.869   8.299  31.051  0.00  0.00     0.259 C 
ATOM     56  O7  non d ame     -34.280   8.980  31.827  0.00  0.00    -0.265 OA
BRANCH  55  57
ATOM     57  O8  non d ame     -35.566   7.143  31.499  0.00  0.00    -0.317 OA
BRANCH  57  58
ATOM     58  C29 non d ame     -35.753   6.148  30.488  0.00  0.00     0.052 C 
ATOM     59  H47 non d ame     -36.642   5.591  30.784  0.00  0.00     0.082 H 
ATOM     60  H48 non d ame     -35.736   6.684  29.540  0.00  0.00     0.082 H 
BRANCH  58  61
ATOM     61  C35 non d ame     -34.535   5.187  30.531  0.00  0.00    -0.034 A 
ATOM     62  C30 non d ame     -33.900   4.814  29.351  0.00  0.00    -0.075 A 
ATOM     63  C31 non d ame     -32.806   3.951  29.389  0.00  0.00    -0.082 A 
ATOM     64  H49 non d ame     -34.260   5.197  28.396  0.00  0.00     0.084 H 
ATOM     65  C32 non d ame     -32.349   3.458  30.614  0.00  0.00    -0.083 A 
ATOM     66  H50 non d ame     -32.310   3.661  28.463  0.00  0.00     0.083 H 
ATOM     67  C33 non d ame     -32.987   3.830  31.789  0.00  0.00    -0.082 A 
ATOM     68  H51 non d ame     -31.494   2.783  30.653  0.00  0.00     0.083 H 
ATOM     69  C34 non d ame     -34.080   4.695  31.756  0.00  0.00    -0.075 A 
ATOM     70  H52 non d ame     -32.629   3.442  32.743  0.00  0.00     0.083 H 
ATOM     71  H53 non d ame     -34.575   4.983  32.683  0.00  0.00     0.084 H 
ENDBRANCH  58  61
ENDBRANCH  57  58
ENDBRANCH  55  57
ENDBRANCH  52  55
ENDBRANCH  49  52
ENDBRANCH  47  49
BRANCH  47  72
ATOM     72  C24 non d ame     -33.010  10.966  28.986  0.00  0.00    -0.039 C 
ATOM     73  H35 non d ame     -32.960  10.151  29.709  0.00  0.00     0.036 H 
ATOM     74  H36 non d ame     -32.289  11.015  28.170  0.00  0.00     0.036 H 
BRANCH  72  75
ATOM     75  C25 non d ame     -32.888  12.335  29.808  0.00  0.00    -0.001 C 
ATOM     76  C26 non d ame     -31.860  13.361  29.037  0.00  0.00    -0.035 C 
ATOM     77  C27 non d ame     -30.936  13.802  29.924  0.00  0.00     0.085 C 
ATOM     78  H38 non d ame     -31.268  12.816  28.302  0.00  0.00     0.036 H 
ATOM     79  H39 non d ame     -32.387  14.270  28.746  0.00  0.00     0.036 H 
ATOM     80  N5  non d ame     -31.041  12.920  31.145  0.00  0.00    -0.049 N 
ATOM     81  H40 non d ame     -29.971  13.635  29.446  0.00  0.00     0.075 H 
ATOM     82  H41 non d ame     -31.245  14.812  30.189  0.00  0.00     0.075 H 
ATOM     83  C28 non d ame     -32.439  12.126  31.001  0.00  0.00     0.193 C 
ATOM     84  H42 non d ame     -30.284  12.254  31.083  0.00  0.00     0.280 HD
ATOM     85  H43 non d ame     -31.103  13.540  31.940  0.00  0.00     0.280 HD
ATOM     86  H44 non d ame     -33.306  12.419  31.593  0.00  0.00     0.129 H 
ATOM     87  H37 non d ame     -33.861  12.732  30.096  0.00  0.00     0.046 H 
BRANCH  83  88
ATOM     88  O6  non d ame     -32.246  10.736  31.268  0.00  0.00    -0.369 OA
ATOM     89  H45 non d ame     -31.459  10.619  31.805  0.00  0.00     0.212 HD
ENDBRANCH  83  88
ENDBRANCH  72  75
ENDBRANCH  47  72
ENDBRANCH  45  47
ENDBRANCH   1  43
BRANCH   1  90
ATOM     90  C16 non d ame     -36.393  14.031  25.225  0.00  0.00    -0.035 C 
ATOM     91  H21 non d ame     -35.969  14.526  24.352  0.00  0.00     0.037 H 
ATOM     92  H22 non d ame     -36.645  12.971  25.182  0.00  0.00     0.037 H 
BRANCH  90  93
ATOM     93  C17 non d ame     -37.718  14.787  25.560  0.00  0.00    -0.059 C 
ATOM     94  H23 non d ame     -38.401  14.071  26.015  0.00  0.00     0.038 H 
BRANCH  93  95
ATOM     95  C18 non d ame     -37.492  15.947  26.582  0.00  0.00    -0.073 C 
ATOM     96  H24 non d ame     -37.896  15.660  27.553  0.00  0.00     0.028 H 
ATOM     97  H25 non d ame     -36.425  16.145  26.678  0.00  0.00     0.028 H 
ATOM     98  H26 non d ame     -37.998  16.845  26.230  0.00  0.00     0.028 H 
ENDBRANCH  93  95
BRANCH  93  99
ATOM     99  C19 non d ame     -38.387  15.307  24.285  0.00  0.00    -0.073 C 
ATOM    100  H27 non d ame     -39.428  14.983  24.263  0.00  0.00     0.028 H 
ATOM    101  H28 non d ame     -38.346  16.397  24.271  0.00  0.00     0.028 H 
ATOM    102  H29 non d ame     -37.865  14.914  23.414  0.00  0.00     0.028 H 
ENDBRANCH  93  99
ENDBRANCH  90  93
ENDBRANCH   1  90
TORSDOF 26
ENDMDL
MODEL 12
REMARK VINA RESULT:      -6.7      2.476      6.585
REMARK  26 active torsions:
REMARK  status: ('A' for Active; 'I' for Inactive)
REMARK    1  A    between atoms: C2_2  and  C3_3 
REMARK    2  A    between atoms: C4_6  and  C5_7 
REMARK       I    between atoms: C5_7  and  N2_9 
REMARK    3  A    between atoms: N2_9  and  C6_10 
REMARK    4  A    between atoms: C6_10  and  C7_11 
REMARK    5  A    between atoms: C6_10  and  C8_13 
REMARK       I    between atoms: C7_11  and  N3_14 
REMARK    6  A    between atoms: N3_14  and  C9_15 
REMARK    7  A    between atoms: C9_15  and  C10_16 
REMARK    8  A    between atoms: C9_15  and  C11_18 
REMARK       I    between atoms: C10_16  and  N4_21 
REMARK    9  A    between atoms: C11_18  and  C12_19 
REMARK   10  A    between atoms: C11_18  and  C13_20 
REMARK   11  A    between atoms: N4_21  and  C14_22 
REMARK   12  A    between atoms: C14_22  and  C15_23 
REMARK   13  A    between atoms: C14_22  and  C16_25 
REMARK       I    between atoms: C15_23  and  N6_40 
REMARK   14  A    between atoms: C16_25  and  C17_26 
REMARK   15  A    between atoms: C17_26  and  C18_27 
REMARK   16  A    between atoms: C17_26  and  C19_28 
REMARK   17  A    between atoms: C20_29  and  C21_30 
REMARK   18  A    between atoms: C20_29  and  C24_33 
REMARK   19  A    between atoms: C20_29  and  N6_40 
REMARK   20  A    between atoms: C21_30  and  C22_31 
REMARK   21  A    between atoms: C22_31  and  C23_32 
REMARK   22  A    between atoms: C23_32  and  O8_43 
REMARK   23  A    between atoms: C24_33  and  C25_34 
REMARK   24  A    between atoms: C28_38  and  O6_39 
REMARK   25  A    between atoms: C29_42  and  O8_43 
REMARK   26  A    between atoms: C29_42  and  C35_49 
ROOT
ATOM      1  C14 non d ame     -31.276  14.652  24.103  0.00  0.00     0.089 C 
ATOM      2  H20 non d ame     -30.267  14.719  24.511  0.00  0.00     0.087 H 
ENDROOT
BRANCH   1   3
ATOM      3  N4  non d ame     -31.599  13.240  23.962  0.00  0.00    -0.346 N 
ATOM      4  C10 non d ame     -31.360  12.286  25.105  0.00  0.00     0.241 C 
ATOM      5  O4  non d ame     -30.904  12.677  26.128  0.00  0.00    -0.271 OA
ATOM      6  H19 non d ame     -31.984  12.926  23.082  0.00  0.00     0.163 HD
BRANCH   4   7
ATOM      7  C9  non d ame     -31.705  10.829  24.943  0.00  0.00     0.092 C 
ATOM      8  H11 non d ame     -31.101  10.238  25.632  0.00  0.00     0.088 H 
BRANCH   7   9
ATOM      9  N3  non d ame     -33.110  10.616  25.306  0.00  0.00    -0.346 N 
ATOM     10  C7  non d ame     -33.454  10.225  26.651  0.00  0.00     0.240 C 
ATOM     11  O3  non d ame     -32.614  10.076  27.453  0.00  0.00    -0.271 OA
ATOM     12  H10 non d ame     -33.845  10.739  24.625  0.00  0.00     0.163 HD
BRANCH  10  13
ATOM     13  C6  non d ame     -34.950   9.997  27.032  0.00  0.00     0.086 C 
ATOM     14  H6  non d ame     -35.515   9.503  26.242  0.00  0.00     0.086 H 
BRANCH  13  15
ATOM     15  N2  non d ame     -35.014   9.127  28.194  0.00  0.00    -0.343 N 
ATOM     16  C5  non d ame     -35.910   7.969  28.181  0.00  0.00     0.273 C 
ATOM     17  O2  non d ame     -36.577   7.747  27.231  0.00  0.00    -0.266 OA
ATOM     18  H5  non d ame     -34.442   9.326  29.003  0.00  0.00     0.163 HD
BRANCH  16  19
ATOM     19  C4  non d ame     -35.986   7.040  29.403  0.00  0.00     0.154 A 
ATOM     20  C1  non d ame     -34.891   6.518  30.162  0.00  0.00    -0.017 A 
ATOM     21  C2  non d ame     -35.490   5.728  31.168  0.00  0.00     0.077 A 
ATOM     22  H1  non d ame     -33.825   6.686  30.006  0.00  0.00     0.091 H 
ATOM     23  O1  non d ame     -36.778   5.797  30.999  0.00  0.00    -0.218 OA
ATOM     24  N1  non d ame     -37.092   6.556  29.975  0.00  0.00    -0.123 NA
BRANCH  21  25
ATOM     25  C3  non d ame     -34.762   4.943  32.251  0.00  0.00    -0.029 C 
ATOM     26  H2  non d ame     -35.381   4.106  32.572  0.00  0.00     0.036 H 
ATOM     27  H3  non d ame     -33.819   4.566  31.854  0.00  0.00     0.036 H 
ATOM     28  H4  non d ame     -34.562   5.595  33.101  0.00  0.00     0.036 H 
ENDBRANCH  21  25
ENDBRANCH  16  19
ENDBRANCH  13  15
BRANCH  13  29
ATOM     29  C8  non d ame     -35.601  11.321  27.341  0.00  0.00    -0.049 C 
ATOM     30  H7  non d ame     -35.223  11.699  28.291  0.00  0.00     0.030 H 
ATOM     31  H8  non d ame     -35.368  12.033  26.549  0.00  0.00     0.030 H 
ATOM     32  H9  non d ame     -36.681  11.189  27.406  0.00  0.00     0.030 H 
ENDBRANCH  13  29
ENDBRANCH  10  13
ENDBRANCH   7   9
BRANCH   7  33
ATOM     33  C11 non d ame     -31.486  10.405  23.461  0.00  0.00    -0.033 C 
ATOM     34  H12 non d ame     -31.786  11.243  22.832  0.00  0.00     0.042 H 
BRANCH  33  35
ATOM     35  C12 non d ame     -29.981  10.115  23.169  0.00  0.00    -0.071 C 
ATOM     36  H13 non d ame     -29.396  11.019  23.343  0.00  0.00     0.028 H 
ATOM     37  H14 non d ame     -29.629   9.323  23.829  0.00  0.00     0.028 H 
ATOM     38  H15 non d ame     -29.866   9.802  22.132  0.00  0.00     0.028 H 
ENDBRANCH  33  35
BRANCH  33  39
ATOM     39  C13 non d ame     -32.381   9.179  23.092  0.00  0.00    -0.071 C 
ATOM     40  H16 non d ame     -32.412   8.485  23.932  0.00  0.00     0.028 H 
ATOM     41  H17 non d ame     -33.392   9.521  22.865  0.00  0.00     0.028 H 
ATOM     42  H18 non d ame     -31.965   8.675  22.219  0.00  0.00     0.028 H 
ENDBRANCH  33  39
ENDBRANCH   7  33
ENDBRANCH   4   7
ENDBRANCH   1   3
BRANCH   1  43
ATOM     43  C15 non d ame     -32.332  15.311  25.035  0.00  0.00     0.240 C 
ATOM     44  O5  non d ame     -33.434  15.507  24.635  0.00  0.00    -0.271 OA
ATOM     45  N6  non d ame     -31.972  15.689  26.432  0.00  0.00    -0.355 N 
ATOM     46  H46 non d ame     -31.041  15.523  26.785  0.00  0.00     0.162 HD
BRANCH  45  47
ATOM     47  C20 non d ame     -32.988  16.314  27.307  0.00  0.00     0.013 C 
ATOM     48  H30 non d ame     -33.964  16.173  26.841  0.00  0.00     0.072 H 
BRANCH  47  49
ATOM     49  C21 non d ame     -32.689  17.789  27.445  0.00  0.00    -0.038 C 
ATOM     50  H31 non d ame     -33.358  18.153  28.225  0.00  0.00     0.036 H 
ATOM     51  H32 non d ame     -31.609  17.860  27.575  0.00  0.00     0.036 H 
BRANCH  49  52
ATOM     52  C22 non d ame     -33.028  18.592  26.170  0.00  0.00     0.018 C 
ATOM     53  H33 non d ame     -32.076  18.961  25.792  0.00  0.00     0.048 H 
ATOM     54  H34 non d ame     -33.638  17.928  25.557  0.00  0.00     0.048 H 
BRANCH  52  55
ATOM     55  C23 non d ame     -33.900  19.850  26.436  0.00  0.00     0.259 C 
ATOM     56  O7  non d ame     -33.458  20.774  27.038  0.00  0.00    -0.265 OA
BRANCH  55  57
ATOM     57  O8  non d ame     -35.241  19.882  25.961  0.00  0.00    -0.317 OA
BRANCH  57  58
ATOM     58  C29 non d ame     -36.185  19.263  26.839  0.00  0.00     0.052 C 
ATOM     59  H47 non d ame     -35.695  19.217  27.812  0.00  0.00     0.082 H 
ATOM     60  H48 non d ame     -37.110  19.826  26.721  0.00  0.00     0.082 H 
BRANCH  58  61
ATOM     61  C35 non d ame     -36.424  17.814  26.340  0.00  0.00    -0.034 A 
ATOM     62  C30 non d ame     -36.640  17.569  24.988  0.00  0.00    -0.075 A 
ATOM     63  C31 non d ame     -36.855  16.267  24.539  0.00  0.00    -0.082 A 
ATOM     64  H49 non d ame     -36.641  18.398  24.279  0.00  0.00     0.084 H 
ATOM     65  C32 non d ame     -36.857  15.207  25.450  0.00  0.00    -0.083 A 
ATOM     66  H50 non d ame     -37.023  16.078  23.479  0.00  0.00     0.083 H 
ATOM     67  C33 non d ame     -36.645  15.456  26.799  0.00  0.00    -0.082 A 
ATOM     68  H51 non d ame     -37.024  14.185  25.108  0.00  0.00     0.083 H 
ATOM     69  C34 non d ame     -36.427  16.755  27.251  0.00  0.00    -0.075 A 
ATOM     70  H52 non d ame     -36.649  14.627  27.507  0.00  0.00     0.083 H 
ATOM     71  H53 non d ame     -36.260  16.943  28.312  0.00  0.00     0.084 H 
ENDBRANCH  58  61
ENDBRANCH  57  58
ENDBRANCH  55  57
ENDBRANCH  52  55
ENDBRANCH  49  52
ENDBRANCH  47  49
BRANCH  47  72
ATOM     72  C24 non d ame     -32.958  15.656  28.684  0.00  0.00    -0.039 C 
ATOM     73  H35 non d ame     -32.819  16.473  29.393  0.00  0.00     0.036 H 
ATOM     74  H36 non d ame     -33.857  15.040  28.732  0.00  0.00     0.036 H 
BRANCH  72  75
ATOM     75  C25 non d ame     -31.703  14.673  28.845  0.00  0.00    -0.001 C 
ATOM     76  C26 non d ame     -32.225  13.146  29.163  0.00  0.00    -0.035 C 
ATOM     77  C27 non d ame     -31.575  12.683  30.258  0.00  0.00     0.085 C 
ATOM     78  H38 non d ame     -33.268  13.165  29.475  0.00  0.00     0.036 H 
ATOM     79  H39 non d ame     -31.904  12.469  28.372  0.00  0.00     0.036 H 
ATOM     80  N5  non d ame     -30.902  13.869  30.907  0.00  0.00    -0.049 N 
ATOM     81  H40 non d ame     -32.354  12.309  30.922  0.00  0.00     0.075 H 
ATOM     82  H41 non d ame     -30.811  12.005  29.879  0.00  0.00     0.075 H 
ATOM     83  C28 non d ame     -30.932  15.052  29.809  0.00  0.00     0.193 C 
ATOM     84  H42 non d ame     -31.485  14.138  31.686  0.00  0.00     0.280 HD
ATOM     85  H43 non d ame     -29.941  13.600  31.064  0.00  0.00     0.280 HD
ATOM     86  H44 non d ame     -30.033  15.314  29.252  0.00  0.00     0.129 H 
ATOM     87  H37 non d ame     -30.980  14.791  28.037  0.00  0.00     0.046 H 
BRANCH  83  88
ATOM     88  O6  non d ame     -31.379  16.269  30.409  0.00  0.00    -0.369 OA
ATOM     89  H45 non d ame     -32.336  16.320  30.357  0.00  0.00     0.212 HD
ENDBRANCH  83  88
ENDBRANCH  72  75
ENDBRANCH  47  72
ENDBRANCH  45  47
ENDBRANCH   1  43
BRANCH   1  90
ATOM     90  C16 non d ame     -31.321  15.310  22.733  0.00  0.00    -0.035 C 
ATOM     91  H21 non d ame     -32.301  15.062  22.326  0.00  0.00     0.037 H 
ATOM     92  H22 non d ame     -31.051  16.353  22.905  0.00  0.00     0.037 H 
BRANCH  90  93
ATOM     93  C17 non d ame     -30.269  14.741  21.729  0.00  0.00    -0.059 C 
ATOM     94  H23 non d ame     -30.375  13.657  21.719  0.00  0.00     0.038 H 
BRANCH  93  95
ATOM     95  C18 non d ame     -30.505  15.257  20.273  0.00  0.00    -0.073 C 
ATOM     96  H24 non d ame     -29.778  14.799  19.603  0.00  0.00     0.028 H 
ATOM     97  H25 non d ame     -31.512  14.991  19.952  0.00  0.00     0.028 H 
ATOM     98  H26 non d ame     -30.391  16.340  20.248  0.00  0.00     0.028 H 
ENDBRANCH  93  95
BRANCH  93  99
ATOM     99  C19 non d ame     -28.845  15.055  22.193  0.00  0.00    -0.073 C 
ATOM    100  H27 non d ame     -28.483  14.245  22.828  0.00  0.00     0.028 H 
ATOM    101  H28 non d ame     -28.193  15.155  21.325  0.00  0.00     0.028 H 
ATOM    102  H29 non d ame     -28.843  15.987  22.757  0.00  0.00     0.028 H 
ENDBRANCH  93  99
ENDBRANCH  90  93
ENDBRANCH   1  90
TORSDOF 26
ENDMDL
MODEL 13
REMARK VINA RESULT:      -6.7      2.758      7.862
REMARK  26 active torsions:
REMARK  status: ('A' for Active; 'I' for Inactive)
REMARK    1  A    between atoms: C2_2  and  C3_3 
REMARK    2  A    between atoms: C4_6  and  C5_7 
REMARK       I    between atoms: C5_7  and  N2_9 
REMARK    3  A    between atoms: N2_9  and  C6_10 
REMARK    4  A    between atoms: C6_10  and  C7_11 
REMARK    5  A    between atoms: C6_10  and  C8_13 
REMARK       I    between atoms: C7_11  and  N3_14 
REMARK    6  A    between atoms: N3_14  and  C9_15 
REMARK    7  A    between atoms: C9_15  and  C10_16 
REMARK    8  A    between atoms: C9_15  and  C11_18 
REMARK       I    between atoms: C10_16  and  N4_21 
REMARK    9  A    between atoms: C11_18  and  C12_19 
REMARK   10  A    between atoms: C11_18  and  C13_20 
REMARK   11  A    between atoms: N4_21  and  C14_22 
REMARK   12  A    between atoms: C14_22  and  C15_23 
REMARK   13  A    between atoms: C14_22  and  C16_25 
REMARK       I    between atoms: C15_23  and  N6_40 
REMARK   14  A    between atoms: C16_25  and  C17_26 
REMARK   15  A    between atoms: C17_26  and  C18_27 
REMARK   16  A    between atoms: C17_26  and  C19_28 
REMARK   17  A    between atoms: C20_29  and  C21_30 
REMARK   18  A    between atoms: C20_29  and  C24_33 
REMARK   19  A    between atoms: C20_29  and  N6_40 
REMARK   20  A    between atoms: C21_30  and  C22_31 
REMARK   21  A    between atoms: C22_31  and  C23_32 
REMARK   22  A    between atoms: C23_32  and  O8_43 
REMARK   23  A    between atoms: C24_33  and  C25_34 
REMARK   24  A    between atoms: C28_38  and  O6_39 
REMARK   25  A    between atoms: C29_42  and  O8_43 
REMARK   26  A    between atoms: C29_42  and  C35_49 
ROOT
ATOM      1  C14 non d ame     -31.493  14.837  24.282  0.00  0.00     0.089 C 
ATOM      2  H20 non d ame     -32.378  14.927  23.652  0.00  0.00     0.087 H 
ENDROOT
BRANCH   1   3
ATOM      3  N4  non d ame     -31.714  15.652  25.468  0.00  0.00    -0.346 N 
ATOM      4  C10 non d ame     -33.030  16.359  25.672  0.00  0.00     0.241 C 
ATOM      5  O4  non d ame     -33.896  16.258  24.867  0.00  0.00    -0.271 OA
ATOM      6  H19 non d ame     -30.963  15.727  26.140  0.00  0.00     0.163 HD
BRANCH   4   7
ATOM      7  C9  non d ame     -33.243  17.194  26.907  0.00  0.00     0.092 C 
ATOM      8  H11 non d ame     -34.313  17.288  27.096  0.00  0.00     0.088 H 
BRANCH   7   9
ATOM      9  N3  non d ame     -32.657  16.512  28.065  0.00  0.00    -0.346 N 
ATOM     10  C7  non d ame     -33.028  15.151  28.364  0.00  0.00     0.240 C 
ATOM     11  O3  non d ame     -33.797  14.589  27.684  0.00  0.00    -0.271 OA
ATOM     12  H10 non d ame     -31.993  16.985  28.662  0.00  0.00     0.163 HD
BRANCH  10  13
ATOM     13  C6  non d ame     -32.402  14.432  29.600  0.00  0.00     0.086 C 
ATOM     14  H6  non d ame     -32.404  15.054  30.495  0.00  0.00     0.086 H 
BRANCH  13  15
ATOM     15  N2  non d ame     -33.194  13.254  29.910  0.00  0.00    -0.343 N 
ATOM     16  C5  non d ame     -32.624  12.204  30.757  0.00  0.00     0.273 C 
ATOM     17  O2  non d ame     -31.526  12.315  31.180  0.00  0.00    -0.266 OA
ATOM     18  H5  non d ame     -34.131  13.166  29.542  0.00  0.00     0.163 HD
BRANCH  16  19
ATOM     19  C4  non d ame     -33.450  10.953  31.095  0.00  0.00     0.154 A 
ATOM     20  C1  non d ame     -33.694   9.824  30.251  0.00  0.00    -0.017 A 
ATOM     21  C2  non d ame     -34.501   8.959  31.024  0.00  0.00     0.077 A 
ATOM     22  H1  non d ame     -33.339   9.656  29.233  0.00  0.00     0.091 H 
ATOM     23  O1  non d ame     -34.691   9.534  32.175  0.00  0.00    -0.218 OA
ATOM     24  N1  non d ame     -34.088  10.699  32.240  0.00  0.00    -0.123 NA
BRANCH  21  25
ATOM     25  C3  non d ame     -35.045   7.605  30.589  0.00  0.00    -0.029 C 
ATOM     26  H2  non d ame     -34.530   7.279  29.686  0.00  0.00     0.036 H 
ATOM     27  H3  non d ame     -34.882   6.876  31.383  0.00  0.00     0.036 H 
ATOM     28  H4  non d ame     -36.113   7.690  30.388  0.00  0.00     0.036 H 
ENDBRANCH  21  25
ENDBRANCH  16  19
ENDBRANCH  13  15
BRANCH  13  29
ATOM     29  C8  non d ame     -30.983  14.033  29.287  0.00  0.00    -0.049 C 
ATOM     30  H7  non d ame     -30.949  13.542  28.314  0.00  0.00     0.030 H 
ATOM     31  H8  non d ame     -30.352  14.921  29.267  0.00  0.00     0.030 H 
ATOM     32  H9  non d ame     -30.621  13.346  30.053  0.00  0.00     0.030 H 
ENDBRANCH  13  29
ENDBRANCH  10  13
ENDBRANCH   7   9
BRANCH   7  33
ATOM     33  C11 non d ame     -32.558  18.579  26.721  0.00  0.00    -0.033 C 
ATOM     34  H12 non d ame     -31.542  18.398  26.370  0.00  0.00     0.042 H 
BRANCH  33  35
ATOM     35  C12 non d ame     -33.285  19.432  25.635  0.00  0.00    -0.071 C 
ATOM     36  H13 non d ame     -33.114  18.992  24.653  0.00  0.00     0.028 H 
ATOM     37  H14 non d ame     -34.354  19.451  25.844  0.00  0.00     0.028 H 
ATOM     38  H15 non d ame     -32.892  20.449  25.650  0.00  0.00     0.028 H 
ENDBRANCH  33  35
BRANCH  33  39
ATOM     39  C13 non d ame     -32.470  19.346  28.080  0.00  0.00    -0.071 C 
ATOM     40  H16 non d ame     -32.646  18.652  28.901  0.00  0.00     0.028 H 
ATOM     41  H17 non d ame     -31.479  19.789  28.184  0.00  0.00     0.028 H 
ATOM     42  H18 non d ame     -33.223  20.134  28.101  0.00  0.00     0.028 H 
ENDBRANCH  33  39
ENDBRANCH   7  33
ENDBRANCH   4   7
ENDBRANCH   1   3
BRANCH   1  43
ATOM     43  C15 non d ame     -31.238  13.370  24.731  0.00  0.00     0.240 C 
ATOM     44  O5  non d ame     -30.930  13.140  25.856  0.00  0.00    -0.271 OA
ATOM     45  N6  non d ame     -31.387  12.249  23.760  0.00  0.00    -0.355 N 
ATOM     46  H46 non d ame     -31.652  12.430  22.803  0.00  0.00     0.162 HD
BRANCH  45  47
ATOM     47  C20 non d ame     -31.142  10.859  24.202  0.00  0.00     0.013 C 
ATOM     48  H30 non d ame     -31.065  10.861  25.289  0.00  0.00     0.072 H 
BRANCH  47  49
ATOM     49  C21 non d ame     -29.851  10.360  23.593  0.00  0.00    -0.038 C 
ATOM     50  H31 non d ame     -29.317  11.251  23.264  0.00  0.00     0.036 H 
ATOM     51  H32 non d ame     -29.407   9.704  24.342  0.00  0.00     0.036 H 
BRANCH  49  52
ATOM     52  C22 non d ame     -30.077   9.495  22.334  0.00  0.00     0.018 C 
ATOM     53  H33 non d ame     -31.100   9.128  22.408  0.00  0.00     0.048 H 
ATOM     54  H34 non d ame     -29.782  10.120  21.490  0.00  0.00     0.048 H 
BRANCH  52  55
ATOM     55  C23 non d ame     -29.173   8.234  22.270  0.00  0.00     0.259 C 
ATOM     56  O7  non d ame     -28.047   8.316  21.898  0.00  0.00    -0.265 OA
BRANCH  55  57
ATOM     57  O8  non d ame     -29.709   6.972  22.650  0.00  0.00    -0.317 OA
BRANCH  57  58
ATOM     58  C29 non d ame     -31.072   6.777  22.260  0.00  0.00     0.052 C 
ATOM     59  H47 non d ame     -31.475   7.775  22.090  0.00  0.00     0.082 H 
ATOM     60  H48 non d ame     -31.045   6.055  21.444  0.00  0.00     0.082 H 
BRANCH  58  61
ATOM     61  C35 non d ame     -31.826   6.138  23.456  0.00  0.00    -0.034 A 
ATOM     62  C30 non d ame     -31.491   6.491  24.759  0.00  0.00    -0.075 A 
ATOM     63  C31 non d ame     -32.168   5.917  25.834  0.00  0.00    -0.082 A 
ATOM     64  H49 non d ame     -30.698   7.217  24.939  0.00  0.00     0.084 H 
ATOM     65  C32 non d ame     -33.182   4.985  25.602  0.00  0.00    -0.083 A 
ATOM     66  H50 non d ame     -31.904   6.197  26.854  0.00  0.00     0.083 H 
ATOM     67  C33 non d ame     -33.511   4.633  24.300  0.00  0.00    -0.082 A 
ATOM     68  H51 non d ame     -33.717   4.532  26.437  0.00  0.00     0.083 H 
ATOM     69  C34 non d ame     -32.838   5.206  23.223  0.00  0.00    -0.075 A 
ATOM     70  H52 non d ame     -34.301   3.903  24.122  0.00  0.00     0.083 H 
ATOM     71  H53 non d ame     -33.103   4.925  22.203  0.00  0.00     0.084 H 
ENDBRANCH  58  61
ENDBRANCH  57  58
ENDBRANCH  55  57
ENDBRANCH  52  55
ENDBRANCH  49  52
ENDBRANCH  47  49
BRANCH  47  72
ATOM     72  C24 non d ame     -32.296   9.964  23.755  0.00  0.00    -0.039 C 
ATOM     73  H35 non d ame     -32.586  10.334  22.771  0.00  0.00     0.036 H 
ATOM     74  H36 non d ame     -31.932   8.943  23.867  0.00  0.00     0.036 H 
BRANCH  72  75
ATOM     75  C25 non d ame     -33.572  10.119  24.711  0.00  0.00    -0.001 C 
ATOM     76  C26 non d ame     -33.180   9.670  26.244  0.00  0.00    -0.035 C 
ATOM     77  C27 non d ame     -34.093   8.771  26.683  0.00  0.00     0.085 C 
ATOM     78  H38 non d ame     -32.248   9.106  26.242  0.00  0.00     0.036 H 
ATOM     79  H39 non d ame     -33.305  10.513  26.924  0.00  0.00     0.036 H 
ATOM     80  N5  non d ame     -34.882   8.320  25.478  0.00  0.00    -0.049 N 
ATOM     81  H40 non d ame     -33.514   7.930  27.064  0.00  0.00     0.075 H 
ATOM     82  H41 non d ame     -34.751   9.327  27.350  0.00  0.00     0.075 H 
ATOM     83  C28 non d ame     -34.552   9.381  24.307  0.00  0.00     0.193 C 
ATOM     84  H42 non d ame     -34.508   7.420  25.211  0.00  0.00     0.280 HD
ATOM     85  H43 non d ame     -35.858   8.407  25.726  0.00  0.00     0.280 HD
ATOM     86  H44 non d ame     -35.277  10.148  24.034  0.00  0.00     0.129 H 
ATOM     87  H37 non d ame     -34.066  11.082  24.588  0.00  0.00     0.046 H 
BRANCH  83  88
ATOM     88  O6  non d ame     -34.245   8.696  23.092  0.00  0.00    -0.369 OA
ATOM     89  H45 non d ame     -33.690   9.253  22.541  0.00  0.00     0.212 HD
ENDBRANCH  83  88
ENDBRANCH  72  75
ENDBRANCH  47  72
ENDBRANCH  45  47
ENDBRANCH   1  43
BRANCH   1  90
ATOM     90  C16 non d ame     -30.276  15.363  23.538  0.00  0.00    -0.035 C 
ATOM     91  H21 non d ame     -30.450  16.432  23.418  0.00  0.00     0.037 H 
ATOM     92  H22 non d ame     -29.415  15.012  24.109  0.00  0.00     0.037 H 
BRANCH  90  93
ATOM     93  C17 non d ame     -30.120  14.777  22.099  0.00  0.00    -0.059 C 
ATOM     94  H23 non d ame     -30.968  14.118  21.917  0.00  0.00     0.038 H 
BRANCH  93  95
ATOM     95  C18 non d ame     -30.137  15.891  21.004  0.00  0.00    -0.073 C 
ATOM     96  H24 non d ame     -30.885  15.647  20.249  0.00  0.00     0.028 H 
ATOM     97  H25 non d ame     -30.385  16.848  21.463  0.00  0.00     0.028 H 
ATOM     98  H26 non d ame     -29.156  15.956  20.536  0.00  0.00     0.028 H 
ENDBRANCH  93  95
BRANCH  93  99
ATOM     99  C19 non d ame     -28.852  13.926  21.990  0.00  0.00    -0.073 C 
ATOM    100  H27 non d ame     -27.975  14.572  22.039  0.00  0.00     0.028 H 
ATOM    101  H28 non d ame     -28.822  13.210  22.811  0.00  0.00     0.028 H 
ATOM    102  H29 non d ame     -28.855  13.389  21.041  0.00  0.00     0.028 H 
ENDBRANCH  93  99
ENDBRANCH  90  93
ENDBRANCH   1  90
TORSDOF 26
ENDMDL
MODEL 14
REMARK VINA RESULT:      -6.6      3.679      9.724
REMARK  26 active torsions:
REMARK  status: ('A' for Active; 'I' for Inactive)
REMARK    1  A    between atoms: C2_2  and  C3_3 
REMARK    2  A    between atoms: C4_6  and  C5_7 
REMARK       I    between atoms: C5_7  and  N2_9 
REMARK    3  A    between atoms: N2_9  and  C6_10 
REMARK    4  A    between atoms: C6_10  and  C7_11 
REMARK    5  A    between atoms: C6_10  and  C8_13 
REMARK       I    between atoms: C7_11  and  N3_14 
REMARK    6  A    between atoms: N3_14  and  C9_15 
REMARK    7  A    between atoms: C9_15  and  C10_16 
REMARK    8  A    between atoms: C9_15  and  C11_18 
REMARK       I    between atoms: C10_16  and  N4_21 
REMARK    9  A    between atoms: C11_18  and  C12_19 
REMARK   10  A    between atoms: C11_18  and  C13_20 
REMARK   11  A    between atoms: N4_21  and  C14_22 
REMARK   12  A    between atoms: C14_22  and  C15_23 
REMARK   13  A    between atoms: C14_22  and  C16_25 
REMARK       I    between atoms: C15_23  and  N6_40 
REMARK   14  A    between atoms: C16_25  and  C17_26 
REMARK   15  A    between atoms: C17_26  and  C18_27 
REMARK   16  A    between atoms: C17_26  and  C19_28 
REMARK   17  A    between atoms: C20_29  and  C21_30 
REMARK   18  A    between atoms: C20_29  and  C24_33 
REMARK   19  A    between atoms: C20_29  and  N6_40 
REMARK   20  A    between atoms: C21_30  and  C22_31 
REMARK   21  A    between atoms: C22_31  and  C23_32 
REMARK   22  A    between atoms: C23_32  and  O8_43 
REMARK   23  A    between atoms: C24_33  and  C25_34 
REMARK   24  A    between atoms: C28_38  and  O6_39 
REMARK   25  A    between atoms: C29_42  and  O8_43 
REMARK   26  A    between atoms: C29_42  and  C35_49 
ROOT
ATOM      1  C14 non d ame     -35.180   6.384  30.927  0.00  0.00     0.089 C 
ATOM      2  H20 non d ame     -34.756   6.564  31.915  0.00  0.00     0.087 H 
ENDROOT
BRANCH   1   3
ATOM      3  N4  non d ame     -35.369   7.678  30.288  0.00  0.00    -0.346 N 
ATOM      4  C10 non d ame     -34.957   8.944  30.996  0.00  0.00     0.241 C 
ATOM      5  O4  non d ame     -34.479   8.897  32.081  0.00  0.00    -0.271 OA
ATOM      6  H19 non d ame     -35.780   7.697  29.365  0.00  0.00     0.163 HD
BRANCH   4   7
ATOM      7  C9  non d ame     -35.154  10.274  30.318  0.00  0.00     0.092 C 
ATOM      8  H11 non d ame     -35.512  11.000  31.048  0.00  0.00     0.088 H 
BRANCH   7   9
ATOM      9  N3  non d ame     -33.866  10.763  29.816  0.00  0.00    -0.346 N 
ATOM     10  C7  non d ame     -33.090  11.687  30.605  0.00  0.00     0.240 C 
ATOM     11  O3  non d ame     -33.487  12.050  31.644  0.00  0.00    -0.271 OA
ATOM     12  H10 non d ame     -33.512  10.460  28.920  0.00  0.00     0.163 HD
BRANCH  10  13
ATOM     13  C6  non d ame     -31.721  12.206  30.064  0.00  0.00     0.086 C 
ATOM     14  H6  non d ame     -31.522  11.883  29.042  0.00  0.00     0.086 H 
BRANCH  13  15
ATOM     15  N2  non d ame     -31.743  13.659  30.043  0.00  0.00    -0.343 N 
ATOM     16  C5  non d ame     -32.301  14.356  28.882  0.00  0.00     0.273 C 
ATOM     17  O2  non d ame     -32.727  13.738  27.968  0.00  0.00    -0.266 OA
ATOM     18  H5  non d ame     -31.374  14.179  30.827  0.00  0.00     0.163 HD
BRANCH  16  19
ATOM     19  C4  non d ame     -32.332  15.892  28.847  0.00  0.00     0.154 A 
ATOM     20  C1  non d ame     -32.847  16.723  27.802  0.00  0.00    -0.017 A 
ATOM     21  C2  non d ame     -32.640  18.046  28.254  0.00  0.00     0.077 A 
ATOM     22  H1  non d ame     -33.301  16.414  26.861  0.00  0.00     0.091 H 
ATOM     23  O1  non d ame     -32.073  17.971  29.423  0.00  0.00    -0.218 OA
ATOM     24  N1  non d ame     -31.883  16.725  29.790  0.00  0.00    -0.123 NA
BRANCH  21  25
ATOM     25  C3  non d ame     -33.013  19.321  27.511  0.00  0.00    -0.029 C 
ATOM     26  H2  non d ame     -33.921  19.153  26.933  0.00  0.00     0.036 H 
ATOM     27  H3  non d ame     -33.182  20.123  28.228  0.00  0.00     0.036 H 
ATOM     28  H4  non d ame     -32.202  19.600  26.839  0.00  0.00     0.036 H 
ENDBRANCH  21  25
ENDBRANCH  16  19
ENDBRANCH  13  15
BRANCH  13  29
ATOM     29  C8  non d ame     -30.608  11.719  30.956  0.00  0.00    -0.049 C 
ATOM     30  H7  non d ame     -30.180  10.808  30.538  0.00  0.00     0.030 H 
ATOM     31  H8  non d ame     -29.836  12.485  31.024  0.00  0.00     0.030 H 
ATOM     32  H9  non d ame     -31.003  11.512  31.950  0.00  0.00     0.030 H 
ENDBRANCH  13  29
ENDBRANCH  10  13
ENDBRANCH   7   9
BRANCH   7  33
ATOM     33  C11 non d ame     -36.143  10.107  29.126  0.00  0.00    -0.033 C 
ATOM     34  H12 non d ame     -36.193   9.045  28.888  0.00  0.00     0.042 H 
BRANCH  33  35
ATOM     35  C12 non d ame     -37.582  10.570  29.513  0.00  0.00    -0.071 C 
ATOM     36  H13 non d ame     -37.598  11.655  29.622  0.00  0.00     0.028 H 
ATOM     37  H14 non d ame     -38.281  10.274  28.731  0.00  0.00     0.028 H 
ATOM     38  H15 non d ame     -37.872  10.106  30.455  0.00  0.00     0.028 H 
ENDBRANCH  33  35
BRANCH  33  39
ATOM     39  C13 non d ame     -35.625  10.863  27.860  0.00  0.00    -0.071 C 
ATOM     40  H16 non d ame     -36.397  11.546  27.505  0.00  0.00     0.028 H 
ATOM     41  H17 non d ame     -34.728  11.428  28.116  0.00  0.00     0.028 H 
ATOM     42  H18 non d ame     -35.389  10.142  27.078  0.00  0.00     0.028 H 
ENDBRANCH  33  39
ENDBRANCH   7  33
ENDBRANCH   4   7
ENDBRANCH   1   3
BRANCH   1  43
ATOM     43  C15 non d ame     -34.243   5.522  30.033  0.00  0.00     0.240 C 
ATOM     44  O5  non d ame     -33.664   4.597  30.504  0.00  0.00    -0.271 OA
ATOM     45  N6  non d ame     -34.075   5.845  28.588  0.00  0.00    -0.355 N 
ATOM     46  H46 non d ame     -34.565   6.625  28.176  0.00  0.00     0.162 HD
BRANCH  45  47
ATOM     47  C20 non d ame     -33.181   5.014  27.751  0.00  0.00     0.013 C 
ATOM     48  H30 non d ame     -32.723   4.263  28.393  0.00  0.00     0.072 H 
BRANCH  47  49
ATOM     49  C21 non d ame     -32.113   5.891  27.139  0.00  0.00    -0.038 C 
ATOM     50  H31 non d ame     -31.575   6.331  27.979  0.00  0.00     0.036 H 
ATOM     51  H32 non d ame     -31.586   5.258  26.425  0.00  0.00     0.036 H 
BRANCH  49  52
ATOM     52  C22 non d ame     -32.696   7.070  26.329  0.00  0.00     0.018 C 
ATOM     53  H33 non d ame     -32.059   7.169  25.451  0.00  0.00     0.048 H 
ATOM     54  H34 non d ame     -33.758   6.851  26.211  0.00  0.00     0.048 H 
BRANCH  52  55
ATOM     55  C23 non d ame     -32.620   8.435  27.068  0.00  0.00     0.259 C 
ATOM     56  O7  non d ame     -32.942   8.522  28.209  0.00  0.00    -0.265 OA
BRANCH  55  57
ATOM     57  O8  non d ame     -32.174   9.586  26.361  0.00  0.00    -0.317 OA
BRANCH  57  58
ATOM     58  C29 non d ame     -32.828   9.788  25.105  0.00  0.00     0.052 C 
ATOM     59  H47 non d ame     -33.477   8.923  24.968  0.00  0.00     0.082 H 
ATOM     60  H48 non d ame     -33.257  10.789  25.154  0.00  0.00     0.082 H 
BRANCH  58  61
ATOM     61  C35 non d ame     -31.746   9.772  23.993  0.00  0.00    -0.034 A 
ATOM     62  C30 non d ame     -31.532   8.619  23.246  0.00  0.00    -0.075 A 
ATOM     63  C31 non d ame     -30.560   8.604  22.247  0.00  0.00    -0.082 A 
ATOM     64  H49 non d ame     -32.126   7.726  23.443  0.00  0.00     0.084 H 
ATOM     65  C32 non d ame     -29.797   9.748  21.998  0.00  0.00    -0.083 A 
ATOM     66  H50 non d ame     -30.396   7.698  21.662  0.00  0.00     0.083 H 
ATOM     67  C33 non d ame     -30.012  10.896  22.749  0.00  0.00    -0.082 A 
ATOM     68  H51 non d ame     -29.036   9.745  21.219  0.00  0.00     0.083 H 
ATOM     69  C34 non d ame     -30.984  10.916  23.747  0.00  0.00    -0.075 A 
ATOM     70  H52 non d ame     -29.414  11.787  22.554  0.00  0.00     0.083 H 
ATOM     71  H53 non d ame     -31.147  11.822  24.331  0.00  0.00     0.084 H 
ENDBRANCH  58  61
ENDBRANCH  57  58
ENDBRANCH  55  57
ENDBRANCH  52  55
ENDBRANCH  49  52
ENDBRANCH  47  49
BRANCH  47  72
ATOM     72  C24 non d ame     -33.989   4.344  26.642  0.00  0.00    -0.039 C 
ATOM     73  H35 non d ame     -33.628   4.787  25.713  0.00  0.00     0.036 H 
ATOM     74  H36 non d ame     -33.881   3.272  26.812  0.00  0.00     0.036 H 
BRANCH  72  75
ATOM     75  C25 non d ame     -35.549   4.686  26.754  0.00  0.00    -0.001 C 
ATOM     76  C26 non d ame     -36.384   3.348  27.219  0.00  0.00    -0.035 C 
ATOM     77  C27 non d ame     -37.414   3.156  26.360  0.00  0.00     0.085 C 
ATOM     78  H38 non d ame     -35.770   2.458  27.082  0.00  0.00     0.036 H 
ATOM     79  H39 non d ame     -36.879   3.528  28.174  0.00  0.00     0.036 H 
ATOM     80  N5  non d ame     -37.166   4.047  25.167  0.00  0.00    -0.049 N 
ATOM     81  H40 non d ame     -37.342   2.115  26.047  0.00  0.00     0.075 H 
ATOM     82  H41 non d ame     -38.301   3.507  26.887  0.00  0.00     0.075 H 
ATOM     83  C28 non d ame     -36.022   5.091  25.623  0.00  0.00     0.193 C 
ATOM     84  H42 non d ame     -36.790   3.455  24.441  0.00  0.00     0.280 HD
ATOM     85  H43 non d ame     -38.023   4.558  25.009  0.00  0.00     0.280 HD
ATOM     86  H44 non d ame     -36.280   6.121  25.873  0.00  0.00     0.129 H 
ATOM     87  H37 non d ame     -35.731   5.604  27.315  0.00  0.00     0.046 H 
BRANCH  83  88
ATOM     88  O6  non d ame     -35.011   5.184  24.618  0.00  0.00    -0.369 OA
ATOM     89  H45 non d ame     -35.423   5.253  23.754  0.00  0.00     0.212 HD
ENDBRANCH  83  88
ENDBRANCH  72  75
ENDBRANCH  47  72
ENDBRANCH  45  47
ENDBRANCH   1  43
BRANCH   1  90
ATOM     90  C16 non d ame     -36.530   5.697  31.064  0.00  0.00    -0.035 C 
ATOM     91  H21 non d ame     -36.375   4.682  30.701  0.00  0.00     0.037 H 
ATOM     92  H22 non d ame     -36.836   5.866  32.097  0.00  0.00     0.037 H 
BRANCH  90  93
ATOM     93  C17 non d ame     -37.645   6.322  30.166  0.00  0.00    -0.059 C 
ATOM     94  H23 non d ame     -37.154   6.892  29.378  0.00  0.00     0.038 H 
BRANCH  93  95
ATOM     95  C18 non d ame     -38.531   5.231  29.483  0.00  0.00    -0.073 C 
ATOM     96  H24 non d ame     -39.498   5.183  29.983  0.00  0.00     0.028 H 
ATOM     97  H25 non d ame     -38.677   5.486  28.434  0.00  0.00     0.028 H 
ATOM     98  H26 non d ame     -38.036   4.263  29.557  0.00  0.00     0.028 H 
ENDBRANCH  93  95
BRANCH  93  99
ATOM     99  C19 non d ame     -38.507   7.301  30.967  0.00  0.00    -0.073 C 
ATOM    100  H27 non d ame     -38.863   6.814  31.875  0.00  0.00     0.028 H 
ATOM    101  H28 non d ame     -37.913   8.175  31.234  0.00  0.00     0.028 H 
ATOM    102  H29 non d ame     -39.359   7.613  30.363  0.00  0.00     0.028 H 
ENDBRANCH  93  99
ENDBRANCH  90  93
ENDBRANCH   1  90
TORSDOF 26
ENDMDL
MODEL 15
REMARK VINA RESULT:      -6.6      3.089      6.904
REMARK  26 active torsions:
REMARK  status: ('A' for Active; 'I' for Inactive)
REMARK    1  A    between atoms: C2_2  and  C3_3 
REMARK    2  A    between atoms: C4_6  and  C5_7 
REMARK       I    between atoms: C5_7  and  N2_9 
REMARK    3  A    between atoms: N2_9  and  C6_10 
REMARK    4  A    between atoms: C6_10  and  C7_11 
REMARK    5  A    between atoms: C6_10  and  C8_13 
REMARK       I    between atoms: C7_11  and  N3_14 
REMARK    6  A    between atoms: N3_14  and  C9_15 
REMARK    7  A    between atoms: C9_15  and  C10_16 
REMARK    8  A    between atoms: C9_15  and  C11_18 
REMARK       I    between atoms: C10_16  and  N4_21 
REMARK    9  A    between atoms: C11_18  and  C12_19 
REMARK   10  A    between atoms: C11_18  and  C13_20 
REMARK   11  A    between atoms: N4_21  and  C14_22 
REMARK   12  A    between atoms: C14_22  and  C15_23 
REMARK   13  A    between atoms: C14_22  and  C16_25 
REMARK       I    between atoms: C15_23  and  N6_40 
REMARK   14  A    between atoms: C16_25  and  C17_26 
REMARK   15  A    between atoms: C17_26  and  C18_27 
REMARK   16  A    between atoms: C17_26  and  C19_28 
REMARK   17  A    between atoms: C20_29  and  C21_30 
REMARK   18  A    between atoms: C20_29  and  C24_33 
REMARK   19  A    between atoms: C20_29  and  N6_40 
REMARK   20  A    between atoms: C21_30  and  C22_31 
REMARK   21  A    between atoms: C22_31  and  C23_32 
REMARK   22  A    between atoms: C23_32  and  O8_43 
REMARK   23  A    between atoms: C24_33  and  C25_34 
REMARK   24  A    between atoms: C28_38  and  O6_39 
REMARK   25  A    between atoms: C29_42  and  O8_43 
REMARK   26  A    between atoms: C29_42  and  C35_49 
ROOT
ATOM      1  C14 non d ame     -32.934   9.012  25.677  0.00  0.00     0.089 C 
ATOM      2  H20 non d ame     -33.695   9.499  25.066  0.00  0.00     0.087 H 
ENDROOT
BRANCH   1   3
ATOM      3  N4  non d ame     -31.963  10.026  26.058  0.00  0.00    -0.346 N 
ATOM      4  C10 non d ame     -32.423  11.376  26.549  0.00  0.00     0.241 C 
ATOM      5  O4  non d ame     -33.581  11.623  26.627  0.00  0.00    -0.271 OA
ATOM      6  H19 non d ame     -30.982   9.797  25.982  0.00  0.00     0.163 HD
BRANCH   4   7
ATOM      7  C9  non d ame     -31.404  12.412  26.944  0.00  0.00     0.092 C 
ATOM      8  H11 non d ame     -30.405  11.985  26.854  0.00  0.00     0.088 H 
BRANCH   7   9
ATOM      9  N3  non d ame     -31.476  13.547  26.019  0.00  0.00    -0.346 N 
ATOM     10  C7  non d ame     -31.130  13.367  24.630  0.00  0.00     0.240 C 
ATOM     11  O3  non d ame     -30.790  12.317  24.241  0.00  0.00    -0.271 OA
ATOM     12  H10 non d ame     -31.766  14.459  26.341  0.00  0.00     0.163 HD
BRANCH  10  13
ATOM     13  C6  non d ame     -31.206  14.579  23.651  0.00  0.00     0.086 C 
ATOM     14  H6  non d ame     -32.033  14.501  22.946  0.00  0.00     0.086 H 
BRANCH  13  15
ATOM     15  N2  non d ame     -31.428  15.793  24.420  0.00  0.00    -0.343 N 
ATOM     16  C5  non d ame     -32.789  16.153  24.822  0.00  0.00     0.273 C 
ATOM     17  O2  non d ame     -33.699  15.461  24.519  0.00  0.00    -0.266 OA
ATOM     18  H5  non d ame     -30.645  16.379  24.671  0.00  0.00     0.163 HD
BRANCH  16  19
ATOM     19  C4  non d ame     -33.039  17.432  25.636  0.00  0.00     0.154 A 
ATOM     20  C1  non d ame     -34.281  18.123  25.802  0.00  0.00    -0.017 A 
ATOM     21  C2  non d ame     -33.976  19.225  26.632  0.00  0.00     0.077 A 
ATOM     22  H1  non d ame     -35.254  17.864  25.385  0.00  0.00     0.091 H 
ATOM     23  O1  non d ame     -32.705  19.164  26.905  0.00  0.00    -0.218 OA
ATOM     24  N1  non d ame     -32.137  18.127  26.335  0.00  0.00    -0.123 NA
BRANCH  21  25
ATOM     25  C3  non d ame     -34.954  20.286  27.117  0.00  0.00    -0.029 C 
ATOM     26  H2  non d ame     -34.700  20.576  28.136  0.00  0.00     0.036 H 
ATOM     27  H3  non d ame     -34.896  21.158  26.466  0.00  0.00     0.036 H 
ATOM     28  H4  non d ame     -35.967  19.884  27.096  0.00  0.00     0.036 H 
ENDBRANCH  21  25
ENDBRANCH  16  19
ENDBRANCH  13  15
BRANCH  13  29
ATOM     29  C8  non d ame     -29.916  14.686  22.878  0.00  0.00    -0.049 C 
ATOM     30  H7  non d ame     -29.659  15.737  22.743  0.00  0.00     0.030 H 
ATOM     31  H8  non d ame     -29.120  14.186  23.430  0.00  0.00     0.030 H 
ATOM     32  H9  non d ame     -30.036  14.213  21.904  0.00  0.00     0.030 H 
ENDBRANCH  13  29
ENDBRANCH  10  13
ENDBRANCH   7   9
BRANCH   7  33
ATOM     33  C11 non d ame     -31.700  12.906  28.391  0.00  0.00    -0.033 C 
ATOM     34  H12 non d ame     -32.586  12.378  28.743  0.00  0.00     0.042 H 
BRANCH  33  35
ATOM     35  C12 non d ame     -30.529  12.557  29.362  0.00  0.00    -0.071 C 
ATOM     36  H13 non d ame     -30.390  13.373  30.071  0.00  0.00     0.028 H 
ATOM     37  H14 non d ame     -30.767  11.642  29.903  0.00  0.00     0.028 H 
ATOM     38  H15 non d ame     -29.613  12.413  28.789  0.00  0.00     0.028 H 
ENDBRANCH  33  35
BRANCH  33  39
ATOM     39  C13 non d ame     -32.012  14.437  28.406  0.00  0.00    -0.071 C 
ATOM     40  H16 non d ame     -32.540  14.691  29.325  0.00  0.00     0.028 H 
ATOM     41  H17 non d ame     -31.078  14.998  28.356  0.00  0.00     0.028 H 
ATOM     42  H18 non d ame     -32.633  14.690  27.547  0.00  0.00     0.028 H 
ENDBRANCH  33  39
ENDBRANCH   7  33
ENDBRANCH   4   7
ENDBRANCH   1   3
BRANCH   1  43
ATOM     43  C15 non d ame     -33.532   8.388  26.971  0.00  0.00     0.240 C 
ATOM     44  O5  non d ame     -32.871   7.656  27.634  0.00  0.00    -0.271 OA
ATOM     45  N6  non d ame     -34.926   8.710  27.388  0.00  0.00    -0.355 N 
ATOM     46  H46 non d ame     -35.496   9.335  26.836  0.00  0.00     0.162 HD
BRANCH  45  47
ATOM     47  C20 non d ame     -35.479   8.110  28.622  0.00  0.00     0.013 C 
ATOM     48  H30 non d ame     -34.708   7.479  29.063  0.00  0.00     0.072 H 
BRANCH  47  49
ATOM     49  C21 non d ame     -36.691   7.277  28.272  0.00  0.00    -0.038 C 
ATOM     50  H31 non d ame     -37.062   7.677  27.328  0.00  0.00     0.036 H 
ATOM     51  H32 non d ame     -36.362   6.239  28.333  0.00  0.00     0.036 H 
BRANCH  49  52
ATOM     52  C22 non d ame     -37.839   7.431  29.293  0.00  0.00     0.018 C 
ATOM     53  H33 non d ame     -37.760   8.449  29.674  0.00  0.00     0.048 H 
ATOM     54  H34 non d ame     -38.743   7.113  28.771  0.00  0.00     0.048 H 
BRANCH  52  55
ATOM     55  C23 non d ame     -37.708   6.499  30.529  0.00  0.00     0.259 C 
ATOM     56  O7  non d ame     -38.441   6.621  31.457  0.00  0.00    -0.265 OA
BRANCH  55  57
ATOM     57  O8  non d ame     -36.691   5.505  30.547  0.00  0.00    -0.317 OA
BRANCH  57  58
ATOM     58  C29 non d ame     -35.619   5.784  31.452  0.00  0.00     0.052 C 
ATOM     59  H47 non d ame     -35.390   6.841  31.320  0.00  0.00     0.082 H 
ATOM     60  H48 non d ame     -35.949   5.415  32.423  0.00  0.00     0.082 H 
BRANCH  58  61
ATOM     61  C35 non d ame     -34.386   4.954  31.005  0.00  0.00    -0.034 A 
ATOM     62  C30 non d ame     -34.037   4.896  29.659  0.00  0.00    -0.075 A 
ATOM     63  C31 non d ame     -32.930   4.151  29.257  0.00  0.00    -0.082 A 
ATOM     64  H49 non d ame     -34.631   5.434  28.920  0.00  0.00     0.084 H 
ATOM     65  C32 non d ame     -32.171   3.460  30.206  0.00  0.00    -0.083 A 
ATOM     66  H50 non d ame     -32.657   4.108  28.202  0.00  0.00     0.083 H 
ATOM     67  C33 non d ame     -32.526   3.518  31.547  0.00  0.00    -0.082 A 
ATOM     68  H51 non d ame     -31.304   2.875  29.900  0.00  0.00     0.083 H 
ATOM     69  C34 non d ame     -33.630   4.264  31.954  0.00  0.00    -0.075 A 
ATOM     70  H52 non d ame     -31.934   2.976  32.285  0.00  0.00     0.083 H 
ATOM     71  H53 non d ame     -33.902   4.305  33.009  0.00  0.00     0.084 H 
ENDBRANCH  58  61
ENDBRANCH  57  58
ENDBRANCH  55  57
ENDBRANCH  52  55
ENDBRANCH  49  52
ENDBRANCH  47  49
BRANCH  47  72
ATOM     72  C24 non d ame     -35.883   9.214  29.597  0.00  0.00    -0.039 C 
ATOM     73  H35 non d ame     -35.852  10.138  29.019  0.00  0.00     0.036 H 
ATOM     74  H36 non d ame     -36.821   8.880  30.040  0.00  0.00     0.036 H 
BRANCH  72  75
ATOM     75  C25 non d ame     -34.825   9.367  30.790  0.00  0.00    -0.001 C 
ATOM     76  C26 non d ame     -35.613   9.454  32.230  0.00  0.00    -0.035 C 
ATOM     77  C27 non d ame     -35.168  10.539  32.907  0.00  0.00     0.085 C 
ATOM     78  H38 non d ame     -36.668   9.672  32.066  0.00  0.00     0.036 H 
ATOM     79  H39 non d ame     -35.322   8.619  32.868  0.00  0.00     0.036 H 
ATOM     80  N5  non d ame     -34.388  11.382  31.926  0.00  0.00    -0.049 N 
ATOM     81  H40 non d ame     -36.063  11.082  33.209  0.00  0.00     0.075 H 
ATOM     82  H41 non d ame     -34.485  10.151  33.662  0.00  0.00     0.075 H 
ATOM     83  C28 non d ame     -34.112  10.434  30.649  0.00  0.00     0.193 C 
ATOM     84  H42 non d ame     -35.002  12.133  31.643  0.00  0.00     0.280 HD
ATOM     85  H43 non d ame     -33.505  11.591  32.369  0.00  0.00     0.280 HD
ATOM     86  H44 non d ame     -33.127   9.995  30.488  0.00  0.00     0.129 H 
ATOM     87  H37 non d ame     -34.009   8.647  30.714  0.00  0.00     0.046 H 
BRANCH  83  88
ATOM     88  O6  non d ame     -34.421  11.133  29.441  0.00  0.00    -0.369 OA
ATOM     89  H45 non d ame     -34.266  10.556  28.689  0.00  0.00     0.212 HD
ENDBRANCH  83  88
ENDBRANCH  72  75
ENDBRANCH  47  72
ENDBRANCH  45  47
ENDBRANCH   1  43
BRANCH   1  90
ATOM     90  C16 non d ame     -32.234   7.934  24.866  0.00  0.00    -0.035 C 
ATOM     91  H21 non d ame     -31.297   7.743  25.388  0.00  0.00     0.037 H 
ATOM     92  H22 non d ame     -32.967   7.135  24.753  0.00  0.00     0.037 H 
BRANCH  90  93
ATOM     93  C17 non d ame     -31.849   8.387  23.422  0.00  0.00    -0.059 C 
ATOM     94  H23 non d ame     -31.222   9.274  23.509  0.00  0.00     0.038 H 
BRANCH  93  95
ATOM     95  C18 non d ame     -31.028   7.297  22.661  0.00  0.00    -0.073 C 
ATOM     96  H24 non d ame     -30.578   7.736  21.771  0.00  0.00     0.028 H 
ATOM     97  H25 non d ame     -30.244   6.912  23.312  0.00  0.00     0.028 H 
ATOM     98  H26 non d ame     -31.690   6.482  22.369  0.00  0.00     0.028 H 
ENDBRANCH  93  95
BRANCH  93  99
ATOM     99  C19 non d ame     -33.094   8.786  22.625  0.00  0.00    -0.073 C 
ATOM    100  H27 non d ame     -33.966   8.765  23.278  0.00  0.00     0.028 H 
ATOM    101  H28 non d ame     -32.963   9.793  22.226  0.00  0.00     0.028 H 
ATOM    102  H29 non d ame     -33.238   8.087  21.802  0.00  0.00     0.028 H 
ENDBRANCH  93  99
ENDBRANCH  90  93
ENDBRANCH   1  90
TORSDOF 26
ENDMDL
MODEL 16
REMARK VINA RESULT:      -6.6      2.462      6.957
REMARK  26 active torsions:
REMARK  status: ('A' for Active; 'I' for Inactive)
REMARK    1  A    between atoms: C2_2  and  C3_3 
REMARK    2  A    between atoms: C4_6  and  C5_7 
REMARK       I    between atoms: C5_7  and  N2_9 
REMARK    3  A    between atoms: N2_9  and  C6_10 
REMARK    4  A    between atoms: C6_10  and  C7_11 
REMARK    5  A    between atoms: C6_10  and  C8_13 
REMARK       I    between atoms: C7_11  and  N3_14 
REMARK    6  A    between atoms: N3_14  and  C9_15 
REMARK    7  A    between atoms: C9_15  and  C10_16 
REMARK    8  A    between atoms: C9_15  and  C11_18 
REMARK       I    between atoms: C10_16  and  N4_21 
REMARK    9  A    between atoms: C11_18  and  C12_19 
REMARK   10  A    between atoms: C11_18  and  C13_20 
REMARK   11  A    between atoms: N4_21  and  C14_22 
REMARK   12  A    between atoms: C14_22  and  C15_23 
REMARK   13  A    between atoms: C14_22  and  C16_25 
REMARK       I    between atoms: C15_23  and  N6_40 
REMARK   14  A    between atoms: C16_25  and  C17_26 
REMARK   15  A    between atoms: C17_26  and  C18_27 
REMARK   16  A    between atoms: C17_26  and  C19_28 
REMARK   17  A    between atoms: C20_29  and  C21_30 
REMARK   18  A    between atoms: C20_29  and  C24_33 
REMARK   19  A    between atoms: C20_29  and  N6_40 
REMARK   20  A    between atoms: C21_30  and  C22_31 
REMARK   21  A    between atoms: C22_31  and  C23_32 
REMARK   22  A    between atoms: C23_32  and  O8_43 
REMARK   23  A    between atoms: C24_33  and  C25_34 
REMARK   24  A    between atoms: C28_38  and  O6_39 
REMARK   25  A    between atoms: C29_42  and  O8_43 
REMARK   26  A    between atoms: C29_42  and  C35_49 
ROOT
ATOM      1  C14 non d ame     -32.724   9.864  25.468  0.00  0.00     0.089 C 
ATOM      2  H20 non d ame     -32.184   8.928  25.615  0.00  0.00     0.087 H 
ENDROOT
BRANCH   1   3
ATOM      3  N4  non d ame     -33.714   9.970  26.530  0.00  0.00    -0.346 N 
ATOM      4  C10 non d ame     -34.186   8.736  27.258  0.00  0.00     0.241 C 
ATOM      5  O4  non d ame     -33.757   7.668  26.969  0.00  0.00    -0.271 OA
ATOM      6  H19 non d ame     -34.068  10.888  26.759  0.00  0.00     0.163 HD
BRANCH   4   7
ATOM      7  C9  non d ame     -35.206   8.865  28.358  0.00  0.00     0.092 C 
ATOM      8  H11 non d ame     -35.263   7.925  28.906  0.00  0.00     0.088 H 
BRANCH   7   9
ATOM      9  N3  non d ame     -34.774   9.895  29.308  0.00  0.00    -0.346 N 
ATOM     10  C7  non d ame     -34.541   9.550  30.689  0.00  0.00     0.240 C 
ATOM     11  O3  non d ame     -34.698   8.449  31.053  0.00  0.00    -0.271 OA
ATOM     12  H10 non d ame     -34.636  10.850  29.008  0.00  0.00     0.163 HD
BRANCH  10  13
ATOM     13  C6  non d ame     -34.084  10.651  31.695  0.00  0.00     0.086 C 
ATOM     14  H6  non d ame     -33.205  10.359  32.269  0.00  0.00     0.086 H 
BRANCH  13  15
ATOM     15  N2  non d ame     -33.718  11.846  30.953  0.00  0.00    -0.343 N 
ATOM     16  C5  non d ame     -32.335  12.022  30.506  0.00  0.00     0.273 C 
ATOM     17  O2  non d ame     -31.523  11.198  30.751  0.00  0.00    -0.266 OA
ATOM     18  H5  non d ame     -34.418  12.546  30.750  0.00  0.00     0.163 HD
BRANCH  16  19
ATOM     19  C4  non d ame     -31.934  13.280  29.718  0.00  0.00     0.154 A 
ATOM     20  C1  non d ame     -32.697  14.480  29.560  0.00  0.00    -0.017 A 
ATOM     21  C2  non d ame     -31.892  15.319  28.757  0.00  0.00     0.077 A 
ATOM     22  H1  non d ame     -33.683  14.707  29.965  0.00  0.00     0.091 H 
ATOM     23  O1  non d ame     -30.797  14.667  28.492  0.00  0.00    -0.218 OA
ATOM     24  N1  non d ame     -30.799  13.475  29.042  0.00  0.00    -0.123 NA
BRANCH  21  25
ATOM     25  C3  non d ame     -32.242  16.725  28.289  0.00  0.00    -0.029 C 
ATOM     26  H2  non d ame     -32.597  17.312  29.135  0.00  0.00     0.036 H 
ATOM     27  H3  non d ame     -31.356  17.198  27.866  0.00  0.00     0.036 H 
ATOM     28  H4  non d ame     -33.022  16.672  27.530  0.00  0.00     0.036 H 
ENDBRANCH  21  25
ENDBRANCH  16  19
ENDBRANCH  13  15
BRANCH  13  29
ATOM     29  C8  non d ame     -35.208  10.961  32.650  0.00  0.00    -0.049 C 
ATOM     30  H7  non d ame     -34.897  10.722  33.667  0.00  0.00     0.030 H 
ATOM     31  H8  non d ame     -35.458  12.020  32.586  0.00  0.00     0.030 H 
ATOM     32  H9  non d ame     -36.082  10.364  32.389  0.00  0.00     0.030 H 
ENDBRANCH  13  29
ENDBRANCH  10  13
ENDBRANCH   7   9
BRANCH   7  33
ATOM     33  C11 non d ame     -36.579   9.271  27.747  0.00  0.00    -0.033 C 
ATOM     34  H12 non d ame     -36.439  10.215  27.220  0.00  0.00     0.042 H 
BRANCH  33  35
ATOM     35  C12 non d ame     -37.069   8.220  26.703  0.00  0.00    -0.071 C 
ATOM     36  H13 non d ame     -37.374   8.730  25.789  0.00  0.00     0.028 H 
ATOM     37  H14 non d ame     -36.260   7.526  26.479  0.00  0.00     0.028 H 
ATOM     38  H15 non d ame     -37.917   7.670  27.111  0.00  0.00     0.028 H 
ENDBRANCH  33  35
BRANCH  33  39
ATOM     39  C13 non d ame     -37.645   9.496  28.867  0.00  0.00    -0.071 C 
ATOM     40  H16 non d ame     -38.140   8.551  29.093  0.00  0.00     0.028 H 
ATOM     41  H17 non d ame     -37.155   9.874  29.765  0.00  0.00     0.028 H 
ATOM     42  H18 non d ame     -38.384  10.221  28.525  0.00  0.00     0.028 H 
ENDBRANCH  33  39
ENDBRANCH   7  33
ENDBRANCH   4   7
ENDBRANCH   1   3
BRANCH   1  43
ATOM     43  C15 non d ame     -31.785  11.102  25.541  0.00  0.00     0.240 C 
ATOM     44  O5  non d ame     -31.010  11.204  26.436  0.00  0.00    -0.271 OA
ATOM     45  N6  non d ame     -31.846  12.156  24.488  0.00  0.00    -0.355 N 
ATOM     46  H46 non d ame     -32.497  12.078  23.720  0.00  0.00     0.162 HD
BRANCH  45  47
ATOM     47  C20 non d ame     -30.945  13.326  24.570  0.00  0.00     0.013 C 
ATOM     48  H30 non d ame     -30.163  13.097  25.294  0.00  0.00     0.072 H 
BRANCH  47  49
ATOM     49  C21 non d ame     -31.734  14.533  25.026  0.00  0.00    -0.038 C 
ATOM     50  H31 non d ame     -31.626  14.564  26.110  0.00  0.00     0.036 H 
ATOM     51  H32 non d ame     -31.377  15.364  24.418  0.00  0.00     0.036 H 
BRANCH  49  52
ATOM     52  C22 non d ame     -33.247  14.402  24.742  0.00  0.00     0.018 C 
ATOM     53  H33 non d ame     -33.544  15.346  24.286  0.00  0.00     0.048 H 
ATOM     54  H34 non d ame     -33.364  13.469  24.191  0.00  0.00     0.048 H 
BRANCH  52  55
ATOM     55  C23 non d ame     -34.114  14.254  26.023  0.00  0.00     0.259 C 
ATOM     56  O7  non d ame     -34.133  13.229  26.624  0.00  0.00    -0.265 OA
BRANCH  55  57
ATOM     57  O8  non d ame     -34.897  15.356  26.465  0.00  0.00    -0.317 OA
BRANCH  57  58
ATOM     58  C29 non d ame     -35.128  16.347  25.460  0.00  0.00     0.052 C 
ATOM     59  H47 non d ame     -34.472  16.084  24.630  0.00  0.00     0.082 H 
ATOM     60  H48 non d ame     -36.208  16.373  25.314  0.00  0.00     0.082 H 
BRANCH  58  61
ATOM     61  C35 non d ame     -34.677  17.719  26.027  0.00  0.00    -0.034 A 
ATOM     62  C30 non d ame     -35.354  18.285  27.103  0.00  0.00    -0.075 A 
ATOM     63  C31 non d ame     -34.949  19.518  27.612  0.00  0.00    -0.082 A 
ATOM     64  H49 non d ame     -36.202  17.763  27.546  0.00  0.00     0.084 H 
ATOM     65  C32 non d ame     -33.863  20.187  27.040  0.00  0.00    -0.083 A 
ATOM     66  H50 non d ame     -35.480  19.958  28.456  0.00  0.00     0.083 H 
ATOM     67  C33 non d ame     -33.193  19.619  25.964  0.00  0.00    -0.082 A 
ATOM     68  H51 non d ame     -33.539  21.151  27.432  0.00  0.00     0.083 H 
ATOM     69  C34 non d ame     -33.593  18.387  25.453  0.00  0.00    -0.075 A 
ATOM     70  H52 non d ame     -32.348  20.145  25.518  0.00  0.00     0.083 H 
ATOM     71  H53 non d ame     -33.061  17.947  24.609  0.00  0.00     0.084 H 
ENDBRANCH  58  61
ENDBRANCH  57  58
ENDBRANCH  55  57
ENDBRANCH  52  55
ENDBRANCH  49  52
ENDBRANCH  47  49
BRANCH  47  72
ATOM     72  C24 non d ame     -30.334  13.605  23.199  0.00  0.00    -0.039 C 
ATOM     73  H35 non d ame     -29.325  13.193  23.242  0.00  0.00     0.036 H 
ATOM     74  H36 non d ame     -31.051  13.214  22.477  0.00  0.00     0.036 H 
BRANCH  72  75
ATOM     75  C25 non d ame     -30.191  15.176  22.922  0.00  0.00    -0.001 C 
ATOM     76  C26 non d ame     -31.248  15.636  21.749  0.00  0.00    -0.035 C 
ATOM     77  C27 non d ame     -30.573  16.327  20.800  0.00  0.00     0.085 C 
ATOM     78  H38 non d ame     -31.616  14.761  21.214  0.00  0.00     0.036 H 
ATOM     79  H39 non d ame     -31.951  16.369  22.146  0.00  0.00     0.036 H 
ATOM     80  N5  non d ame     -29.101  16.100  21.051  0.00  0.00    -0.049 N 
ATOM     81  H40 non d ame     -30.847  15.864  19.852  0.00  0.00     0.075 H 
ATOM     82  H41 non d ame     -30.806  17.376  20.982  0.00  0.00     0.075 H 
ATOM     83  C28 non d ame     -28.996  15.476  22.536  0.00  0.00     0.193 C 
ATOM     84  H42 non d ame     -28.802  15.401  20.386  0.00  0.00     0.280 HD
ATOM     85  H43 non d ame     -28.668  17.012  21.054  0.00  0.00     0.280 HD
ATOM     86  H44 non d ame     -28.666  16.092  23.373  0.00  0.00     0.129 H 
ATOM     87  H37 non d ame     -30.188  15.759  23.843  0.00  0.00     0.046 H 
BRANCH  83  88
ATOM     88  O6  non d ame     -28.129  14.340  22.533  0.00  0.00    -0.369 OA
ATOM     89  H45 non d ame     -27.865  14.142  21.632  0.00  0.00     0.212 HD
ENDBRANCH  83  88
ENDBRANCH  72  75
ENDBRANCH  47  72
ENDBRANCH  45  47
ENDBRANCH   1  43
BRANCH   1  90
ATOM     90  C16 non d ame     -33.438   9.841  24.126  0.00  0.00    -0.035 C 
ATOM     91  H21 non d ame     -34.482   9.634  24.358  0.00  0.00     0.037 H 
ATOM     92  H22 non d ame     -33.163  10.776  23.637  0.00  0.00     0.037 H 
BRANCH  90  93
ATOM     93  C17 non d ame     -32.960   8.692  23.182  0.00  0.00    -0.059 C 
ATOM     94  H23 non d ame     -32.829   7.797  23.790  0.00  0.00     0.038 H 
BRANCH  93  95
ATOM     95  C18 non d ame     -34.012   8.364  22.074  0.00  0.00    -0.073 C 
ATOM     96  H24 non d ame     -35.012   8.376  22.507  0.00  0.00     0.028 H 
ATOM     97  H25 non d ame     -33.951   9.111  21.283  0.00  0.00     0.028 H 
ATOM     98  H26 non d ame     -33.807   7.378  21.659  0.00  0.00     0.028 H 
ENDBRANCH  93  95
BRANCH  93  99
ATOM     99  C19 non d ame     -31.601   9.024  22.561  0.00  0.00    -0.073 C 
ATOM    100  H27 non d ame     -30.868   8.279  22.873  0.00  0.00     0.028 H 
ATOM    101  H28 non d ame     -31.686   9.017  21.474  0.00  0.00     0.028 H 
ATOM    102  H29 non d ame     -31.281  10.011  22.894  0.00  0.00     0.028 H 
ENDBRANCH  93  99
ENDBRANCH  90  93
ENDBRANCH   1  90
TORSDOF 26
ENDMDL
MODEL 17
REMARK VINA RESULT:      -6.6      3.475      9.154
REMARK  26 active torsions:
REMARK  status: ('A' for Active; 'I' for Inactive)
REMARK    1  A    between atoms: C2_2  and  C3_3 
REMARK    2  A    between atoms: C4_6  and  C5_7 
REMARK       I    between atoms: C5_7  and  N2_9 
REMARK    3  A    between atoms: N2_9  and  C6_10 
REMARK    4  A    between atoms: C6_10  and  C7_11 
REMARK    5  A    between atoms: C6_10  and  C8_13 
REMARK       I    between atoms: C7_11  and  N3_14 
REMARK    6  A    between atoms: N3_14  and  C9_15 
REMARK    7  A    between atoms: C9_15  and  C10_16 
REMARK    8  A    between atoms: C9_15  and  C11_18 
REMARK       I    between atoms: C10_16  and  N4_21 
REMARK    9  A    between atoms: C11_18  and  C12_19 
REMARK   10  A    between atoms: C11_18  and  C13_20 
REMARK   11  A    between atoms: N4_21  and  C14_22 
REMARK   12  A    between atoms: C14_22  and  C15_23 
REMARK   13  A    between atoms: C14_22  and  C16_25 
REMARK       I    between atoms: C15_23  and  N6_40 
REMARK   14  A    between atoms: C16_25  and  C17_26 
REMARK   15  A    between atoms: C17_26  and  C18_27 
REMARK   16  A    between atoms: C17_26  and  C19_28 
REMARK   17  A    between atoms: C20_29  and  C21_30 
REMARK   18  A    between atoms: C20_29  and  C24_33 
REMARK   19  A    between atoms: C20_29  and  N6_40 
REMARK   20  A    between atoms: C21_30  and  C22_31 
REMARK   21  A    between atoms: C22_31  and  C23_32 
REMARK   22  A    between atoms: C23_32  and  O8_43 
REMARK   23  A    between atoms: C24_33  and  C25_34 
REMARK   24  A    between atoms: C28_38  and  O6_39 
REMARK   25  A    between atoms: C29_42  and  O8_43 
REMARK   26  A    between atoms: C29_42  and  C35_49 
ROOT
ATOM      1  C14 non d ame     -34.837   8.438  31.265  0.00  0.00     0.089 C 
ATOM      2  H20 non d ame     -34.396   8.500  32.260  0.00  0.00     0.087 H 
ENDROOT
BRANCH   1   3
ATOM      3  N4  non d ame     -33.973   9.178  30.356  0.00  0.00    -0.346 N 
ATOM      4  C10 non d ame     -33.456  10.542  30.738  0.00  0.00     0.241 C 
ATOM      5  O4  non d ame     -33.751  11.025  31.781  0.00  0.00    -0.271 OA
ATOM      6  H19 non d ame     -33.736   8.750  29.472  0.00  0.00     0.163 HD
BRANCH   4   7
ATOM      7  C9  non d ame     -32.559  11.291  29.788  0.00  0.00     0.092 C 
ATOM      8  H11 non d ame     -31.901  10.584  29.284  0.00  0.00     0.088 H 
BRANCH   7   9
ATOM      9  N3  non d ame     -33.373  11.938  28.755  0.00  0.00    -0.346 N 
ATOM     10  C7  non d ame     -33.585  11.281  27.488  0.00  0.00     0.240 C 
ATOM     11  O3  non d ame     -33.108  10.232  27.284  0.00  0.00    -0.271 OA
ATOM     12  H10 non d ame     -33.790  12.844  28.916  0.00  0.00     0.163 HD
BRANCH  10  13
ATOM     13  C6  non d ame     -34.450  11.977  26.391  0.00  0.00     0.086 C 
ATOM     14  H6  non d ame     -35.112  12.741  26.798  0.00  0.00     0.086 H 
BRANCH  13  15
ATOM     15  N2  non d ame     -33.568  12.647  25.451  0.00  0.00    -0.343 N 
ATOM     16  C5  non d ame     -33.059  13.984  25.766  0.00  0.00     0.273 C 
ATOM     17  O2  non d ame     -33.369  14.513  26.777  0.00  0.00    -0.266 OA
ATOM     18  H5  non d ame     -33.311  12.189  24.588  0.00  0.00     0.163 HD
BRANCH  16  19
ATOM     19  C4  non d ame     -32.125  14.704  24.782  0.00  0.00     0.154 A 
ATOM     20  C1  non d ame     -30.871  14.233  24.278  0.00  0.00    -0.017 A 
ATOM     21  C2  non d ame     -30.417  15.257  23.416  0.00  0.00     0.077 A 
ATOM     22  H1  non d ame     -30.367  13.293  24.503  0.00  0.00     0.091 H 
ATOM     23  O1  non d ame     -31.314  16.200  23.430  0.00  0.00    -0.218 OA
ATOM     24  N1  non d ame     -32.319  15.901  24.219  0.00  0.00    -0.123 NA
BRANCH  21  25
ATOM     25  C3  non d ame     -29.120  15.256  22.619  0.00  0.00    -0.029 C 
ATOM     26  H2  non d ame     -28.604  16.205  22.762  0.00  0.00     0.036 H 
ATOM     27  H3  non d ame     -28.483  14.441  22.963  0.00  0.00     0.036 H 
ATOM     28  H4  non d ame     -29.343  15.120  21.561  0.00  0.00     0.036 H 
ENDBRANCH  21  25
ENDBRANCH  16  19
ENDBRANCH  13  15
BRANCH  13  29
ATOM     29  C8  non d ame     -35.281  10.944  25.673  0.00  0.00    -0.049 C 
ATOM     30  H7  non d ame     -35.172   9.980  26.170  0.00  0.00     0.030 H 
ATOM     31  H8  non d ame     -36.328  11.245  25.691  0.00  0.00     0.030 H 
ATOM     32  H9  non d ame     -34.944  10.860  24.640  0.00  0.00     0.030 H 
ENDBRANCH  13  29
ENDBRANCH  10  13
ENDBRANCH   7   9
BRANCH   7  33
ATOM     33  C11 non d ame     -31.763  12.375  30.572  0.00  0.00    -0.033 C 
ATOM     34  H12 non d ame     -32.317  12.593  31.485  0.00  0.00     0.042 H 
BRANCH  33  35
ATOM     35  C12 non d ame     -30.354  11.852  30.992  0.00  0.00    -0.071 C 
ATOM     36  H13 non d ame     -30.455  10.877  31.469  0.00  0.00     0.028 H 
ATOM     37  H14 non d ame     -29.722  11.762  30.109  0.00  0.00     0.028 H 
ATOM     38  H15 non d ame     -29.901  12.553  31.694  0.00  0.00     0.028 H 
ENDBRANCH  33  35
BRANCH  33  39
ATOM     39  C13 non d ame     -31.654  13.696  29.745  0.00  0.00    -0.071 C 
ATOM     40  H16 non d ame     -32.311  13.637  28.877  0.00  0.00     0.028 H 
ATOM     41  H17 non d ame     -31.949  14.541  30.369  0.00  0.00     0.028 H 
ATOM     42  H18 non d ame     -30.625  13.833  29.414  0.00  0.00     0.028 H 
ENDBRANCH  33  39
ENDBRANCH   7  33
ENDBRANCH   4   7
ENDBRANCH   1   3
BRANCH   1  43
ATOM     43  C15 non d ame     -34.946   6.971  30.760  0.00  0.00     0.240 C 
ATOM     44  O5  non d ame     -35.406   6.135  31.469  0.00  0.00    -0.271 OA
ATOM     45  N6  non d ame     -34.484   6.609  29.390  0.00  0.00    -0.355 N 
ATOM     46  H46 non d ame     -34.096   7.312  28.777  0.00  0.00     0.162 HD
BRANCH  45  47
ATOM     47  C20 non d ame     -34.595   5.210  28.924  0.00  0.00     0.013 C 
ATOM     48  H30 non d ame     -34.955   4.607  29.758  0.00  0.00     0.072 H 
BRANCH  47  49
ATOM     49  C21 non d ame     -33.235   4.720  28.482  0.00  0.00    -0.038 C 
ATOM     50  H31 non d ame     -32.514   5.390  28.952  0.00  0.00     0.036 H 
ATOM     51  H32 non d ame     -33.218   3.654  28.709  0.00  0.00     0.036 H 
BRANCH  49  52
ATOM     52  C22 non d ame     -33.019   4.846  26.959  0.00  0.00     0.018 C 
ATOM     53  H33 non d ame     -32.380   4.009  26.681  0.00  0.00     0.048 H 
ATOM     54  H34 non d ame     -34.015   4.939  26.526  0.00  0.00     0.048 H 
BRANCH  52  55
ATOM     55  C23 non d ame     -32.249   6.129  26.539  0.00  0.00     0.259 C 
ATOM     56  O7  non d ame     -32.018   6.981  27.334  0.00  0.00    -0.265 OA
BRANCH  55  57
ATOM     57  O8  non d ame     -31.832   6.281  25.187  0.00  0.00    -0.317 OA
BRANCH  57  58
ATOM     58  C29 non d ame     -32.670   7.145  24.414  0.00  0.00     0.052 C 
ATOM     59  H47 non d ame     -33.065   6.527  23.607  0.00  0.00     0.082 H 
ATOM     60  H48 non d ame     -33.351   7.611  25.125  0.00  0.00     0.082 H 
BRANCH  58  61
ATOM     61  C35 non d ame     -31.775   8.250  23.793  0.00  0.00    -0.034 A 
ATOM     62  C30 non d ame     -31.999   9.587  24.109  0.00  0.00    -0.075 A 
ATOM     63  C31 non d ame     -31.196  10.580  23.552  0.00  0.00    -0.082 A 
ATOM     64  H49 non d ame     -32.804   9.856  24.793  0.00  0.00     0.084 H 
ATOM     65  C32 non d ame     -30.166  10.233  22.673  0.00  0.00    -0.083 A 
ATOM     66  H50 non d ame     -31.372  11.626  23.803  0.00  0.00     0.083 H 
ATOM     67  C33 non d ame     -29.949   8.899  22.357  0.00  0.00    -0.082 A 
ATOM     68  H51 non d ame     -29.533  11.003  22.233  0.00  0.00     0.083 H 
ATOM     69  C34 non d ame     -30.748   7.902  22.914  0.00  0.00    -0.075 A 
ATOM     70  H52 non d ame     -29.146   8.631  21.669  0.00  0.00     0.083 H 
ATOM     71  H53 non d ame     -30.570   6.856  22.662  0.00  0.00     0.084 H 
ENDBRANCH  58  61
ENDBRANCH  57  58
ENDBRANCH  55  57
ENDBRANCH  52  55
ENDBRANCH  49  52
ENDBRANCH  47  49
BRANCH  47  72
ATOM     72  C24 non d ame     -35.571   5.131  27.752  0.00  0.00    -0.039 C 
ATOM     73  H35 non d ame     -35.100   5.693  26.945  0.00  0.00     0.036 H 
ATOM     74  H36 non d ame     -35.787   4.071  27.625  0.00  0.00     0.036 H 
BRANCH  72  75
ATOM     75  C25 non d ame     -36.959   5.859  28.087  0.00  0.00    -0.001 C 
ATOM     76  C26 non d ame     -37.811   4.967  29.175  0.00  0.00    -0.035 C 
ATOM     77  C27 non d ame     -39.065   4.780  28.699  0.00  0.00     0.085 C 
ATOM     78  H38 non d ame     -37.405   3.957  29.229  0.00  0.00     0.036 H 
ATOM     79  H39 non d ame     -37.968   5.541  30.088  0.00  0.00     0.036 H 
ATOM     80  N5  non d ame     -39.049   5.181  27.243  0.00  0.00    -0.049 N 
ATOM     81  H40 non d ame     -39.246   3.707  28.770  0.00  0.00     0.075 H 
ATOM     82  H41 non d ame     -39.693   5.477  29.252  0.00  0.00     0.075 H 
ATOM     83  C28 non d ame     -37.678   6.004  27.024  0.00  0.00     0.193 C 
ATOM     84  H42 non d ame     -38.999   4.324  26.711  0.00  0.00     0.280 HD
ATOM     85  H43 non d ame     -39.828   5.811  27.113  0.00  0.00     0.280 HD
ATOM     86  H44 non d ame     -37.692   7.091  26.942  0.00  0.00     0.129 H 
ATOM     87  H37 non d ame     -36.827   6.918  28.309  0.00  0.00     0.046 H 
BRANCH  83  88
ATOM     88  O6  non d ame     -37.007   5.541  25.851  0.00  0.00    -0.369 OA
ATOM     89  H45 non d ame     -36.221   5.052  26.104  0.00  0.00     0.212 HD
ENDBRANCH  83  88
ENDBRANCH  72  75
ENDBRANCH  47  72
ENDBRANCH  45  47
ENDBRANCH   1  43
BRANCH   1  90
ATOM     90  C16 non d ame     -36.215   9.080  31.272  0.00  0.00    -0.035 C 
ATOM     91  H21 non d ame     -36.799   8.501  31.986  0.00  0.00     0.037 H 
ATOM     92  H22 non d ame     -36.039  10.141  31.446  0.00  0.00     0.037 H 
BRANCH  90  93
ATOM     93  C17 non d ame     -36.962   8.975  29.904  0.00  0.00    -0.059 C 
ATOM     94  H23 non d ame     -36.448   8.226  29.303  0.00  0.00     0.038 H 
BRANCH  93  95
ATOM     95  C18 non d ame     -38.444   8.512  30.076  0.00  0.00    -0.073 C 
ATOM     96  H24 non d ame     -38.832   8.880  31.025  0.00  0.00     0.028 H 
ATOM     97  H25 non d ame     -39.047   8.909  29.260  0.00  0.00     0.028 H 
ATOM     98  H26 non d ame     -38.489   7.423  30.064  0.00  0.00     0.028 H 
ENDBRANCH  93  95
BRANCH  93  99
ATOM     99  C19 non d ame     -36.891  10.299  29.139  0.00  0.00    -0.073 C 
ATOM    100  H27 non d ame     -37.780  10.409  28.519  0.00  0.00     0.028 H 
ATOM    101  H28 non d ame     -36.837  11.126  29.848  0.00  0.00     0.028 H 
ATOM    102  H29 non d ame     -36.003  10.306  28.507  0.00  0.00     0.028 H 
ENDBRANCH  93  99
ENDBRANCH  90  93
ENDBRANCH   1  90
TORSDOF 26
ENDMDL
MODEL 18
REMARK VINA RESULT:      -6.6      2.370      7.665
REMARK  26 active torsions:
REMARK  status: ('A' for Active; 'I' for Inactive)
REMARK    1  A    between atoms: C2_2  and  C3_3 
REMARK    2  A    between atoms: C4_6  and  C5_7 
REMARK       I    between atoms: C5_7  and  N2_9 
REMARK    3  A    between atoms: N2_9  and  C6_10 
REMARK    4  A    between atoms: C6_10  and  C7_11 
REMARK    5  A    between atoms: C6_10  and  C8_13 
REMARK       I    between atoms: C7_11  and  N3_14 
REMARK    6  A    between atoms: N3_14  and  C9_15 
REMARK    7  A    between atoms: C9_15  and  C10_16 
REMARK    8  A    between atoms: C9_15  and  C11_18 
REMARK       I    between atoms: C10_16  and  N4_21 
REMARK    9  A    between atoms: C11_18  and  C12_19 
REMARK   10  A    between atoms: C11_18  and  C13_20 
REMARK   11  A    between atoms: N4_21  and  C14_22 
REMARK   12  A    between atoms: C14_22  and  C15_23 
REMARK   13  A    between atoms: C14_22  and  C16_25 
REMARK       I    between atoms: C15_23  and  N6_40 
REMARK   14  A    between atoms: C16_25  and  C17_26 
REMARK   15  A    between atoms: C17_26  and  C18_27 
REMARK   16  A    between atoms: C17_26  and  C19_28 
REMARK   17  A    between atoms: C20_29  and  C21_30 
REMARK   18  A    between atoms: C20_29  and  C24_33 
REMARK   19  A    between atoms: C20_29  and  N6_40 
REMARK   20  A    between atoms: C21_30  and  C22_31 
REMARK   21  A    between atoms: C22_31  and  C23_32 
REMARK   22  A    between atoms: C23_32  and  O8_43 
REMARK   23  A    between atoms: C24_33  and  C25_34 
REMARK   24  A    between atoms: C28_38  and  O6_39 
REMARK   25  A    between atoms: C29_42  and  O8_43 
REMARK   26  A    between atoms: C29_42  and  C35_49 
ROOT
ATOM      1  C14 non d ame     -32.986  12.188  28.728  0.00  0.00     0.089 C 
ATOM      2  H20 non d ame     -33.101  12.559  29.747  0.00  0.00     0.087 H 
ENDROOT
BRANCH   1   3
ATOM      3  N4  non d ame     -33.716  10.932  28.634  0.00  0.00    -0.346 N 
ATOM      4  C10 non d ame     -33.863  10.044  29.844  0.00  0.00     0.241 C 
ATOM      5  O4  non d ame     -33.383  10.360  30.882  0.00  0.00    -0.271 OA
ATOM      6  H19 non d ame     -34.115  10.681  27.741  0.00  0.00     0.163 HD
BRANCH   4   7
ATOM      7  C9  non d ame     -34.627   8.751  29.730  0.00  0.00     0.092 C 
ATOM      8  H11 non d ame     -35.566   8.935  29.208  0.00  0.00     0.088 H 
BRANCH   7   9
ATOM      9  N3  non d ame     -33.860   7.800  28.919  0.00  0.00    -0.346 N 
ATOM     10  C7  non d ame     -34.128   7.677  27.507  0.00  0.00     0.240 C 
ATOM     11  O3  non d ame     -34.958   8.334  27.008  0.00  0.00    -0.271 OA
ATOM     12  H10 non d ame     -33.142   7.226  29.337  0.00  0.00     0.163 HD
BRANCH  10  13
ATOM     13  C6  non d ame     -33.311   6.661  26.651  0.00  0.00     0.086 C 
ATOM     14  H6  non d ame     -33.932   6.106  25.948  0.00  0.00     0.086 H 
BRANCH  13  15
ATOM     15  N2  non d ame     -32.335   7.390  25.857  0.00  0.00    -0.343 N 
ATOM     16  C5  non d ame     -32.665   7.772  24.482  0.00  0.00     0.273 C 
ATOM     17  O2  non d ame     -33.715   7.486  24.023  0.00  0.00    -0.266 OA
ATOM     18  H5  non d ame     -31.439   7.629  26.257  0.00  0.00     0.163 HD
BRANCH  16  19
ATOM     19  C4  non d ame     -31.644   8.545  23.633  0.00  0.00     0.154 A 
ATOM     20  C1  non d ame     -31.397   9.955  23.648  0.00  0.00    -0.017 A 
ATOM     21  C2  non d ame     -30.374  10.155  22.694  0.00  0.00     0.077 A 
ATOM     22  H1  non d ame     -31.884  10.715  24.258  0.00  0.00     0.091 H 
ATOM     23  O1  non d ame     -30.076   8.991  22.196  0.00  0.00    -0.218 OA
ATOM     24  N1  non d ame     -30.803   8.036  22.728  0.00  0.00    -0.123 NA
BRANCH  21  25
ATOM     25  C3  non d ame     -29.739  11.487  22.319  0.00  0.00    -0.029 C 
ATOM     26  H2  non d ame     -29.728  12.142  23.190  0.00  0.00     0.036 H 
ATOM     27  H3  non d ame     -28.718  11.319  21.978  0.00  0.00     0.036 H 
ATOM     28  H4  non d ame     -30.316  11.953  21.521  0.00  0.00     0.036 H 
ENDBRANCH  21  25
ENDBRANCH  16  19
ENDBRANCH  13  15
BRANCH  13  29
ATOM     29  C8  non d ame     -32.610   5.683  27.559  0.00  0.00    -0.049 C 
ATOM     30  H7  non d ame     -32.664   6.039  28.588  0.00  0.00     0.030 H 
ATOM     31  H8  non d ame     -33.094   4.709  27.487  0.00  0.00     0.030 H 
ATOM     32  H9  non d ame     -31.565   5.593  27.260  0.00  0.00     0.030 H 
ENDBRANCH  13  29
ENDBRANCH  10  13
ENDBRANCH   7   9
BRANCH   7  33
ATOM     33  C11 non d ame     -34.852   8.155  31.150  0.00  0.00    -0.033 C 
ATOM     34  H12 non d ame     -33.999   8.441  31.766  0.00  0.00     0.042 H 
BRANCH  33  35
ATOM     35  C12 non d ame     -36.132   8.745  31.818  0.00  0.00    -0.071 C 
ATOM     36  H13 non d ame     -35.908   9.732  32.225  0.00  0.00     0.028 H 
ATOM     37  H14 non d ame     -36.924   8.831  31.074  0.00  0.00     0.028 H 
ATOM     38  H15 non d ame     -36.459   8.087  32.623  0.00  0.00     0.028 H 
ENDBRANCH  33  35
BRANCH  33  39
ATOM     39  C13 non d ame     -34.908   6.594  31.099  0.00  0.00    -0.071 C 
ATOM     40  H16 non d ame     -35.634   6.233  31.828  0.00  0.00     0.028 H 
ATOM     41  H17 non d ame     -35.206   6.274  30.100  0.00  0.00     0.028 H 
ATOM     42  H18 non d ame     -33.924   6.187  31.331  0.00  0.00     0.028 H 
ENDBRANCH  33  39
ENDBRANCH   7  33
ENDBRANCH   4   7
ENDBRANCH   1   3
BRANCH   1  43
ATOM     43  C15 non d ame     -33.562  13.176  27.675  0.00  0.00     0.240 C 
ATOM     44  O5  non d ame     -33.487  12.917  26.517  0.00  0.00    -0.271 OA
ATOM     45  N6  non d ame     -34.217  14.443  28.109  0.00  0.00    -0.355 N 
ATOM     46  H46 non d ame     -34.291  14.672  29.090  0.00  0.00     0.162 HD
BRANCH  45  47
ATOM     47  C20 non d ame     -34.761  15.372  27.095  0.00  0.00     0.013 C 
ATOM     48  H30 non d ame     -34.247  15.180  26.154  0.00  0.00     0.072 H 
BRANCH  47  49
ATOM     49  C21 non d ame     -34.513  16.796  27.538  0.00  0.00    -0.038 C 
ATOM     50  H31 non d ame     -34.957  17.426  26.766  0.00  0.00     0.036 H 
ATOM     51  H32 non d ame     -34.877  16.853  28.564  0.00  0.00     0.036 H 
BRANCH  49  52
ATOM     52  C22 non d ame     -33.012  17.156  27.585  0.00  0.00     0.018 C 
ATOM     53  H33 non d ame     -32.949  18.080  28.159  0.00  0.00     0.048 H 
ATOM     54  H34 non d ame     -32.505  16.259  27.939  0.00  0.00     0.048 H 
BRANCH  52  55
ATOM     55  C23 non d ame     -32.400  17.474  26.193  0.00  0.00     0.259 C 
ATOM     56  O7  non d ame     -32.730  18.448  25.597  0.00  0.00    -0.265 OA
BRANCH  55  57
ATOM     57  O8  non d ame     -31.448  16.580  25.630  0.00  0.00    -0.317 OA
BRANCH  57  58
ATOM     58  C29 non d ame     -31.986  15.711  24.629  0.00  0.00     0.052 C 
ATOM     59  H47 non d ame     -32.038  14.725  25.092  0.00  0.00     0.082 H 
ATOM     60  H48 non d ame     -32.895  16.196  24.275  0.00  0.00     0.082 H 
BRANCH  58  61
ATOM     61  C35 non d ame     -30.974  15.649  23.454  0.00  0.00    -0.034 A 
ATOM     62  C30 non d ame     -29.684  15.175  23.670  0.00  0.00    -0.075 A 
ATOM     63  C31 non d ame     -28.775  15.119  22.615  0.00  0.00    -0.082 A 
ATOM     64  H49 non d ame     -29.385  14.847  24.666  0.00  0.00     0.084 H 
ATOM     65  C32 non d ame     -29.159  15.543  21.340  0.00  0.00    -0.083 A 
ATOM     66  H50 non d ame     -27.765  14.746  22.787  0.00  0.00     0.083 H 
ATOM     67  C33 non d ame     -30.446  16.019  21.130  0.00  0.00    -0.082 A 
ATOM     68  H51 non d ame     -28.454  15.502  20.509  0.00  0.00     0.083 H 
ATOM     69  C34 non d ame     -31.359  16.074  22.181  0.00  0.00    -0.075 A 
ATOM     70  H52 non d ame     -30.742  16.351  20.134  0.00  0.00     0.083 H 
ATOM     71  H53 non d ame     -32.368  16.448  22.008  0.00  0.00     0.084 H 
ENDBRANCH  58  61
ENDBRANCH  57  58
ENDBRANCH  55  57
ENDBRANCH  52  55
ENDBRANCH  49  52
ENDBRANCH  47  49
BRANCH  47  72
ATOM     72  C24 non d ame     -36.263  15.141  26.937  0.00  0.00    -0.039 C 
ATOM     73  H35 non d ame     -36.559  14.551  27.805  0.00  0.00     0.036 H 
ATOM     74  H36 non d ame     -36.693  16.130  26.778  0.00  0.00     0.036 H 
BRANCH  72  75
ATOM     75  C25 non d ame     -36.594  14.267  25.636  0.00  0.00    -0.001 C 
ATOM     76  C26 non d ame     -37.761  15.008  24.746  0.00  0.00    -0.035 C 
ATOM     77  C27 non d ame     -38.745  14.114  24.486  0.00  0.00     0.085 C 
ATOM     78  H38 non d ame     -38.260  15.770  25.344  0.00  0.00     0.036 H 
ATOM     79  H39 non d ame     -37.376  15.258  23.757  0.00  0.00     0.036 H 
ATOM     80  N5  non d ame     -38.514  12.928  25.390  0.00  0.00    -0.049 N 
ATOM     81  H40 non d ame     -39.672  14.609  24.777  0.00  0.00     0.075 H 
ATOM     82  H41 non d ame     -38.594  13.807  23.452  0.00  0.00     0.075 H 
ATOM     83  C28 non d ame     -37.012  13.089  25.958  0.00  0.00     0.193 C 
ATOM     84  H42 non d ame     -39.161  13.025  26.160  0.00  0.00     0.280 HD
ATOM     85  H43 non d ame     -38.550  12.109  24.801  0.00  0.00     0.280 HD
ATOM     86  H44 non d ame     -36.202  12.476  25.562  0.00  0.00     0.129 H 
ATOM     87  H37 non d ame     -35.693  13.953  25.109  0.00  0.00     0.046 H 
BRANCH  83  88
ATOM     88  O6  non d ame     -36.994  12.878  27.371  0.00  0.00    -0.369 OA
ATOM     89  H45 non d ame     -37.888  12.719  27.683  0.00  0.00     0.212 HD
ENDBRANCH  83  88
ENDBRANCH  72  75
ENDBRANCH  47  72
ENDBRANCH  45  47
ENDBRANCH   1  43
BRANCH   1  90
ATOM     90  C16 non d ame     -31.516  11.930  28.437  0.00  0.00    -0.035 C 
ATOM     91  H21 non d ame     -31.346  10.889  28.710  0.00  0.00     0.037 H 
ATOM     92  H22 non d ame     -31.364  12.256  27.407  0.00  0.00     0.037 H 
BRANCH  90  93
ATOM     93  C17 non d ame     -30.545  12.781  29.316  0.00  0.00    -0.059 C 
ATOM     94  H23 non d ame     -29.580  12.274  29.327  0.00  0.00     0.038 H 
BRANCH  93  95
ATOM     95  C18 non d ame     -30.324  14.213  28.733  0.00  0.00    -0.073 C 
ATOM     96  H24 non d ame     -29.946  14.870  29.516  0.00  0.00     0.028 H 
ATOM     97  H25 non d ame     -29.601  14.167  27.919  0.00  0.00     0.028 H 
ATOM     98  H26 non d ame     -31.270  14.602  28.358  0.00  0.00     0.028 H 
ENDBRANCH  93  95
BRANCH  93  99
ATOM     99  C19 non d ame     -31.038  12.851  30.764  0.00  0.00    -0.073 C 
ATOM    100  H27 non d ame     -31.834  13.592  30.841  0.00  0.00     0.028 H 
ATOM    101  H28 non d ame     -31.419  11.876  31.066  0.00  0.00     0.028 H 
ATOM    102  H29 non d ame     -30.212  13.136  31.415  0.00  0.00     0.028 H 
ENDBRANCH  93  99
ENDBRANCH  90  93
ENDBRANCH   1  90
TORSDOF 26
ENDMDL
MODEL 19
REMARK VINA RESULT:      -6.5      3.124      9.070
REMARK  26 active torsions:
REMARK  status: ('A' for Active; 'I' for Inactive)
REMARK    1  A    between atoms: C2_2  and  C3_3 
REMARK    2  A    between atoms: C4_6  and  C5_7 
REMARK       I    between atoms: C5_7  and  N2_9 
REMARK    3  A    between atoms: N2_9  and  C6_10 
REMARK    4  A    between atoms: C6_10  and  C7_11 
REMARK    5  A    between atoms: C6_10  and  C8_13 
REMARK       I    between atoms: C7_11  and  N3_14 
REMARK    6  A    between atoms: N3_14  and  C9_15 
REMARK    7  A    between atoms: C9_15  and  C10_16 
REMARK    8  A    between atoms: C9_15  and  C11_18 
REMARK       I    between atoms: C10_16  and  N4_21 
REMARK    9  A    between atoms: C11_18  and  C12_19 
REMARK   10  A    between atoms: C11_18  and  C13_20 
REMARK   11  A    between atoms: N4_21  and  C14_22 
REMARK   12  A    between atoms: C14_22  and  C15_23 
REMARK   13  A    between atoms: C14_22  and  C16_25 
REMARK       I    between atoms: C15_23  and  N6_40 
REMARK   14  A    between atoms: C16_25  and  C17_26 
REMARK   15  A    between atoms: C17_26  and  C18_27 
REMARK   16  A    between atoms: C17_26  and  C19_28 
REMARK   17  A    between atoms: C20_29  and  C21_30 
REMARK   18  A    between atoms: C20_29  and  C24_33 
REMARK   19  A    between atoms: C20_29  and  N6_40 
REMARK   20  A    between atoms: C21_30  and  C22_31 
REMARK   21  A    between atoms: C22_31  and  C23_32 
REMARK   22  A    between atoms: C23_32  and  O8_43 
REMARK   23  A    between atoms: C24_33  and  C25_34 
REMARK   24  A    between atoms: C28_38  and  O6_39 
REMARK   25  A    between atoms: C29_42  and  O8_43 
REMARK   26  A    between atoms: C29_42  and  C35_49 
ROOT
ATOM      1  C14 non d ame     -33.870   6.539  27.669  0.00  0.00     0.089 C 
ATOM      2  H20 non d ame     -33.573   5.831  28.442  0.00  0.00     0.087 H 
ENDROOT
BRANCH   1   3
ATOM      3  N4  non d ame     -33.942   7.856  28.284  0.00  0.00    -0.346 N 
ATOM      4  C10 non d ame     -34.542   8.023  29.657  0.00  0.00     0.241 C 
ATOM      5  O4  non d ame     -34.963   7.083  30.247  0.00  0.00    -0.271 OA
ATOM      6  H19 non d ame     -33.580   8.643  27.764  0.00  0.00     0.163 HD
BRANCH   4   7
ATOM      7  C9  non d ame     -34.603   9.393  30.281  0.00  0.00     0.092 C 
ATOM      8  H11 non d ame     -34.423   9.307  31.353  0.00  0.00     0.088 H 
BRANCH   7   9
ATOM      9  N3  non d ame     -33.534  10.230  29.728  0.00  0.00    -0.346 N 
ATOM     10  C7  non d ame     -32.897  11.224  30.556  0.00  0.00     0.240 C 
ATOM     11  O3  non d ame     -33.232  11.365  31.669  0.00  0.00    -0.271 OA
ATOM     12  H10 non d ame     -33.235  10.122  28.770  0.00  0.00     0.163 HD
BRANCH  10  13
ATOM     13  C6  non d ame     -31.762  12.115  29.961  0.00  0.00     0.086 C 
ATOM     14  H6  non d ame     -31.365  11.722  29.025  0.00  0.00     0.086 H 
BRANCH  13  15
ATOM     15  N2  non d ame     -32.302  13.431  29.664  0.00  0.00    -0.343 N 
ATOM     16  C5  non d ame     -31.615  14.291  28.698  0.00  0.00     0.273 C 
ATOM     17  O2  non d ame     -30.627  13.917  28.168  0.00  0.00    -0.266 OA
ATOM     18  H5  non d ame     -33.145  13.744  30.124  0.00  0.00     0.163 HD
BRANCH  16  19
ATOM     19  C4  non d ame     -32.176  15.685  28.374  0.00  0.00     0.154 A 
ATOM     20  C1  non d ame     -32.441  16.230  27.077  0.00  0.00    -0.017 A 
ATOM     21  C2  non d ame     -32.942  17.527  27.324  0.00  0.00     0.077 A 
ATOM     22  H1  non d ame     -32.293  15.756  26.107  0.00  0.00     0.091 H 
ATOM     23  O1  non d ame     -32.960  17.697  28.614  0.00  0.00    -0.218 OA
ATOM     24  N1  non d ame     -32.517  16.636  29.248  0.00  0.00    -0.123 NA
BRANCH  21  25
ATOM     25  C3  non d ame     -33.381  18.539  26.274  0.00  0.00    -0.029 C 
ATOM     26  H2  non d ame     -34.402  18.858  26.481  0.00  0.00     0.036 H 
ATOM     27  H3  non d ame     -32.718  19.403  26.302  0.00  0.00     0.036 H 
ATOM     28  H4  non d ame     -33.338  18.080  25.286  0.00  0.00     0.036 H 
ENDBRANCH  21  25
ENDBRANCH  16  19
ENDBRANCH  13  15
BRANCH  13  29
ATOM     29  C8  non d ame     -30.636  12.231  30.957  0.00  0.00    -0.049 C 
ATOM     30  H7  non d ame     -30.696  11.409  31.671  0.00  0.00     0.030 H 
ATOM     31  H8  non d ame     -29.682  12.188  30.433  0.00  0.00     0.030 H 
ATOM     32  H9  non d ame     -30.717  13.180  31.488  0.00  0.00     0.030 H 
ENDBRANCH  13  29
ENDBRANCH  10  13
ENDBRANCH   7   9
BRANCH   7  33
ATOM     33  C11 non d ame     -35.982  10.044  29.969  0.00  0.00    -0.033 C 
ATOM     34  H12 non d ame     -35.941  11.079  30.306  0.00  0.00     0.042 H 
BRANCH  33  35
ATOM     35  C12 non d ame     -36.268  10.062  28.434  0.00  0.00    -0.071 C 
ATOM     36  H13 non d ame     -36.144   9.058  28.030  0.00  0.00     0.028 H 
ATOM     37  H14 non d ame     -37.288  10.402  28.259  0.00  0.00     0.028 H 
ATOM     38  H15 non d ame     -35.569  10.739  27.943  0.00  0.00     0.028 H 
ENDBRANCH  33  35
BRANCH  33  39
ATOM     39  C13 non d ame     -37.129   9.326  30.750  0.00  0.00    -0.071 C 
ATOM     40  H16 non d ame     -37.447   9.951  31.584  0.00  0.00     0.028 H 
ATOM     41  H17 non d ame     -37.973   9.155  30.080  0.00  0.00     0.028 H 
ATOM     42  H18 non d ame     -36.768   8.370  31.128  0.00  0.00     0.028 H 
ENDBRANCH  33  39
ENDBRANCH   7  33
ENDBRANCH   4   7
ENDBRANCH   1   3
BRANCH   1  43
ATOM     43  C15 non d ame     -32.847   6.594  26.498  0.00  0.00     0.240 C 
ATOM     44  O5  non d ame     -31.836   5.973  26.567  0.00  0.00    -0.271 OA
ATOM     45  N6  non d ame     -33.132   7.414  25.286  0.00  0.00    -0.355 N 
ATOM     46  H46 non d ame     -33.990   7.942  25.214  0.00  0.00     0.162 HD
BRANCH  45  47
ATOM     47  C20 non d ame     -32.150   7.455  24.181  0.00  0.00     0.013 C 
ATOM     48  H30 non d ame     -31.240   6.962  24.523  0.00  0.00     0.072 H 
BRANCH  47  49
ATOM     49  C21 non d ame     -31.856   8.895  23.828  0.00  0.00    -0.038 C 
ATOM     50  H31 non d ame     -30.809   9.054  24.086  0.00  0.00     0.036 H 
ATOM     51  H32 non d ame     -32.188   9.019  22.797  0.00  0.00     0.036 H 
BRANCH  49  52
ATOM     52  C22 non d ame     -32.671   9.899  24.672  0.00  0.00     0.018 C 
ATOM     53  H33 non d ame     -32.859  10.750  24.019  0.00  0.00     0.048 H 
ATOM     54  H34 non d ame     -33.506   9.330  25.082  0.00  0.00     0.048 H 
BRANCH  52  55
ATOM     55  C23 non d ame     -31.896  10.461  25.896  0.00  0.00     0.259 C 
ATOM     56  O7  non d ame     -32.034   9.978  26.972  0.00  0.00    -0.265 OA
BRANCH  55  57
ATOM     57  O8  non d ame     -31.025  11.572  25.719  0.00  0.00    -0.317 OA
BRANCH  57  58
ATOM     58  C29 non d ame     -31.678  12.754  25.247  0.00  0.00     0.052 C 
ATOM     59  H47 non d ame     -32.640  12.423  24.854  0.00  0.00     0.082 H 
ATOM     60  H48 non d ame     -31.642  13.462  26.074  0.00  0.00     0.082 H 
BRANCH  58  61
ATOM     61  C35 non d ame     -30.841  13.328  24.073  0.00  0.00    -0.034 A 
ATOM     62  C30 non d ame     -30.305  12.473  23.116  0.00  0.00    -0.075 A 
ATOM     63  C31 non d ame     -29.552  12.988  22.062  0.00  0.00    -0.082 A 
ATOM     64  H49 non d ame     -30.474  11.398  23.192  0.00  0.00     0.084 H 
ATOM     65  C32 non d ame     -29.334  14.365  21.968  0.00  0.00    -0.083 A 
ATOM     66  H50 non d ame     -29.135  12.315  21.312  0.00  0.00     0.083 H 
ATOM     67  C33 non d ame     -29.868  15.215  22.927  0.00  0.00    -0.082 A 
ATOM     68  H51 non d ame     -28.747  14.776  21.147  0.00  0.00     0.083 H 
ATOM     69  C34 non d ame     -30.622  14.704  23.981  0.00  0.00    -0.075 A 
ATOM     70  H52 non d ame     -29.694  16.288  22.853  0.00  0.00     0.083 H 
ATOM     71  H53 non d ame     -31.039  15.378  24.730  0.00  0.00     0.084 H 
ENDBRANCH  58  61
ENDBRANCH  57  58
ENDBRANCH  55  57
ENDBRANCH  52  55
ENDBRANCH  49  52
ENDBRANCH  47  49
BRANCH  47  72
ATOM     72  C24 non d ame     -32.717   6.735  22.959  0.00  0.00    -0.039 C 
ATOM     73  H35 non d ame     -31.976   5.979  22.698  0.00  0.00     0.036 H 
ATOM     74  H36 non d ame     -33.726   6.434  23.242  0.00  0.00     0.036 H 
BRANCH  72  75
ATOM     75  C25 non d ame     -32.853   7.719  21.702  0.00  0.00    -0.001 C 
ATOM     76  C26 non d ame     -34.435   8.089  21.449  0.00  0.00    -0.035 C 
ATOM     77  C27 non d ame     -34.734   7.855  20.149  0.00  0.00     0.085 C 
ATOM     78  H38 non d ame     -35.073   7.389  21.987  0.00  0.00     0.036 H 
ATOM     79  H39 non d ame     -34.589   9.163  21.557  0.00  0.00     0.036 H 
ATOM     80  N5  non d ame     -33.595   7.052  19.570  0.00  0.00    -0.049 N 
ATOM     81  H40 non d ame     -35.633   7.238  20.164  0.00  0.00     0.075 H 
ATOM     82  H41 non d ame     -34.755   8.836  19.674  0.00  0.00     0.075 H 
ATOM     83  C28 non d ame     -32.383   7.174  20.630  0.00  0.00     0.193 C 
ATOM     84  H42 non d ame     -33.905   6.092  19.545  0.00  0.00     0.280 HD
ATOM     85  H43 non d ame     -33.323   7.518  18.716  0.00  0.00     0.280 HD
ATOM     86  H44 non d ame     -31.536   7.830  20.429  0.00  0.00     0.129 H 
ATOM     87  H37 non d ame     -32.150   8.551  21.751  0.00  0.00     0.046 H 
BRANCH  83  88
ATOM     88  O6  non d ame     -31.818   5.886  20.882  0.00  0.00    -0.369 OA
ATOM     89  H45 non d ame     -32.480   5.319  21.284  0.00  0.00     0.212 HD
ENDBRANCH  83  88
ENDBRANCH  72  75
ENDBRANCH  47  72
ENDBRANCH  45  47
ENDBRANCH   1  43
BRANCH   1  90
ATOM     90  C16 non d ame     -35.243   6.167  27.131  0.00  0.00    -0.035 C 
ATOM     91  H21 non d ame     -35.913   6.951  27.482  0.00  0.00     0.037 H 
ATOM     92  H22 non d ame     -35.101   6.010  26.061  0.00  0.00     0.037 H 
BRANCH  90  93
ATOM     93  C17 non d ame     -35.798   4.824  27.704  0.00  0.00    -0.059 C 
ATOM     94  H23 non d ame     -35.074   4.449  28.427  0.00  0.00     0.038 H 
BRANCH  93  95
ATOM     95  C18 non d ame     -37.157   5.019  28.450  0.00  0.00    -0.073 C 
ATOM     96  H24 non d ame     -37.660   5.905  28.063  0.00  0.00     0.028 H 
ATOM     97  H25 non d ame     -37.788   4.146  28.289  0.00  0.00     0.028 H 
ATOM     98  H26 non d ame     -36.972   5.142  29.516  0.00  0.00     0.028 H 
ENDBRANCH  93  95
BRANCH  93  99
ATOM     99  C19 non d ame     -35.928   3.771  26.602  0.00  0.00    -0.073 C 
ATOM    100  H27 non d ame     -35.639   4.208  25.645  0.00  0.00     0.028 H 
ATOM    101  H28 non d ame     -35.276   2.926  26.826  0.00  0.00     0.028 H 
ATOM    102  H29 non d ame     -36.960   3.427  26.547  0.00  0.00     0.028 H 
ENDBRANCH  93  99
ENDBRANCH  90  93
ENDBRANCH   1  90
TORSDOF 26
ENDMDL
MODEL 20
REMARK VINA RESULT:      -6.4      2.940      7.545
REMARK  26 active torsions:
REMARK  status: ('A' for Active; 'I' for Inactive)
REMARK    1  A    between atoms: C2_2  and  C3_3 
REMARK    2  A    between atoms: C4_6  and  C5_7 
REMARK       I    between atoms: C5_7  and  N2_9 
REMARK    3  A    between atoms: N2_9  and  C6_10 
REMARK    4  A    between atoms: C6_10  and  C7_11 
REMARK    5  A    between atoms: C6_10  and  C8_13 
REMARK       I    between atoms: C7_11  and  N3_14 
REMARK    6  A    between atoms: N3_14  and  C9_15 
REMARK    7  A    between atoms: C9_15  and  C10_16 
REMARK    8  A    between atoms: C9_15  and  C11_18 
REMARK       I    between atoms: C10_16  and  N4_21 
REMARK    9  A    between atoms: C11_18  and  C12_19 
REMARK   10  A    between atoms: C11_18  and  C13_20 
REMARK   11  A    between atoms: N4_21  and  C14_22 
REMARK   12  A    between atoms: C14_22  and  C15_23 
REMARK   13  A    between atoms: C14_22  and  C16_25 
REMARK       I    between atoms: C15_23  and  N6_40 
REMARK   14  A    between atoms: C16_25  and  C17_26 
REMARK   15  A    between atoms: C17_26  and  C18_27 
REMARK   16  A    between atoms: C17_26  and  C19_28 
REMARK   17  A    between atoms: C20_29  and  C21_30 
REMARK   18  A    between atoms: C20_29  and  C24_33 
REMARK   19  A    between atoms: C20_29  and  N6_40 
REMARK   20  A    between atoms: C21_30  and  C22_31 
REMARK   21  A    between atoms: C22_31  and  C23_32 
REMARK   22  A    between atoms: C23_32  and  O8_43 
REMARK   23  A    between atoms: C24_33  and  C25_34 
REMARK   24  A    between atoms: C28_38  and  O6_39 
REMARK   25  A    between atoms: C29_42  and  O8_43 
REMARK   26  A    between atoms: C29_42  and  C35_49 
ROOT
ATOM      1  C14 non d ame     -33.011   9.157  27.453  0.00  0.00     0.089 C 
ATOM      2  H20 non d ame     -32.009   8.728  27.414  0.00  0.00     0.087 H 
ENDROOT
BRANCH   1   3
ATOM      3  N4  non d ame     -32.872  10.562  27.808  0.00  0.00    -0.346 N 
ATOM      4  C10 non d ame     -31.762  11.391  27.214  0.00  0.00     0.241 C 
ATOM      5  O4  non d ame     -30.990  10.906  26.454  0.00  0.00    -0.271 OA
ATOM      6  H19 non d ame     -33.537  10.955  28.459  0.00  0.00     0.163 HD
BRANCH   4   7
ATOM      7  C9  non d ame     -31.636  12.845  27.588  0.00  0.00     0.092 C 
ATOM      8  H11 non d ame     -30.601  13.160  27.460  0.00  0.00     0.088 H 
BRANCH   7   9
ATOM      9  N3  non d ame     -32.453  13.656  26.680  0.00  0.00    -0.346 N 
ATOM     10  C7  non d ame     -31.825  14.389  25.608  0.00  0.00     0.240 C 
ATOM     11  O3  non d ame     -30.664  14.339  25.464  0.00  0.00    -0.271 OA
ATOM     12  H10 non d ame     -33.455  13.711  26.793  0.00  0.00     0.163 HD
BRANCH  10  13
ATOM     13  C6  non d ame     -32.698  15.254  24.646  0.00  0.00     0.086 C 
ATOM     14  H6  non d ame     -33.594  14.733  24.309  0.00  0.00     0.086 H 
BRANCH  13  15
ATOM     15  N2  non d ame     -33.149  16.439  25.356  0.00  0.00    -0.343 N 
ATOM     16  C5  non d ame     -34.393  16.390  26.127  0.00  0.00     0.273 C 
ATOM     17  O2  non d ame     -35.026  15.392  26.167  0.00  0.00    -0.266 OA
ATOM     18  H5  non d ame     -32.603  17.289  25.314  0.00  0.00     0.163 HD
BRANCH  16  19
ATOM     19  C4  non d ame     -34.880  17.635  26.883  0.00  0.00     0.154 A 
ATOM     20  C1  non d ame     -35.546  18.776  26.332  0.00  0.00    -0.017 A 
ATOM     21  C2  non d ame     -35.778  19.629  27.434  0.00  0.00     0.077 A 
ATOM     22  H1  non d ame     -35.820  18.956  25.293  0.00  0.00     0.091 H 
ATOM     23  O1  non d ame     -35.298  19.038  28.489  0.00  0.00    -0.218 OA
ATOM     24  N1  non d ame     -34.769  17.873  28.193  0.00  0.00    -0.123 NA
BRANCH  21  25
ATOM     25  C3  non d ame     -36.463  20.988  27.394  0.00  0.00    -0.029 C 
ATOM     26  H2  non d ame     -35.751  21.763  27.677  0.00  0.00     0.036 H 
ATOM     27  H3  non d ame     -36.827  21.182  26.385  0.00  0.00     0.036 H 
ATOM     28  H4  non d ame     -37.302  20.994  28.090  0.00  0.00     0.036 H 
ENDBRANCH  21  25
ENDBRANCH  16  19
ENDBRANCH  13  15
BRANCH  13  29
ATOM     29  C8  non d ame     -31.882  15.651  23.443  0.00  0.00    -0.049 C 
ATOM     30  H7  non d ame     -31.503  16.664  23.579  0.00  0.00     0.030 H 
ATOM     31  H8  non d ame     -31.046  14.962  23.328  0.00  0.00     0.030 H 
ATOM     32  H9  non d ame     -32.508  15.614  22.551  0.00  0.00     0.030 H 
ENDBRANCH  13  29
ENDBRANCH  10  13
ENDBRANCH   7   9
BRANCH   7  33
ATOM     33  C11 non d ame     -32.134  13.049  29.050  0.00  0.00    -0.033 C 
ATOM     34  H12 non d ame     -32.951  12.349  29.219  0.00  0.00     0.042 H 
BRANCH  33  35
ATOM     35  C12 non d ame     -31.012  12.719  30.083  0.00  0.00    -0.071 C 
ATOM     36  H13 non d ame     -30.085  13.206  29.781  0.00  0.00     0.028 H 
ATOM     37  H14 non d ame     -31.307  13.079  31.068  0.00  0.00     0.028 H 
ATOM     38  H15 non d ame     -30.859  11.641  30.121  0.00  0.00     0.028 H 
ENDBRANCH  33  35
BRANCH  33  39
ATOM     39  C13 non d ame     -32.686  14.496  29.256  0.00  0.00    -0.071 C 
ATOM     40  H16 non d ame     -32.243  14.930  30.152  0.00  0.00     0.028 H 
ATOM     41  H17 non d ame     -32.430  15.109  28.391  0.00  0.00     0.028 H 
ATOM     42  H18 non d ame     -33.769  14.459  29.366  0.00  0.00     0.028 H 
ENDBRANCH  33  39
ENDBRANCH   7  33
ENDBRANCH   4   7
ENDBRANCH   1   3
BRANCH   1  43
ATOM     43  C15 non d ame     -33.745   9.062  26.085  0.00  0.00     0.240 C 
ATOM     44  O5  non d ame     -34.749   9.674  25.910  0.00  0.00    -0.271 OA
ATOM     45  N6  non d ame     -33.192   8.215  24.991  0.00  0.00    -0.355 N 
ATOM     46  H46 non d ame     -32.337   7.695  25.126  0.00  0.00     0.162 HD
BRANCH  45  47
ATOM     47  C20 non d ame     -33.901   8.137  23.695  0.00  0.00     0.013 C 
ATOM     48  H30 non d ame     -34.809   8.735  23.773  0.00  0.00     0.072 H 
BRANCH  47  49
ATOM     49  C21 non d ame     -34.255   6.696  23.406  0.00  0.00    -0.038 C 
ATOM     50  H31 non d ame     -35.257   6.551  23.811  0.00  0.00     0.036 H 
ATOM     51  H32 non d ame     -34.073   6.556  22.340  0.00  0.00     0.036 H 
BRANCH  49  52
ATOM     52  C22 non d ame     -33.338   5.694  24.141  0.00  0.00     0.018 C 
ATOM     53  H33 non d ame     -33.046   4.958  23.393  0.00  0.00     0.048 H 
ATOM     54  H34 non d ame     -32.579   6.298  24.637  0.00  0.00     0.048 H 
BRANCH  52  55
ATOM     55  C23 non d ame     -34.055   4.899  25.267  0.00  0.00     0.259 C 
ATOM     56  O7  non d ame     -34.445   3.793  25.071  0.00  0.00    -0.265 OA
BRANCH  55  57
ATOM     57  O8  non d ame     -34.253   5.511  26.535  0.00  0.00    -0.317 OA
BRANCH  57  58
ATOM     58  C29 non d ame     -34.059   4.630  27.645  0.00  0.00     0.052 C 
ATOM     59  H47 non d ame     -34.406   3.652  27.309  0.00  0.00     0.082 H 
ATOM     60  H48 non d ame     -33.022   4.764  27.951  0.00  0.00     0.082 H 
BRANCH  58  61
ATOM     61  C35 non d ame     -34.978   5.106  28.801  0.00  0.00    -0.034 A 
ATOM     62  C30 non d ame     -34.474   5.213  30.093  0.00  0.00    -0.075 A 
ATOM     63  C31 non d ame     -35.299   5.640  31.132  0.00  0.00    -0.082 A 
ATOM     64  H49 non d ame     -33.432   4.961  30.292  0.00  0.00     0.084 H 
ATOM     65  C32 non d ame     -36.635   5.959  30.876  0.00  0.00    -0.083 A 
ATOM     66  H50 non d ame     -34.900   5.724  32.143  0.00  0.00     0.083 H 
ATOM     67  C33 non d ame     -37.135   5.847  29.586  0.00  0.00    -0.082 A 
ATOM     68  H51 non d ame     -37.287   6.294  31.682  0.00  0.00     0.083 H 
ATOM     69  C34 non d ame     -36.313   5.423  28.544  0.00  0.00    -0.075 A 
ATOM     70  H52 non d ame     -38.179   6.095  29.389  0.00  0.00     0.083 H 
ATOM     71  H53 non d ame     -36.713   5.339  27.533  0.00  0.00     0.084 H 
ENDBRANCH  58  61
ENDBRANCH  57  58
ENDBRANCH  55  57
ENDBRANCH  52  55
ENDBRANCH  49  52
ENDBRANCH  47  49
BRANCH  47  72
ATOM     72  C24 non d ame     -33.004   8.675  22.582  0.00  0.00    -0.039 C 
ATOM     73  H35 non d ame     -33.145   7.994  21.742  0.00  0.00     0.036 H 
ATOM     74  H36 non d ame     -33.268   9.727  22.480  0.00  0.00     0.036 H 
BRANCH  72  75
ATOM     75  C25 non d ame     -31.456   8.612  22.986  0.00  0.00    -0.001 C 
ATOM     76  C26 non d ame     -30.841  10.134  23.087  0.00  0.00    -0.035 C 
ATOM     77  C27 non d ame     -29.712  10.199  22.343  0.00  0.00     0.085 C 
ATOM     78  H38 non d ame     -31.511  10.841  22.597  0.00  0.00     0.036 H 
ATOM     79  H39 non d ame     -30.491  10.329  24.101  0.00  0.00     0.036 H 
ATOM     80  N5  non d ame     -29.677   8.959  21.484  0.00  0.00    -0.049 N 
ATOM     81  H40 non d ame     -29.835  11.073  21.703  0.00  0.00     0.075 H 
ATOM     82  H41 non d ame     -28.890  10.159  23.058  0.00  0.00     0.075 H 
ATOM     83  C28 non d ame     -30.771   7.952  22.113  0.00  0.00     0.193 C 
ATOM     84  H42 non d ame     -29.989   9.239  20.565  0.00  0.00     0.280 HD
ATOM     85  H43 non d ame     -28.760   8.554  21.604  0.00  0.00     0.280 HD
ATOM     86  H44 non d ame     -30.457   7.098  22.712  0.00  0.00     0.129 H 
ATOM     87  H37 non d ame     -31.276   7.948  23.831  0.00  0.00     0.046 H 
BRANCH  83  88
ATOM     88  O6  non d ame     -31.595   7.411  21.079  0.00  0.00    -0.369 OA
ATOM     89  H45 non d ame     -31.592   6.452  21.136  0.00  0.00     0.212 HD
ENDBRANCH  83  88
ENDBRANCH  72  75
ENDBRANCH  47  72
ENDBRANCH  45  47
ENDBRANCH   1  43
BRANCH   1  90
ATOM     90  C16 non d ame     -33.830   8.454  28.523  0.00  0.00    -0.035 C 
ATOM     91  H21 non d ame     -34.569   7.865  27.980  0.00  0.00     0.037 H 
ATOM     92  H22 non d ame     -33.102   7.957  29.165  0.00  0.00     0.037 H 
BRANCH  90  93
ATOM     93  C17 non d ame     -34.633   9.430  29.440  0.00  0.00    -0.059 C 
ATOM     94  H23 non d ame     -34.277  10.440  29.241  0.00  0.00     0.038 H 
BRANCH  93  95
ATOM     95  C18 non d ame     -36.166   9.397  29.137  0.00  0.00    -0.073 C 
ATOM     96  H24 non d ame     -36.709   9.118  30.039  0.00  0.00     0.028 H 
ATOM     97  H25 non d ame     -36.493  10.383  28.808  0.00  0.00     0.028 H 
ATOM     98  H26 non d ame     -36.365   8.668  28.352  0.00  0.00     0.028 H 
ENDBRANCH  93  95
BRANCH  93  99
ATOM     99  C19 non d ame     -34.365   9.137  30.919  0.00  0.00    -0.073 C 
ATOM    100  H27 non d ame     -33.951   8.133  31.021  0.00  0.00     0.028 H 
ATOM    101  H28 non d ame     -33.653   9.865  31.310  0.00  0.00     0.028 H 
ATOM    102  H29 non d ame     -35.297   9.205  31.478  0.00  0.00     0.028 H 
ENDBRANCH  93  99
ENDBRANCH  90  93
ENDBRANCH   1  90
TORSDOF 26
ENDMDL
