MODEL 1
REMARK VINA RESULT:      -7.1      0.000      0.000
REMARK  26 active torsions:
REMARK  status: ('A' for Active; 'I' for Inactive)
REMARK    1  A    between atoms: C2_2  and  C3_3 
REMARK    2  A    between atoms: C4_6  and  C5_7 
REMARK       I    between atoms: C5_7  and  N2_9 
REMARK    3  A    between atoms: N2_9  and  C6_10 
REMARK    4  A    between atoms: C6_10  and  C7_11 
REMARK    5  A    between atoms: C6_10  and  C8_13 
REMARK       I    between atoms: C7_11  and  N3_14 
REMARK    6  A    between atoms: N3_14  and  C9_15 
REMARK    7  A    between atoms: C9_15  and  C10_16 
REMARK    8  A    between atoms: C9_15  and  C11_18 
REMARK       I    between atoms: C10_16  and  N4_21 
REMARK    9  A    between atoms: C11_18  and  C12_19 
REMARK   10  A    between atoms: C11_18  and  C13_20 
REMARK   11  A    between atoms: N4_21  and  C14_22 
REMARK   12  A    between atoms: C14_22  and  C15_23 
REMARK   13  A    between atoms: C14_22  and  C16_25 
REMARK       I    between atoms: C15_23  and  N6_40 
REMARK   14  A    between atoms: C16_25  and  C17_26 
REMARK   15  A    between atoms: C17_26  and  C18_27 
REMARK   16  A    between atoms: C17_26  and  C19_28 
REMARK   17  A    between atoms: C20_29  and  C21_30 
REMARK   18  A    between atoms: C20_29  and  C24_33 
REMARK   19  A    between atoms: C20_29  and  N6_40 
REMARK   20  A    between atoms: C21_30  and  C22_31 
REMARK   21  A    between atoms: C22_31  and  C23_32 
REMARK   22  A    between atoms: C23_32  and  O8_43 
REMARK   23  A    between atoms: C24_33  and  C25_34 
REMARK   24  A    between atoms: C28_38  and  O6_39 
REMARK   25  A    between atoms: C29_42  and  O8_43 
REMARK   26  A    between atoms: C29_42  and  C35_49 
ROOT
ATOM      1  C14 non d ame     -30.807  14.476  23.721  0.00  0.00     0.089 C 
ATOM      2  H20 non d ame     -29.721  14.501  23.626  0.00  0.00     0.087 H 
ENDROOT
BRANCH   1   3
ATOM      3  N4  non d ame     -31.189  13.107  24.033  0.00  0.00    -0.346 N 
ATOM      4  C10 non d ame     -30.541  11.952  23.311  0.00  0.00     0.241 C 
ATOM      5  O4  non d ame     -29.717  12.150  22.480  0.00  0.00    -0.271 OA
ATOM      6  H19 non d ame     -31.894  12.960  24.741  0.00  0.00     0.163 HD
BRANCH   4   7
ATOM      7  C9  non d ame     -30.945  10.541  23.650  0.00  0.00     0.092 C 
ATOM      8  H11 non d ame     -30.383  10.208  24.523  0.00  0.00     0.088 H 
BRANCH   7   9
ATOM      9  N3  non d ame     -32.365  10.512  24.011  0.00  0.00    -0.346 N 
ATOM     10  C7  non d ame     -32.764  10.708  25.383  0.00  0.00     0.240 C 
ATOM     11  O3  non d ame     -31.955  10.888  26.209  0.00  0.00    -0.271 OA
ATOM     12  H10 non d ame     -33.074  10.356  23.309  0.00  0.00     0.163 HD
BRANCH  10  13
ATOM     13  C6  non d ame     -34.277  10.673  25.761  0.00  0.00     0.086 C 
ATOM     14  H6  non d ame     -34.442  10.525  26.829  0.00  0.00     0.086 H 
BRANCH  13  15
ATOM     15  N2  non d ame     -34.878  11.952  25.421  0.00  0.00    -0.343 N 
ATOM     16  C5  non d ame     -35.887  12.534  26.310  0.00  0.00     0.273 C 
ATOM     17  O2  non d ame     -36.210  11.963  27.293  0.00  0.00    -0.266 OA
ATOM     18  H5  non d ame     -34.598  12.431  24.577  0.00  0.00     0.163 HD
BRANCH  16  19
ATOM     19  C4  non d ame     -36.529  13.886  25.963  0.00  0.00     0.154 A 
ATOM     20  C1  non d ame     -36.695  14.456  24.661  0.00  0.00    -0.017 A 
ATOM     21  C2  non d ame     -37.334  15.696  24.887  0.00  0.00     0.077 A 
ATOM     22  H1  non d ame     -36.398  14.035  23.701  0.00  0.00     0.091 H 
ATOM     23  O1  non d ame     -37.510  15.814  26.170  0.00  0.00    -0.218 OA
ATOM     24  N1  non d ame     -37.048  14.770  26.820  0.00  0.00    -0.123 NA
BRANCH  21  25
ATOM     25  C3  non d ame     -37.741  16.707  23.823  0.00  0.00    -0.029 C 
ATOM     26  H2  non d ame     -37.469  17.710  24.150  0.00  0.00     0.036 H 
ATOM     27  H3  non d ame     -37.227  16.478  22.889  0.00  0.00     0.036 H 
ATOM     28  H4  non d ame     -38.818  16.656  23.666  0.00  0.00     0.036 H 
ENDBRANCH  21  25
ENDBRANCH  16  19
ENDBRANCH  13  15
BRANCH  13  29
ATOM     29  C8  non d ame     -34.962   9.563  25.005  0.00  0.00    -0.049 C 
ATOM     30  H7  non d ame     -34.292   8.706  24.932  0.00  0.00     0.030 H 
ATOM     31  H8  non d ame     -35.870   9.270  25.532  0.00  0.00     0.030 H 
ATOM     32  H9  non d ame     -35.218   9.910  24.003  0.00  0.00     0.030 H 
ENDBRANCH  13  29
ENDBRANCH  10  13
ENDBRANCH   7   9
BRANCH   7  33
ATOM     33  C11 non d ame     -30.707   9.623  22.415  0.00  0.00    -0.033 C 
ATOM     34  H12 non d ame     -30.620  10.266  21.539  0.00  0.00     0.042 H 
BRANCH  33  35
ATOM     35  C12 non d ame     -29.371   8.827  22.547  0.00  0.00    -0.071 C 
ATOM     36  H13 non d ame     -29.562   7.877  23.046  0.00  0.00     0.028 H 
ATOM     37  H14 non d ame     -28.960   8.641  21.556  0.00  0.00     0.028 H 
ATOM     38  H15 non d ame     -28.659   9.408  23.134  0.00  0.00     0.028 H 
ENDBRANCH  33  35
BRANCH  33  39
ATOM     39  C13 non d ame     -31.919   8.663  22.191  0.00  0.00    -0.071 C 
ATOM     40  H16 non d ame     -32.811   9.249  21.971  0.00  0.00     0.028 H 
ATOM     41  H17 non d ame     -31.705   7.997  21.354  0.00  0.00     0.028 H 
ATOM     42  H18 non d ame     -32.085   8.071  23.091  0.00  0.00     0.028 H 
ENDBRANCH  33  39
ENDBRANCH   7  33
ENDBRANCH   4   7
ENDBRANCH   1   3
BRANCH   1  43
ATOM     43  C15 non d ame     -31.317  15.404  24.860  0.00  0.00     0.240 C 
ATOM     44  O5  non d ame     -30.717  16.394  25.130  0.00  0.00    -0.271 OA
ATOM     45  N6  non d ame     -32.560  15.064  25.609  0.00  0.00    -0.355 N 
ATOM     46  H46 non d ame     -33.082  14.229  25.385  0.00  0.00     0.162 HD
BRANCH  45  47
ATOM     47  C20 non d ame     -33.034  15.957  26.688  0.00  0.00     0.013 C 
ATOM     48  H30 non d ame     -32.188  16.561  27.019  0.00  0.00     0.072 H 
BRANCH  47  49
ATOM     49  C21 non d ame     -33.552  15.122  27.837  0.00  0.00    -0.038 C 
ATOM     50  H31 non d ame     -34.489  15.589  28.142  0.00  0.00     0.036 H 
ATOM     51  H32 non d ame     -33.547  14.093  27.478  0.00  0.00     0.036 H 
BRANCH  49  52
ATOM     52  C22 non d ame     -32.625  15.159  29.071  0.00  0.00     0.018 C 
ATOM     53  H33 non d ame     -32.044  16.076  28.977  0.00  0.00     0.048 H 
ATOM     54  H34 non d ame     -33.275  15.012  29.934  0.00  0.00     0.048 H 
BRANCH  52  55
ATOM     55  C23 non d ame     -31.590  14.000  29.112  0.00  0.00     0.259 C 
ATOM     56  O7  non d ame     -31.018  13.667  28.126  0.00  0.00    -0.265 OA
BRANCH  55  57
ATOM     57  O8  non d ame     -31.342  13.331  30.343  0.00  0.00    -0.317 OA
BRANCH  57  58
ATOM     58  C29 non d ame     -31.110  11.926  30.205  0.00  0.00     0.052 C 
ATOM     59  H47 non d ame     -30.719  11.790  29.197  0.00  0.00     0.082 H 
ATOM     60  H48 non d ame     -30.508  11.641  31.067  0.00  0.00     0.082 H 
BRANCH  58  61
ATOM     61  C35 non d ame     -32.480  11.203  30.302  0.00  0.00    -0.034 A 
ATOM     62  C30 non d ame     -32.878  10.327  29.298  0.00  0.00    -0.075 A 
ATOM     63  C31 non d ame     -34.108   9.677  29.385  0.00  0.00    -0.082 A 
ATOM     64  H49 non d ame     -32.227  10.149  28.442  0.00  0.00     0.084 H 
ATOM     65  C32 non d ame     -34.943   9.908  30.481  0.00  0.00    -0.083 A 
ATOM     66  H50 non d ame     -34.417   8.990  28.596  0.00  0.00     0.083 H 
ATOM     67  C33 non d ame     -34.543  10.786  31.480  0.00  0.00    -0.082 A 
ATOM     68  H51 non d ame     -35.907   9.404  30.558  0.00  0.00     0.083 H 
ATOM     69  C34 non d ame     -33.314  11.436  31.398  0.00  0.00    -0.075 A 
ATOM     70  H52 non d ame     -35.198  10.966  32.333  0.00  0.00     0.083 H 
ATOM     71  H53 non d ame     -33.006  12.123  32.187  0.00  0.00     0.084 H 
ENDBRANCH  58  61
ENDBRANCH  57  58
ENDBRANCH  55  57
ENDBRANCH  52  55
ENDBRANCH  49  52
ENDBRANCH  47  49
BRANCH  47  72
ATOM     72  C24 non d ame     -34.153  16.854  26.163  0.00  0.00    -0.039 C 
ATOM     73  H35 non d ame     -34.348  16.510  25.147  0.00  0.00     0.036 H 
ATOM     74  H36 non d ame     -34.941  16.804  26.915  0.00  0.00     0.036 H 
BRANCH  72  75
ATOM     75  C25 non d ame     -33.690  18.384  26.064  0.00  0.00    -0.001 C 
ATOM     76  C26 non d ame     -32.491  18.678  27.151  0.00  0.00    -0.035 C 
ATOM     77  C27 non d ame     -32.822  19.770  27.880  0.00  0.00     0.085 C 
ATOM     78  H38 non d ame     -32.453  17.879  27.890  0.00  0.00     0.036 H 
ATOM     79  H39 non d ame     -31.583  18.984  26.631  0.00  0.00     0.036 H 
ATOM     80  N5  non d ame     -34.281  20.053  27.615  0.00  0.00    -0.049 N 
ATOM     81  H40 non d ame     -32.701  19.472  28.922  0.00  0.00     0.075 H 
ATOM     82  H41 non d ame     -32.223  20.584  27.474  0.00  0.00     0.075 H 
ATOM     83  C28 non d ame     -34.671  19.186  26.310  0.00  0.00     0.193 C 
ATOM     84  H42 non d ame     -34.792  19.689  28.407  0.00  0.00     0.280 HD
ATOM     85  H43 non d ame     -34.344  21.033  27.381  0.00  0.00     0.280 HD
ATOM     86  H44 non d ame     -34.782  19.668  25.339  0.00  0.00     0.129 H 
ATOM     87  H37 non d ame     -33.514  18.696  25.034  0.00  0.00     0.046 H 
BRANCH  83  88
ATOM     88  O6  non d ame     -35.897  18.487  26.532  0.00  0.00    -0.369 OA
ATOM     89  H45 non d ame     -36.283  18.242  25.687  0.00  0.00     0.212 HD
ENDBRANCH  83  88
ENDBRANCH  72  75
ENDBRANCH  47  72
ENDBRANCH  45  47
ENDBRANCH   1  43
BRANCH   1  90
ATOM     90  C16 non d ame     -31.448  14.883  22.404  0.00  0.00    -0.035 C 
ATOM     91  H21 non d ame     -31.641  13.949  21.876  0.00  0.00     0.037 H 
ATOM     92  H22 non d ame     -32.277  15.536  22.677  0.00  0.00     0.037 H 
BRANCH  90  93
ATOM     93  C17 non d ame     -30.508  15.724  21.483  0.00  0.00    -0.059 C 
ATOM     94  H23 non d ame     -30.799  16.770  21.580  0.00  0.00     0.038 H 
BRANCH  93  95
ATOM     95  C18 non d ame     -29.009  15.604  21.904  0.00  0.00    -0.073 C 
ATOM     96  H24 non d ame     -28.912  15.817  22.968  0.00  0.00     0.028 H 
ATOM     97  H25 non d ame     -28.654  14.594  21.703  0.00  0.00     0.028 H 
ATOM     98  H26 non d ame     -28.413  16.318  21.335  0.00  0.00     0.028 H 
ENDBRANCH  93  95
BRANCH  93  99
ATOM     99  C19 non d ame     -30.693  15.336  20.013  0.00  0.00    -0.073 C 
ATOM    100  H27 non d ame     -30.937  14.275  19.945  0.00  0.00     0.028 H 
ATOM    101  H28 non d ame     -31.504  15.923  19.581  0.00  0.00     0.028 H 
ATOM    102  H29 non d ame     -29.772  15.533  19.466  0.00  0.00     0.028 H 
ENDBRANCH  93  99
ENDBRANCH  90  93
ENDBRANCH   1  90
TORSDOF 26
ENDMDL
MODEL 2
REMARK VINA RESULT:      -7.1      3.024      7.020
REMARK  26 active torsions:
REMARK  status: ('A' for Active; 'I' for Inactive)
REMARK    1  A    between atoms: C2_2  and  C3_3 
REMARK    2  A    between atoms: C4_6  and  C5_7 
REMARK       I    between atoms: C5_7  and  N2_9 
REMARK    3  A    between atoms: N2_9  and  C6_10 
REMARK    4  A    between atoms: C6_10  and  C7_11 
REMARK    5  A    between atoms: C6_10  and  C8_13 
REMARK       I    between atoms: C7_11  and  N3_14 
REMARK    6  A    between atoms: N3_14  and  C9_15 
REMARK    7  A    between atoms: C9_15  and  C10_16 
REMARK    8  A    between atoms: C9_15  and  C11_18 
REMARK       I    between atoms: C10_16  and  N4_21 
REMARK    9  A    between atoms: C11_18  and  C12_19 
REMARK   10  A    between atoms: C11_18  and  C13_20 
REMARK   11  A    between atoms: N4_21  and  C14_22 
REMARK   12  A    between atoms: C14_22  and  C15_23 
REMARK   13  A    between atoms: C14_22  and  C16_25 
REMARK       I    between atoms: C15_23  and  N6_40 
REMARK   14  A    between atoms: C16_25  and  C17_26 
REMARK   15  A    between atoms: C17_26  and  C18_27 
REMARK   16  A    between atoms: C17_26  and  C19_28 
REMARK   17  A    between atoms: C20_29  and  C21_30 
REMARK   18  A    between atoms: C20_29  and  C24_33 
REMARK   19  A    between atoms: C20_29  and  N6_40 
REMARK   20  A    between atoms: C21_30  and  C22_31 
REMARK   21  A    between atoms: C22_31  and  C23_32 
REMARK   22  A    between atoms: C23_32  and  O8_43 
REMARK   23  A    between atoms: C24_33  and  C25_34 
REMARK   24  A    between atoms: C28_38  and  O6_39 
REMARK   25  A    between atoms: C29_42  and  O8_43 
REMARK   26  A    between atoms: C29_42  and  C35_49 
ROOT
ATOM      1  C14 non d ame     -31.122  13.927  24.116  0.00  0.00     0.089 C 
ATOM      2  H20 non d ame     -30.125  13.871  24.555  0.00  0.00     0.087 H 
ENDROOT
BRANCH   1   3
ATOM      3  N4  non d ame     -31.676  12.581  24.115  0.00  0.00    -0.346 N 
ATOM      4  C10 non d ame     -31.551  11.704  25.336  0.00  0.00     0.241 C 
ATOM      5  O4  non d ame     -30.999  12.104  26.307  0.00  0.00    -0.271 OA
ATOM      6  H19 non d ame     -32.140  12.259  23.277  0.00  0.00     0.163 HD
BRANCH   4   7
ATOM      7  C9  non d ame     -32.135  10.316  25.318  0.00  0.00     0.092 C 
ATOM      8  H11 non d ame     -33.033  10.313  24.701  0.00  0.00     0.088 H 
BRANCH   7   9
ATOM      9  N3  non d ame     -31.180   9.392  24.699  0.00  0.00    -0.346 N 
ATOM     10  C7  non d ame     -31.287   9.080  23.295  0.00  0.00     0.240 C 
ATOM     11  O3  non d ame     -32.135   9.563  22.649  0.00  0.00    -0.271 OA
ATOM     12  H10 non d ame     -30.444   8.967  25.244  0.00  0.00     0.163 HD
BRANCH  10  13
ATOM     13  C6  non d ame     -30.269   8.093  22.642  0.00  0.00     0.086 C 
ATOM     14  H6  non d ame     -29.962   7.296  23.318  0.00  0.00     0.086 H 
BRANCH  13  15
ATOM     15  N2  non d ame     -30.901   7.451  21.502  0.00  0.00    -0.343 N 
ATOM     16  C5  non d ame     -31.691   6.235  21.705  0.00  0.00     0.273 C 
ATOM     17  O2  non d ame     -31.810   5.780  22.790  0.00  0.00    -0.266 OA
ATOM     18  H5  non d ame     -30.792   7.845  20.578  0.00  0.00     0.163 HD
BRANCH  16  19
ATOM     19  C4  non d ame     -32.367   5.546  20.509  0.00  0.00     0.154 A 
ATOM     20  C1  non d ame     -32.382   4.146  20.214  0.00  0.00    -0.017 A 
ATOM     21  C2  non d ame     -33.128   4.034  19.019  0.00  0.00     0.077 A 
ATOM     22  H1  non d ame     -31.922   3.335  20.779  0.00  0.00     0.091 H 
ATOM     23  O1  non d ame     -33.494   5.235  18.678  0.00  0.00    -0.218 OA
ATOM     24  N1  non d ame     -33.062   6.134  19.532  0.00  0.00    -0.123 NA
BRANCH  21  25
ATOM     25  C3  non d ame     -33.445   2.747  18.271  0.00  0.00    -0.029 C 
ATOM     26  H2  non d ame     -33.859   2.016  18.964  0.00  0.00     0.036 H 
ATOM     27  H3  non d ame     -34.170   2.953  17.484  0.00  0.00     0.036 H 
ATOM     28  H4  non d ame     -32.532   2.350  17.827  0.00  0.00     0.036 H 
ENDBRANCH  21  25
ENDBRANCH  16  19
ENDBRANCH  13  15
BRANCH  13  29
ATOM     29  C8  non d ame     -29.046   8.852  22.194  0.00  0.00    -0.049 C 
ATOM     30  H7  non d ame     -29.056   9.850  22.633  0.00  0.00     0.030 H 
ATOM     31  H8  non d ame     -28.151   8.322  22.519  0.00  0.00     0.030 H 
ATOM     32  H9  non d ame     -29.046   8.933  21.107  0.00  0.00     0.030 H 
ENDBRANCH  13  29
ENDBRANCH  10  13
ENDBRANCH   7   9
BRANCH   7  33
ATOM     33  C11 non d ame     -32.425   9.857  26.777  0.00  0.00    -0.033 C 
ATOM     34  H12 non d ame     -31.640  10.266  27.413  0.00  0.00     0.042 H 
BRANCH  33  35
ATOM     35  C12 non d ame     -33.786  10.422  27.291  0.00  0.00    -0.071 C 
ATOM     36  H13 non d ame     -34.115  11.228  26.636  0.00  0.00     0.028 H 
ATOM     37  H14 non d ame     -34.532   9.627  27.292  0.00  0.00     0.028 H 
ATOM     38  H15 non d ame     -33.661  10.805  28.303  0.00  0.00     0.028 H 
ENDBRANCH  33  35
BRANCH  33  39
ATOM     39  C13 non d ame     -32.378   8.300  26.893  0.00  0.00    -0.071 C 
ATOM     40  H16 non d ame     -31.420   7.936  26.520  0.00  0.00     0.028 H 
ATOM     41  H17 non d ame     -32.495   8.009  27.938  0.00  0.00     0.028 H 
ATOM     42  H18 non d ame     -33.186   7.867  26.304  0.00  0.00     0.028 H 
ENDBRANCH  33  39
ENDBRANCH   7  33
ENDBRANCH   4   7
ENDBRANCH   1   3
BRANCH   1  43
ATOM     43  C15 non d ame     -32.071  14.851  24.932  0.00  0.00     0.240 C 
ATOM     44  O5  non d ame     -33.052  15.289  24.422  0.00  0.00    -0.271 OA
ATOM     45  N6  non d ame     -31.762  15.185  26.351  0.00  0.00    -0.355 N 
ATOM     46  H46 non d ame     -30.935  14.815  26.797  0.00  0.00     0.162 HD
BRANCH  45  47
ATOM     47  C20 non d ame     -32.675  16.064  27.113  0.00  0.00     0.013 C 
ATOM     48  H30 non d ame     -33.685  15.908  26.734  0.00  0.00     0.072 H 
BRANCH  47  49
ATOM     49  C21 non d ame     -32.264  17.505  26.912  0.00  0.00    -0.038 C 
ATOM     50  H31 non d ame     -31.176  17.495  26.844  0.00  0.00     0.036 H 
ATOM     51  H32 non d ame     -32.860  17.866  26.073  0.00  0.00     0.036 H 
BRANCH  49  52
ATOM     52  C22 non d ame     -32.618  18.403  28.117  0.00  0.00     0.018 C 
ATOM     53  H33 non d ame     -33.226  17.785  28.777  0.00  0.00     0.048 H 
ATOM     54  H34 non d ame     -31.670  18.810  28.471  0.00  0.00     0.048 H 
BRANCH  52  55
ATOM     55  C23 non d ame     -33.499  19.629  27.748  0.00  0.00     0.259 C 
ATOM     56  O7  non d ame     -33.110  20.439  26.970  0.00  0.00    -0.265 OA
BRANCH  55  57
ATOM     57  O8  non d ame     -34.774  19.781  28.360  0.00  0.00    -0.317 OA
BRANCH  57  58
ATOM     58  C29 non d ame     -35.867  19.782  27.437  0.00  0.00     0.052 C 
ATOM     59  H47 non d ame     -36.752  20.014  28.029  0.00  0.00     0.082 H 
ATOM     60  H48 non d ame     -35.566  20.443  26.625  0.00  0.00     0.082 H 
BRANCH  58  61
ATOM     61  C35 non d ame     -36.016  18.345  26.871  0.00  0.00    -0.034 A 
ATOM     62  C30 non d ame     -36.189  17.269  27.736  0.00  0.00    -0.075 A 
ATOM     63  C31 non d ame     -36.323  15.978  27.228  0.00  0.00    -0.082 A 
ATOM     64  H49 non d ame     -36.218  17.437  28.813  0.00  0.00     0.084 H 
ATOM     65  C32 non d ame     -36.282  15.764  25.847  0.00  0.00    -0.083 A 
ATOM     66  H50 non d ame     -36.459  15.138  27.908  0.00  0.00     0.083 H 
ATOM     67  C33 non d ame     -36.107  16.840  24.988  0.00  0.00    -0.082 A 
ATOM     68  H51 non d ame     -36.387  14.758  25.441  0.00  0.00     0.083 H 
ATOM     69  C34 non d ame     -35.974  18.133  25.491  0.00  0.00    -0.075 A 
ATOM     70  H52 non d ame     -36.073  16.670  23.911  0.00  0.00     0.083 H 
ATOM     71  H53 non d ame     -35.838  18.973  24.810  0.00  0.00     0.084 H 
ENDBRANCH  58  61
ENDBRANCH  57  58
ENDBRANCH  55  57
ENDBRANCH  52  55
ENDBRANCH  49  52
ENDBRANCH  47  49
BRANCH  47  72
ATOM     72  C24 non d ame     -32.607  15.717  28.599  0.00  0.00    -0.039 C 
ATOM     73  H35 non d ame     -32.233  16.615  29.090  0.00  0.00     0.036 H 
ATOM     74  H36 non d ame     -33.593  15.328  28.852  0.00  0.00     0.036 H 
BRANCH  72  75
ATOM     75  C25 non d ame     -31.550  14.547  28.886  0.00  0.00    -0.001 C 
ATOM     76  C26 non d ame     -32.344  13.150  29.236  0.00  0.00    -0.035 C 
ATOM     77  C27 non d ame     -31.849  12.644  30.391  0.00  0.00     0.085 C 
ATOM     78  H38 non d ame     -33.385  13.361  29.475  0.00  0.00     0.036 H 
ATOM     79  H39 non d ame     -32.098  12.386  28.498  0.00  0.00     0.036 H 
ATOM     80  N5  non d ame     -31.022  13.733  31.031  0.00  0.00    -0.049 N 
ATOM     81  H40 non d ame     -32.719  12.444  31.017  0.00  0.00     0.075 H 
ATOM     82  H41 non d ame     -31.192  11.828  30.094  0.00  0.00     0.075 H 
ATOM     83  C28 non d ame     -30.784  14.843  29.882  0.00  0.00     0.193 C 
ATOM     84  H42 non d ame     -31.595  14.139  31.756  0.00  0.00     0.280 HD
ATOM     85  H43 non d ame     -30.132  13.316  31.264  0.00  0.00     0.280 HD
ATOM     86  H44 non d ame     -29.822  14.919  29.377  0.00  0.00     0.129 H 
ATOM     87  H37 non d ame     -30.771  14.498  28.125  0.00  0.00     0.046 H 
BRANCH  83  88
ATOM     88  O6  non d ame     -31.050  16.149  30.397  0.00  0.00    -0.369 OA
ATOM     89  H45 non d ame     -31.852  16.494  29.996  0.00  0.00     0.212 HD
ENDBRANCH  83  88
ENDBRANCH  72  75
ENDBRANCH  47  72
ENDBRANCH  45  47
ENDBRANCH   1  43
BRANCH   1  90
ATOM     90  C16 non d ame     -31.028  14.426  22.684  0.00  0.00    -0.035 C 
ATOM     91  H21 non d ame     -30.795  13.546  22.086  0.00  0.00     0.037 H 
ATOM     92  H22 non d ame     -31.954  14.975  22.508  0.00  0.00     0.037 H 
BRANCH  90  93
ATOM     93  C17 non d ame     -29.863  15.440  22.449  0.00  0.00    -0.059 C 
ATOM     94  H23 non d ame     -30.020  16.285  23.118  0.00  0.00     0.038 H 
BRANCH  93  95
ATOM     95  C18 non d ame     -28.468  14.821  22.782  0.00  0.00    -0.073 C 
ATOM     96  H24 non d ame     -27.887  15.530  23.371  0.00  0.00     0.028 H 
ATOM     97  H25 non d ame     -28.604  13.903  23.353  0.00  0.00     0.028 H 
ATOM     98  H26 non d ame     -27.938  14.598  21.856  0.00  0.00     0.028 H 
ENDBRANCH  93  95
BRANCH  93  99
ATOM     99  C19 non d ame     -29.890  15.982  21.017  0.00  0.00    -0.073 C 
ATOM    100  H27 non d ame     -29.116  15.490  20.428  0.00  0.00     0.028 H 
ATOM    101  H28 non d ame     -30.866  15.785  20.572  0.00  0.00     0.028 H 
ATOM    102  H29 non d ame     -29.709  17.056  21.032  0.00  0.00     0.028 H 
ENDBRANCH  93  99
ENDBRANCH  90  93
ENDBRANCH   1  90
TORSDOF 26
ENDMDL
MODEL 3
REMARK VINA RESULT:      -7.0      1.517      2.152
REMARK  26 active torsions:
REMARK  status: ('A' for Active; 'I' for Inactive)
REMARK    1  A    between atoms: C2_2  and  C3_3 
REMARK    2  A    between atoms: C4_6  and  C5_7 
REMARK       I    between atoms: C5_7  and  N2_9 
REMARK    3  A    between atoms: N2_9  and  C6_10 
REMARK    4  A    between atoms: C6_10  and  C7_11 
REMARK    5  A    between atoms: C6_10  and  C8_13 
REMARK       I    between atoms: C7_11  and  N3_14 
REMARK    6  A    between atoms: N3_14  and  C9_15 
REMARK    7  A    between atoms: C9_15  and  C10_16 
REMARK    8  A    between atoms: C9_15  and  C11_18 
REMARK       I    between atoms: C10_16  and  N4_21 
REMARK    9  A    between atoms: C11_18  and  C12_19 
REMARK   10  A    between atoms: C11_18  and  C13_20 
REMARK   11  A    between atoms: N4_21  and  C14_22 
REMARK   12  A    between atoms: C14_22  and  C15_23 
REMARK   13  A    between atoms: C14_22  and  C16_25 
REMARK       I    between atoms: C15_23  and  N6_40 
REMARK   14  A    between atoms: C16_25  and  C17_26 
REMARK   15  A    between atoms: C17_26  and  C18_27 
REMARK   16  A    between atoms: C17_26  and  C19_28 
REMARK   17  A    between atoms: C20_29  and  C21_30 
REMARK   18  A    between atoms: C20_29  and  C24_33 
REMARK   19  A    between atoms: C20_29  and  N6_40 
REMARK   20  A    between atoms: C21_30  and  C22_31 
REMARK   21  A    between atoms: C22_31  and  C23_32 
REMARK   22  A    between atoms: C23_32  and  O8_43 
REMARK   23  A    between atoms: C24_33  and  C25_34 
REMARK   24  A    between atoms: C28_38  and  O6_39 
REMARK   25  A    between atoms: C29_42  and  O8_43 
REMARK   26  A    between atoms: C29_42  and  C35_49 
ROOT
ATOM      1  C14 non d ame     -31.107  14.160  24.360  0.00  0.00     0.089 C 
ATOM      2  H20 non d ame     -30.114  13.767  24.581  0.00  0.00     0.087 H 
ENDROOT
BRANCH   1   3
ATOM      3  N4  non d ame     -32.061  13.082  24.571  0.00  0.00    -0.346 N 
ATOM      4  C10 non d ame     -31.866  12.103  25.701  0.00  0.00     0.241 C 
ATOM      5  O4  non d ame     -30.932  12.201  26.426  0.00  0.00    -0.271 OA
ATOM      6  H19 non d ame     -32.849  13.014  23.942  0.00  0.00     0.163 HD
BRANCH   4   7
ATOM      7  C9  non d ame     -32.867  10.996  25.909  0.00  0.00     0.092 C 
ATOM      8  H11 non d ame     -33.023  10.850  26.978  0.00  0.00     0.088 H 
BRANCH   7   9
ATOM      9  N3  non d ame     -34.157  11.389  25.332  0.00  0.00    -0.346 N 
ATOM     10  C7  non d ame     -35.174  11.972  26.172  0.00  0.00     0.240 C 
ATOM     11  O3  non d ame     -34.972  12.132  27.314  0.00  0.00    -0.271 OA
ATOM     12  H10 non d ame     -34.346  11.256  24.349  0.00  0.00     0.163 HD
BRANCH  10  13
ATOM     13  C6  non d ame     -36.545  12.385  25.553  0.00  0.00     0.086 C 
ATOM     14  H6  non d ame     -37.389  12.147  26.201  0.00  0.00     0.086 H 
BRANCH  13  15
ATOM     15  N2  non d ame     -36.562  13.826  25.362  0.00  0.00    -0.343 N 
ATOM     16  C5  non d ame     -37.517  14.643  26.113  0.00  0.00     0.273 C 
ATOM     17  O2  non d ame     -38.271  14.131  26.866  0.00  0.00    -0.266 OA
ATOM     18  H5  non d ame     -35.916  14.255  24.714  0.00  0.00     0.163 HD
BRANCH  16  19
ATOM     19  C4  non d ame     -37.544  16.167  25.921  0.00  0.00     0.154 A 
ATOM     20  C1  non d ame     -37.155  16.899  24.755  0.00  0.00    -0.017 A 
ATOM     21  C2  non d ame     -37.369  18.255  25.089  0.00  0.00     0.077 A 
ATOM     22  H1  non d ame     -36.776  16.507  23.811  0.00  0.00     0.091 H 
ATOM     23  O1  non d ame     -37.828  18.287  26.305  0.00  0.00    -0.218 OA
ATOM     24  N1  non d ame     -37.939  17.081  26.812  0.00  0.00    -0.123 NA
BRANCH  21  25
ATOM     25  C3  non d ame     -37.109  19.457  24.190  0.00  0.00    -0.029 C 
ATOM     26  H2  non d ame     -36.253  19.252  23.547  0.00  0.00     0.036 H 
ATOM     27  H3  non d ame     -37.988  19.645  23.574  0.00  0.00     0.036 H 
ATOM     28  H4  non d ame     -36.902  20.333  24.804  0.00  0.00     0.036 H 
ENDBRANCH  21  25
ENDBRANCH  16  19
ENDBRANCH  13  15
BRANCH  13  29
ATOM     29  C8  non d ame     -36.734  11.686  24.231  0.00  0.00    -0.049 C 
ATOM     30  H7  non d ame     -36.065  10.827  24.176  0.00  0.00     0.030 H 
ATOM     31  H8  non d ame     -37.766  11.349  24.143  0.00  0.00     0.030 H 
ATOM     32  H9  non d ame     -36.506  12.377  23.419  0.00  0.00     0.030 H 
ENDBRANCH  13  29
ENDBRANCH  10  13
ENDBRANCH   7   9
BRANCH   7  33
ATOM     33  C11 non d ame     -32.362   9.701  25.209  0.00  0.00    -0.033 C 
ATOM     34  H12 non d ame     -31.282   9.793  25.087  0.00  0.00     0.042 H 
BRANCH  33  35
ATOM     35  C12 non d ame     -32.629   8.439  26.086  0.00  0.00    -0.071 C 
ATOM     36  H13 non d ame     -31.729   7.826  26.125  0.00  0.00     0.028 H 
ATOM     37  H14 non d ame     -32.902   8.749  27.095  0.00  0.00     0.028 H 
ATOM     38  H15 non d ame     -33.444   7.860  25.651  0.00  0.00     0.028 H 
ENDBRANCH  33  35
BRANCH  33  39
ATOM     39  C13 non d ame     -32.996   9.549  23.789  0.00  0.00    -0.071 C 
ATOM     40  H16 non d ame     -33.774   8.786  23.819  0.00  0.00     0.028 H 
ATOM     41  H17 non d ame     -33.432  10.501  23.481  0.00  0.00     0.028 H 
ATOM     42  H18 non d ame     -32.226   9.256  23.076  0.00  0.00     0.028 H 
ENDBRANCH  33  39
ENDBRANCH   7  33
ENDBRANCH   4   7
ENDBRANCH   1   3
BRANCH   1  43
ATOM     43  C15 non d ame     -31.489  15.349  25.287  0.00  0.00     0.240 C 
ATOM     44  O5  non d ame     -31.076  16.438  25.052  0.00  0.00    -0.271 OA
ATOM     45  N6  non d ame     -32.377  15.131  26.464  0.00  0.00    -0.355 N 
ATOM     46  H46 non d ame     -32.738  14.211  26.671  0.00  0.00     0.162 HD
BRANCH  45  47
ATOM     47  C20 non d ame     -32.732  16.272  27.335  0.00  0.00     0.013 C 
ATOM     48  H30 non d ame     -31.969  17.040  27.210  0.00  0.00     0.072 H 
BRANCH  47  49
ATOM     49  C21 non d ame     -32.768  15.810  28.774  0.00  0.00    -0.038 C 
ATOM     50  H31 non d ame     -31.887  16.245  29.246  0.00  0.00     0.036 H 
ATOM     51  H32 non d ame     -33.764  16.063  29.140  0.00  0.00     0.036 H 
BRANCH  49  52
ATOM     52  C22 non d ame     -32.628  14.279  28.916  0.00  0.00     0.018 C 
ATOM     53  H33 non d ame     -33.457  13.963  29.547  0.00  0.00     0.048 H 
ATOM     54  H34 non d ame     -32.540  13.895  27.899  0.00  0.00     0.048 H 
BRANCH  52  55
ATOM     55  C23 non d ame     -31.335  13.834  29.654  0.00  0.00     0.259 C 
ATOM     56  O7  non d ame     -30.644  14.635  30.196  0.00  0.00    -0.265 OA
BRANCH  55  57
ATOM     57  O8  non d ame     -30.977  12.457  29.666  0.00  0.00    -0.317 OA
BRANCH  57  58
ATOM     58  C29 non d ame     -31.322  11.776  30.875  0.00  0.00     0.052 C 
ATOM     59  H47 non d ame     -30.541  11.032  31.028  0.00  0.00     0.082 H 
ATOM     60  H48 non d ame     -31.483  12.557  31.618  0.00  0.00     0.082 H 
BRANCH  58  61
ATOM     61  C35 non d ame     -32.666  11.036  30.641  0.00  0.00    -0.034 A 
ATOM     62  C30 non d ame     -33.703  11.168  31.560  0.00  0.00    -0.075 A 
ATOM     63  C31 non d ame     -34.910  10.503  31.350  0.00  0.00    -0.082 A 
ATOM     64  H49 non d ame     -33.570  11.791  32.444  0.00  0.00     0.084 H 
ATOM     65  C32 non d ame     -35.078   9.702  30.217  0.00  0.00    -0.083 A 
ATOM     66  H50 non d ame     -35.721  10.610  32.071  0.00  0.00     0.083 H 
ATOM     67  C33 non d ame     -34.040   9.571  29.305  0.00  0.00    -0.082 A 
ATOM     68  H51 non d ame     -36.019   9.179  30.045  0.00  0.00     0.083 H 
ATOM     69  C34 non d ame     -32.832  10.235  29.510  0.00  0.00    -0.075 A 
ATOM     70  H52 non d ame     -34.173   8.943  28.424  0.00  0.00     0.083 H 
ATOM     71  H53 non d ame     -32.021  10.128  28.788  0.00  0.00     0.084 H 
ENDBRANCH  58  61
ENDBRANCH  57  58
ENDBRANCH  55  57
ENDBRANCH  52  55
ENDBRANCH  49  52
ENDBRANCH  47  49
BRANCH  47  72
ATOM     72  C24 non d ame     -34.103  16.817  26.940  0.00  0.00    -0.039 C 
ATOM     73  H35 non d ame     -34.338  16.346  25.985  0.00  0.00     0.036 H 
ATOM     74  H36 non d ame     -34.745  16.644  27.804  0.00  0.00     0.036 H 
BRANCH  72  75
ATOM     75  C25 non d ame     -34.063  18.398  26.690  0.00  0.00    -0.001 C 
ATOM     76  C26 non d ame     -32.523  18.952  26.851  0.00  0.00    -0.035 C 
ATOM     77  C27 non d ame     -32.524  20.001  27.708  0.00  0.00     0.085 C 
ATOM     78  H38 non d ame     -31.910  18.208  27.359  0.00  0.00     0.036 H 
ATOM     79  H39 non d ame     -32.183  19.390  25.912  0.00  0.00     0.036 H 
ATOM     80  N5  non d ame     -33.867  20.007  28.398  0.00  0.00    -0.049 N 
ATOM     81  H40 non d ame     -31.748  19.778  28.441  0.00  0.00     0.075 H 
ATOM     82  H41 non d ame     -32.443  20.889  27.082  0.00  0.00     0.075 H 
ATOM     83  C28 non d ame     -34.813  19.024  27.535  0.00  0.00     0.193 C 
ATOM     84  H42 non d ame     -33.722  19.596  29.309  0.00  0.00     0.280 HD
ATOM     85  H43 non d ame     -34.224  20.949  28.319  0.00  0.00     0.280 HD
ATOM     86  H44 non d ame     -35.570  19.432  26.864  0.00  0.00     0.129 H 
ATOM     87  H37 non d ame     -34.603  18.688  25.788  0.00  0.00     0.046 H 
BRANCH  83  88
ATOM     88  O6  non d ame     -35.514  18.129  28.401  0.00  0.00    -0.369 OA
ATOM     89  H45 non d ame     -35.018  17.311  28.484  0.00  0.00     0.212 HD
ENDBRANCH  83  88
ENDBRANCH  72  75
ENDBRANCH  47  72
ENDBRANCH  45  47
ENDBRANCH   1  43
BRANCH   1  90
ATOM     90  C16 non d ame     -31.173  14.603  22.907  0.00  0.00    -0.035 C 
ATOM     91  H21 non d ame     -31.315  13.688  22.332  0.00  0.00     0.037 H 
ATOM     92  H22 non d ame     -31.929  15.388  22.879  0.00  0.00     0.037 H 
BRANCH  90  93
ATOM     93  C17 non d ame     -29.848  15.247  22.388  0.00  0.00    -0.059 C 
ATOM     94  H23 non d ame     -29.574  16.043  23.080  0.00  0.00     0.038 H 
BRANCH  93  95
ATOM     95  C18 non d ame     -28.670  14.222  22.349  0.00  0.00    -0.073 C 
ATOM     96  H24 non d ame     -28.562  13.830  21.338  0.00  0.00     0.028 H 
ATOM     97  H25 non d ame     -27.746  14.719  22.645  0.00  0.00     0.028 H 
ATOM     98  H26 non d ame     -28.878  13.403  23.036  0.00  0.00     0.028 H 
ENDBRANCH  93  95
BRANCH  93  99
ATOM     99  C19 non d ame     -30.055  15.891  21.014  0.00  0.00    -0.073 C 
ATOM    100  H27 non d ame     -30.989  15.532  20.581  0.00  0.00     0.028 H 
ATOM    101  H28 non d ame     -30.099  16.975  21.124  0.00  0.00     0.028 H 
ATOM    102  H29 non d ame     -29.225  15.626  20.360  0.00  0.00     0.028 H 
ENDBRANCH  93  99
ENDBRANCH  90  93
ENDBRANCH   1  90
TORSDOF 26
ENDMDL
MODEL 4
REMARK VINA RESULT:      -7.0      3.548      7.232
REMARK  26 active torsions:
REMARK  status: ('A' for Active; 'I' for Inactive)
REMARK    1  A    between atoms: C2_2  and  C3_3 
REMARK    2  A    between atoms: C4_6  and  C5_7 
REMARK       I    between atoms: C5_7  and  N2_9 
REMARK    3  A    between atoms: N2_9  and  C6_10 
REMARK    4  A    between atoms: C6_10  and  C7_11 
REMARK    5  A    between atoms: C6_10  and  C8_13 
REMARK       I    between atoms: C7_11  and  N3_14 
REMARK    6  A    between atoms: N3_14  and  C9_15 
REMARK    7  A    between atoms: C9_15  and  C10_16 
REMARK    8  A    between atoms: C9_15  and  C11_18 
REMARK       I    between atoms: C10_16  and  N4_21 
REMARK    9  A    between atoms: C11_18  and  C12_19 
REMARK   10  A    between atoms: C11_18  and  C13_20 
REMARK   11  A    between atoms: N4_21  and  C14_22 
REMARK   12  A    between atoms: C14_22  and  C15_23 
REMARK   13  A    between atoms: C14_22  and  C16_25 
REMARK       I    between atoms: C15_23  and  N6_40 
REMARK   14  A    between atoms: C16_25  and  C17_26 
REMARK   15  A    between atoms: C17_26  and  C18_27 
REMARK   16  A    between atoms: C17_26  and  C19_28 
REMARK   17  A    between atoms: C20_29  and  C21_30 
REMARK   18  A    between atoms: C20_29  and  C24_33 
REMARK   19  A    between atoms: C20_29  and  N6_40 
REMARK   20  A    between atoms: C21_30  and  C22_31 
REMARK   21  A    between atoms: C22_31  and  C23_32 
REMARK   22  A    between atoms: C23_32  and  O8_43 
REMARK   23  A    between atoms: C24_33  and  C25_34 
REMARK   24  A    between atoms: C28_38  and  O6_39 
REMARK   25  A    between atoms: C29_42  and  O8_43 
REMARK   26  A    between atoms: C29_42  and  C35_49 
ROOT
ATOM      1  C14 non d ame     -32.983  10.248  25.433  0.00  0.00     0.089 C 
ATOM      2  H20 non d ame     -33.656  10.327  24.579  0.00  0.00     0.087 H 
ENDROOT
BRANCH   1   3
ATOM      3  N4  non d ame     -32.415   8.908  25.421  0.00  0.00    -0.346 N 
ATOM      4  C10 non d ame     -33.177   7.763  24.803  0.00  0.00     0.241 C 
ATOM      5  O4  non d ame     -34.248   7.944  24.324  0.00  0.00    -0.271 OA
ATOM      6  H19 non d ame     -31.504   8.775  25.836  0.00  0.00     0.163 HD
BRANCH   4   7
ATOM      7  C9  non d ame     -32.572   6.384  24.795  0.00  0.00     0.092 C 
ATOM      8  H11 non d ame     -31.504   6.460  25.000  0.00  0.00     0.088 H 
BRANCH   7   9
ATOM      9  N3  non d ame     -33.165   5.583  25.870  0.00  0.00    -0.346 N 
ATOM     10  C7  non d ame     -32.700   5.741  27.226  0.00  0.00     0.240 C 
ATOM     11  O3  non d ame     -31.849   6.507  27.470  0.00  0.00    -0.271 OA
ATOM     12  H10 non d ame     -33.898   4.917  25.675  0.00  0.00     0.163 HD
BRANCH  10  13
ATOM     13  C6  non d ame     -33.332   4.884  28.366  0.00  0.00     0.086 C 
ATOM     14  H6  non d ame     -32.693   4.814  29.246  0.00  0.00     0.086 H 
BRANCH  13  15
ATOM     15  N2  non d ame     -34.569   5.513  28.799  0.00  0.00    -0.343 N 
ATOM     16  C5  non d ame     -34.914   5.522  30.222  0.00  0.00     0.273 C 
ATOM     17  O2  non d ame     -34.192   5.018  31.010  0.00  0.00    -0.266 OA
ATOM     18  H5  non d ame     -35.182   5.939  28.118  0.00  0.00     0.163 HD
BRANCH  16  19
ATOM     19  C4  non d ame     -36.217   6.186  30.694  0.00  0.00     0.154 A 
ATOM     20  C1  non d ame     -36.513   7.585  30.724  0.00  0.00    -0.017 A 
ATOM     21  C2  non d ame     -37.828   7.668  31.236  0.00  0.00     0.077 A 
ATOM     22  H1  non d ame     -35.873   8.414  30.421  0.00  0.00     0.091 H 
ATOM     23  O1  non d ame     -38.230   6.453  31.467  0.00  0.00    -0.218 OA
ATOM     24  N1  non d ame     -37.308   5.570  31.159  0.00  0.00    -0.123 NA
BRANCH  21  25
ATOM     25  C3  non d ame     -38.625   8.944  31.471  0.00  0.00    -0.029 C 
ATOM     26  H2  non d ame     -38.034   9.805  31.160  0.00  0.00     0.036 H 
ATOM     27  H3  non d ame     -39.547   8.908  30.890  0.00  0.00     0.036 H 
ATOM     28  H4  non d ame     -38.866   9.032  32.530  0.00  0.00     0.036 H 
ENDBRANCH  21  25
ENDBRANCH  16  19
ENDBRANCH  13  15
BRANCH  13  29
ATOM     29  C8  non d ame     -33.612   3.493  27.856  0.00  0.00    -0.049 C 
ATOM     30  H7  non d ame     -34.315   2.995  28.524  0.00  0.00     0.030 H 
ATOM     31  H8  non d ame     -34.041   3.552  26.856  0.00  0.00     0.030 H 
ATOM     32  H9  non d ame     -32.682   2.925  27.819  0.00  0.00     0.030 H 
ENDBRANCH  13  29
ENDBRANCH  10  13
ENDBRANCH   7   9
BRANCH   7  33
ATOM     33  C11 non d ame     -32.857   5.701  23.425  0.00  0.00    -0.033 C 
ATOM     34  H12 non d ame     -33.736   6.181  22.995  0.00  0.00     0.042 H 
BRANCH  33  35
ATOM     35  C12 non d ame     -31.675   5.909  22.429  0.00  0.00    -0.071 C 
ATOM     36  H13 non d ame     -31.901   5.409  21.487  0.00  0.00     0.028 H 
ATOM     37  H14 non d ame     -31.534   6.975  22.250  0.00  0.00     0.028 H 
ATOM     38  H15 non d ame     -30.763   5.488  22.853  0.00  0.00     0.028 H 
ENDBRANCH  33  35
BRANCH  33  39
ATOM     39  C13 non d ame     -33.179   4.184  23.613  0.00  0.00    -0.071 C 
ATOM     40  H16 non d ame     -34.113   3.945  23.105  0.00  0.00     0.028 H 
ATOM     41  H17 non d ame     -32.371   3.586  23.190  0.00  0.00     0.028 H 
ATOM     42  H18 non d ame     -33.276   3.962  24.676  0.00  0.00     0.028 H 
ENDBRANCH  33  39
ENDBRANCH   7  33
ENDBRANCH   4   7
ENDBRANCH   1   3
BRANCH   1  43
ATOM     43  C15 non d ame     -31.820  11.279  25.361  0.00  0.00     0.240 C 
ATOM     44  O5  non d ame     -30.753  10.998  25.801  0.00  0.00    -0.271 OA
ATOM     45  N6  non d ame     -32.036  12.616  24.737  0.00  0.00    -0.355 N 
ATOM     46  H46 non d ame     -32.938  12.864  24.356  0.00  0.00     0.162 HD
BRANCH  45  47
ATOM     47  C20 non d ame     -30.921  13.584  24.675  0.00  0.00     0.013 C 
ATOM     48  H30 non d ame     -30.107  13.198  25.288  0.00  0.00     0.072 H 
BRANCH  47  49
ATOM     49  C21 non d ame     -31.386  14.918  25.215  0.00  0.00    -0.038 C 
ATOM     50  H31 non d ame     -30.605  15.631  24.952  0.00  0.00     0.036 H 
ATOM     51  H32 non d ame     -32.399  15.052  24.833  0.00  0.00     0.036 H 
BRANCH  49  52
ATOM     52  C22 non d ame     -31.494  14.936  26.755  0.00  0.00     0.018 C 
ATOM     53  H33 non d ame     -30.940  14.064  27.100  0.00  0.00     0.048 H 
ATOM     54  H34 non d ame     -31.183  15.935  27.061  0.00  0.00     0.048 H 
BRANCH  52  55
ATOM     55  C23 non d ame     -32.944  14.758  27.284  0.00  0.00     0.259 C 
ATOM     56  O7  non d ame     -33.684  13.986  26.766  0.00  0.00    -0.265 OA
BRANCH  55  57
ATOM     57  O8  non d ame     -33.384  15.539  28.388  0.00  0.00    -0.317 OA
BRANCH  57  58
ATOM     58  C29 non d ame     -34.481  16.406  28.089  0.00  0.00     0.052 C 
ATOM     59  H47 non d ame     -35.095  15.867  27.367  0.00  0.00     0.082 H 
ATOM     60  H48 non d ame     -34.900  16.695  29.052  0.00  0.00     0.082 H 
BRANCH  58  61
ATOM     61  C35 non d ame     -33.913  17.676  27.399  0.00  0.00    -0.034 A 
ATOM     62  C30 non d ame     -34.391  18.063  26.151  0.00  0.00    -0.075 A 
ATOM     63  C31 non d ame     -33.881  19.203  25.532  0.00  0.00    -0.082 A 
ATOM     64  H49 non d ame     -35.164  17.474  25.658  0.00  0.00     0.084 H 
ATOM     65  C32 non d ame     -32.888  19.956  26.164  0.00  0.00    -0.083 A 
ATOM     66  H50 non d ame     -34.259  19.506  24.555  0.00  0.00     0.083 H 
ATOM     67  C33 non d ame     -32.412  19.563  27.408  0.00  0.00    -0.082 A 
ATOM     68  H51 non d ame     -32.484  20.849  25.687  0.00  0.00     0.083 H 
ATOM     69  C34 non d ame     -32.920  18.426  28.032  0.00  0.00    -0.075 A 
ATOM     70  H52 non d ame     -31.635  20.151  27.898  0.00  0.00     0.083 H 
ATOM     71  H53 non d ame     -32.542  18.124  29.009  0.00  0.00     0.084 H 
ENDBRANCH  58  61
ENDBRANCH  57  58
ENDBRANCH  55  57
ENDBRANCH  52  55
ENDBRANCH  49  52
ENDBRANCH  47  49
BRANCH  47  72
ATOM     72  C24 non d ame     -30.462  13.752  23.228  0.00  0.00    -0.039 C 
ATOM     73  H35 non d ame     -29.501  13.241  23.167  0.00  0.00     0.036 H 
ATOM     74  H36 non d ame     -31.298  13.413  22.617  0.00  0.00     0.036 H 
BRANCH  72  75
ATOM     75  C25 non d ame     -30.203  15.290  22.863  0.00  0.00    -0.001 C 
ATOM     76  C26 non d ame     -31.281  15.785  21.724  0.00  0.00    -0.035 C 
ATOM     77  C27 non d ame     -30.603  16.369  20.706  0.00  0.00     0.085 C 
ATOM     78  H38 non d ame     -31.751  14.921  21.254  0.00  0.00     0.036 H 
ATOM     79  H39 non d ame     -31.896  16.594  22.117  0.00  0.00     0.036 H 
ATOM     80  N5  non d ame     -29.145  16.027  20.893  0.00  0.00    -0.049 N 
ATOM     81  H40 non d ame     -30.968  15.887  19.799  0.00  0.00     0.075 H 
ATOM     82  H41 non d ame     -30.737  17.441  20.846  0.00  0.00     0.075 H 
ATOM     83  C28 non d ame     -29.010  15.467  22.401  0.00  0.00     0.193 C 
ATOM     84  H42 non d ame     -28.943  15.274  20.251  0.00  0.00     0.280 HD
ATOM     85  H43 non d ame     -28.637  16.898  20.826  0.00  0.00     0.280 HD
ATOM     86  H44 non d ame     -28.583  16.090  23.187  0.00  0.00     0.129 H 
ATOM     87  H37 non d ame     -30.099  15.914  23.751  0.00  0.00     0.046 H 
BRANCH  83  88
ATOM     88  O6  non d ame     -28.244  14.261  22.412  0.00  0.00    -0.369 OA
ATOM     89  H45 non d ame     -27.797  14.173  23.258  0.00  0.00     0.212 HD
ENDBRANCH  83  88
ENDBRANCH  72  75
ENDBRANCH  47  72
ENDBRANCH  45  47
ENDBRANCH   1  43
BRANCH   1  90
ATOM     90  C16 non d ame     -33.762  10.445  26.723  0.00  0.00    -0.035 C 
ATOM     91  H21 non d ame     -33.917  11.520  26.805  0.00  0.00     0.037 H 
ATOM     92  H22 non d ame     -34.619   9.775  26.648  0.00  0.00     0.037 H 
BRANCH  90  93
ATOM     93  C17 non d ame     -32.976  10.015  28.002  0.00  0.00    -0.059 C 
ATOM     94  H23 non d ame     -32.071   9.501  27.677  0.00  0.00     0.038 H 
BRANCH  93  95
ATOM     95  C18 non d ame     -32.542  11.241  28.868  0.00  0.00    -0.073 C 
ATOM     96  H24 non d ame     -32.725  11.026  29.920  0.00  0.00     0.028 H 
ATOM     97  H25 non d ame     -31.481  11.436  28.716  0.00  0.00     0.028 H 
ATOM     98  H26 non d ame     -33.118  12.117  28.571  0.00  0.00     0.028 H 
ENDBRANCH  93  95
BRANCH  93  99
ATOM     99  C19 non d ame     -33.789   9.021  28.835  0.00  0.00    -0.073 C 
ATOM    100  H27 non d ame     -33.117   8.450  29.478  0.00  0.00     0.028 H 
ATOM    101  H28 non d ame     -34.507   9.563  29.451  0.00  0.00     0.028 H 
ATOM    102  H29 non d ame     -34.321   8.340  28.171  0.00  0.00     0.028 H 
ENDBRANCH  93  99
ENDBRANCH  90  93
ENDBRANCH   1  90
TORSDOF 26
ENDMDL
MODEL 5
REMARK VINA RESULT:      -7.0      3.354      7.359
REMARK  26 active torsions:
REMARK  status: ('A' for Active; 'I' for Inactive)
REMARK    1  A    between atoms: C2_2  and  C3_3 
REMARK    2  A    between atoms: C4_6  and  C5_7 
REMARK       I    between atoms: C5_7  and  N2_9 
REMARK    3  A    between atoms: N2_9  and  C6_10 
REMARK    4  A    between atoms: C6_10  and  C7_11 
REMARK    5  A    between atoms: C6_10  and  C8_13 
REMARK       I    between atoms: C7_11  and  N3_14 
REMARK    6  A    between atoms: N3_14  and  C9_15 
REMARK    7  A    between atoms: C9_15  and  C10_16 
REMARK    8  A    between atoms: C9_15  and  C11_18 
REMARK       I    between atoms: C10_16  and  N4_21 
REMARK    9  A    between atoms: C11_18  and  C12_19 
REMARK   10  A    between atoms: C11_18  and  C13_20 
REMARK   11  A    between atoms: N4_21  and  C14_22 
REMARK   12  A    between atoms: C14_22  and  C15_23 
REMARK   13  A    between atoms: C14_22  and  C16_25 
REMARK       I    between atoms: C15_23  and  N6_40 
REMARK   14  A    between atoms: C16_25  and  C17_26 
REMARK   15  A    between atoms: C17_26  and  C18_27 
REMARK   16  A    between atoms: C17_26  and  C19_28 
REMARK   17  A    between atoms: C20_29  and  C21_30 
REMARK   18  A    between atoms: C20_29  and  C24_33 
REMARK   19  A    between atoms: C20_29  and  N6_40 
REMARK   20  A    between atoms: C21_30  and  C22_31 
REMARK   21  A    between atoms: C22_31  and  C23_32 
REMARK   22  A    between atoms: C23_32  and  O8_43 
REMARK   23  A    between atoms: C24_33  and  C25_34 
REMARK   24  A    between atoms: C28_38  and  O6_39 
REMARK   25  A    between atoms: C29_42  and  O8_43 
REMARK   26  A    between atoms: C29_42  and  C35_49 
ROOT
ATOM      1  C14 non d ame     -31.118  13.655  24.708  0.00  0.00     0.089 C 
ATOM      2  H20 non d ame     -30.096  13.630  25.089  0.00  0.00     0.087 H 
ENDROOT
BRANCH   1   3
ATOM      3  N4  non d ame     -31.455  12.310  24.269  0.00  0.00    -0.346 N 
ATOM      4  C10 non d ame     -31.345  11.147  25.224  0.00  0.00     0.241 C 
ATOM      5  O4  non d ame     -30.978  11.320  26.339  0.00  0.00    -0.271 OA
ATOM      6  H19 non d ame     -31.763  12.184  23.315  0.00  0.00     0.163 HD
BRANCH   4   7
ATOM      7  C9  non d ame     -31.704   9.762  24.755  0.00  0.00     0.092 C 
ATOM      8  H11 non d ame     -30.954   9.057  25.113  0.00  0.00     0.088 H 
BRANCH   7   9
ATOM      9  N3  non d ame     -32.988   9.364  25.342  0.00  0.00    -0.346 N 
ATOM     10  C7  non d ame     -33.015   8.517  26.508  0.00  0.00     0.240 C 
ATOM     11  O3  non d ame     -32.013   8.145  26.987  0.00  0.00    -0.271 OA
ATOM     12  H10 non d ame     -33.859   9.676  24.939  0.00  0.00     0.163 HD
BRANCH  10  13
ATOM     13  C6  non d ame     -34.384   8.095  27.126  0.00  0.00     0.086 C 
ATOM     14  H6  non d ame     -34.912   7.360  26.519  0.00  0.00     0.086 H 
BRANCH  13  15
ATOM     15  N2  non d ame     -34.146   7.472  28.418  0.00  0.00    -0.343 N 
ATOM     16  C5  non d ame     -34.556   6.083  28.636  0.00  0.00     0.273 C 
ATOM     17  O2  non d ame     -35.080   5.477  27.767  0.00  0.00    -0.266 OA
ATOM     18  H5  non d ame     -33.700   7.999  29.156  0.00  0.00     0.163 HD
BRANCH  16  19
ATOM     19  C4  non d ame     -34.310   5.412  29.996  0.00  0.00     0.154 A 
ATOM     20  C1  non d ame     -33.314   4.433  30.309  0.00  0.00    -0.017 A 
ATOM     21  C2  non d ame     -33.506   4.145  31.679  0.00  0.00     0.077 A 
ATOM     22  H1  non d ame     -32.566   4.000  29.645  0.00  0.00     0.091 H 
ATOM     23  O1  non d ame     -34.497   4.877  32.094  0.00  0.00    -0.218 OA
ATOM     24  N1  non d ame     -34.983   5.625  31.130  0.00  0.00    -0.123 NA
BRANCH  21  25
ATOM     25  C3  non d ame     -32.700   3.158  32.514  0.00  0.00    -0.029 C 
ATOM     26  H2  non d ame     -31.830   2.828  31.947  0.00  0.00     0.036 H 
ATOM     27  H3  non d ame     -32.372   3.644  33.433  0.00  0.00     0.036 H 
ATOM     28  H4  non d ame     -33.321   2.297  32.760  0.00  0.00     0.036 H 
ENDBRANCH  21  25
ENDBRANCH  16  19
ENDBRANCH  13  15
BRANCH  13  29
ATOM     29  C8  non d ame     -35.259   9.311  27.293  0.00  0.00    -0.049 C 
ATOM     30  H7  non d ame     -36.304   9.027  27.162  0.00  0.00     0.030 H 
ATOM     31  H8  non d ame     -35.118   9.726  28.290  0.00  0.00     0.030 H 
ATOM     32  H9  non d ame     -34.990  10.058  26.546  0.00  0.00     0.030 H 
ENDBRANCH  13  29
ENDBRANCH  10  13
ENDBRANCH   7   9
BRANCH   7  33
ATOM     33  C11 non d ame     -31.822   9.754  23.203  0.00  0.00    -0.033 C 
ATOM     34  H12 non d ame     -32.066  10.768  22.886  0.00  0.00     0.042 H 
BRANCH  33  35
ATOM     35  C12 non d ame     -30.467   9.367  22.532  0.00  0.00    -0.071 C 
ATOM     36  H13 non d ame     -29.655   9.915  23.010  0.00  0.00     0.028 H 
ATOM     37  H14 non d ame     -30.299   8.297  22.643  0.00  0.00     0.028 H 
ATOM     38  H15 non d ame     -30.501   9.622  21.472  0.00  0.00     0.028 H 
ENDBRANCH  33  35
BRANCH  33  39
ATOM     39  C13 non d ame     -32.976   8.810  22.734  0.00  0.00    -0.071 C 
ATOM     40  H16 non d ame     -32.718   8.373  21.769  0.00  0.00     0.028 H 
ATOM     41  H17 non d ame     -33.116   8.016  23.468  0.00  0.00     0.028 H 
ATOM     42  H18 non d ame     -33.898   9.383  22.640  0.00  0.00     0.028 H 
ENDBRANCH  33  39
ENDBRANCH   7  33
ENDBRANCH   4   7
ENDBRANCH   1   3
BRANCH   1  43
ATOM     43  C15 non d ame     -32.140  14.094  25.795  0.00  0.00     0.240 C 
ATOM     44  O5  non d ame     -33.297  14.145  25.532  0.00  0.00    -0.271 OA
ATOM     45  N6  non d ame     -31.675  14.441  27.169  0.00  0.00    -0.355 N 
ATOM     46  H46 non d ame     -30.695  14.397  27.406  0.00  0.00     0.162 HD
BRANCH  45  47
ATOM     47  C20 non d ame     -32.660  14.854  28.192  0.00  0.00     0.013 C 
ATOM     48  H30 non d ame     -33.644  14.518  27.866  0.00  0.00     0.072 H 
BRANCH  47  49
ATOM     49  C21 non d ame     -32.644  16.361  28.321  0.00  0.00    -0.038 C 
ATOM     50  H31 non d ame     -32.964  16.573  29.341  0.00  0.00     0.036 H 
ATOM     51  H32 non d ame     -31.657  16.675  27.982  0.00  0.00     0.036 H 
BRANCH  49  52
ATOM     52  C22 non d ame     -33.665  17.052  27.391  0.00  0.00     0.018 C 
ATOM     53  H33 non d ame     -34.283  16.252  26.985  0.00  0.00     0.048 H 
ATOM     54  H34 non d ame     -34.120  17.843  27.988  0.00  0.00     0.048 H 
BRANCH  52  55
ATOM     55  C23 non d ame     -33.019  17.757  26.166  0.00  0.00     0.259 C 
ATOM     56  O7  non d ame     -32.009  17.345  25.696  0.00  0.00    -0.265 OA
BRANCH  55  57
ATOM     57  O8  non d ame     -33.643  18.913  25.618  0.00  0.00    -0.317 OA
BRANCH  57  58
ATOM     58  C29 non d ame     -34.048  19.875  26.597  0.00  0.00     0.052 C 
ATOM     59  H47 non d ame     -33.943  19.377  27.561  0.00  0.00     0.082 H 
ATOM     60  H48 non d ame     -33.472  20.774  26.382  0.00  0.00     0.082 H 
BRANCH  58  61
ATOM     61  C35 non d ame     -35.551  20.188  26.367  0.00  0.00    -0.034 A 
ATOM     62  C30 non d ame     -36.277  20.867  27.339  0.00  0.00    -0.075 A 
ATOM     63  C31 non d ame     -37.627  21.148  27.133  0.00  0.00    -0.082 A 
ATOM     64  H49 non d ame     -35.790  21.179  28.263  0.00  0.00     0.084 H 
ATOM     65  C32 non d ame     -38.251  20.744  25.949  0.00  0.00    -0.083 A 
ATOM     66  H50 non d ame     -38.193  21.683  27.896  0.00  0.00     0.083 H 
ATOM     67  C33 non d ame     -37.523  20.063  24.983  0.00  0.00    -0.082 A 
ATOM     68  H51 non d ame     -39.306  20.961  25.780  0.00  0.00     0.083 H 
ATOM     69  C34 non d ame     -36.173  19.782  25.184  0.00  0.00    -0.075 A 
ATOM     70  H52 non d ame     -38.013  19.748  24.062  0.00  0.00     0.083 H 
ATOM     71  H53 non d ame     -35.607  19.248  24.421  0.00  0.00     0.084 H 
ENDBRANCH  58  61
ENDBRANCH  57  58
ENDBRANCH  55  57
ENDBRANCH  52  55
ENDBRANCH  49  52
ENDBRANCH  47  49
BRANCH  47  72
ATOM     72  C24 non d ame     -32.303  14.224  29.537  0.00  0.00    -0.039 C 
ATOM     73  H35 non d ame     -31.481  14.824  29.929  0.00  0.00     0.036 H 
ATOM     74  H36 non d ame     -33.242  14.161  30.086  0.00  0.00     0.036 H 
BRANCH  72  75
ATOM     75  C25 non d ame     -31.755  12.729  29.363  0.00  0.00    -0.001 C 
ATOM     76  C26 non d ame     -33.015  11.691  29.159  0.00  0.00    -0.035 C 
ATOM     77  C27 non d ame     -32.886  10.670  30.039  0.00  0.00     0.085 C 
ATOM     78  H38 non d ame     -33.946  12.171  29.459  0.00  0.00     0.036 H 
ATOM     79  H39 non d ame     -32.942  11.201  28.188  0.00  0.00     0.036 H 
ATOM     80  N5  non d ame     -31.838  11.082  31.044  0.00  0.00    -0.049 N 
ATOM     81  H40 non d ame     -33.851  10.596  30.541  0.00  0.00     0.075 H 
ATOM     82  H41 non d ame     -32.509   9.830  29.457  0.00  0.00     0.075 H 
ATOM     83  C28 non d ame     -31.081  12.354  30.399  0.00  0.00     0.193 C 
ATOM     84  H42 non d ame     -32.335  11.387  31.868  0.00  0.00     0.280 HD
ATOM     85  H43 non d ame     -31.183  10.315  31.104  0.00  0.00     0.280 HD
ATOM     86  H44 non d ame     -30.089  12.245  29.961  0.00  0.00     0.129 H 
ATOM     87  H37 non d ame     -30.941  12.668  28.641  0.00  0.00     0.046 H 
BRANCH  83  88
ATOM     88  O6  non d ame     -30.958  13.397  31.368  0.00  0.00    -0.369 OA
ATOM     89  H45 non d ame     -30.432  13.087  32.108  0.00  0.00     0.212 HD
ENDBRANCH  83  88
ENDBRANCH  72  75
ENDBRANCH  47  72
ENDBRANCH  45  47
ENDBRANCH   1  43
BRANCH   1  90
ATOM     90  C16 non d ame     -31.200  14.600  23.519  0.00  0.00    -0.035 C 
ATOM     91  H21 non d ame     -32.174  14.413  23.069  0.00  0.00     0.037 H 
ATOM     92  H22 non d ame     -30.964  15.587  23.917  0.00  0.00     0.037 H 
BRANCH  90  93
ATOM     93  C17 non d ame     -30.139  14.306  22.411  0.00  0.00    -0.059 C 
ATOM     94  H23 non d ame     -30.062  13.224  22.305  0.00  0.00     0.038 H 
BRANCH  93  95
ATOM     95  C18 non d ame     -30.559  14.891  21.024  0.00  0.00    -0.073 C 
ATOM     96  H24 non d ame     -30.015  14.375  20.233  0.00  0.00     0.028 H 
ATOM     97  H25 non d ame     -31.629  14.751  20.879  0.00  0.00     0.028 H 
ATOM     98  H26 non d ame     -30.324  15.954  20.992  0.00  0.00     0.028 H 
ENDBRANCH  93  95
BRANCH  93  99
ATOM     99  C19 non d ame     -28.759  14.822  22.824  0.00  0.00    -0.073 C 
ATOM    100  H27 non d ame     -28.443  14.322  23.741  0.00  0.00     0.028 H 
ATOM    101  H28 non d ame     -28.040  14.614  22.032  0.00  0.00     0.028 H 
ATOM    102  H29 non d ame     -28.809  15.897  22.995  0.00  0.00     0.028 H 
ENDBRANCH  93  99
ENDBRANCH  90  93
ENDBRANCH   1  90
TORSDOF 26
ENDMDL
MODEL 6
REMARK VINA RESULT:      -7.0      2.007      5.310
REMARK  26 active torsions:
REMARK  status: ('A' for Active; 'I' for Inactive)
REMARK    1  A    between atoms: C2_2  and  C3_3 
REMARK    2  A    between atoms: C4_6  and  C5_7 
REMARK       I    between atoms: C5_7  and  N2_9 
REMARK    3  A    between atoms: N2_9  and  C6_10 
REMARK    4  A    between atoms: C6_10  and  C7_11 
REMARK    5  A    between atoms: C6_10  and  C8_13 
REMARK       I    between atoms: C7_11  and  N3_14 
REMARK    6  A    between atoms: N3_14  and  C9_15 
REMARK    7  A    between atoms: C9_15  and  C10_16 
REMARK    8  A    between atoms: C9_15  and  C11_18 
REMARK       I    between atoms: C10_16  and  N4_21 
REMARK    9  A    between atoms: C11_18  and  C12_19 
REMARK   10  A    between atoms: C11_18  and  C13_20 
REMARK   11  A    between atoms: N4_21  and  C14_22 
REMARK   12  A    between atoms: C14_22  and  C15_23 
REMARK   13  A    between atoms: C14_22  and  C16_25 
REMARK       I    between atoms: C15_23  and  N6_40 
REMARK   14  A    between atoms: C16_25  and  C17_26 
REMARK   15  A    between atoms: C17_26  and  C18_27 
REMARK   16  A    between atoms: C17_26  and  C19_28 
REMARK   17  A    between atoms: C20_29  and  C21_30 
REMARK   18  A    between atoms: C20_29  and  C24_33 
REMARK   19  A    between atoms: C20_29  and  N6_40 
REMARK   20  A    between atoms: C21_30  and  C22_31 
REMARK   21  A    between atoms: C22_31  and  C23_32 
REMARK   22  A    between atoms: C23_32  and  O8_43 
REMARK   23  A    between atoms: C24_33  and  C25_34 
REMARK   24  A    between atoms: C28_38  and  O6_39 
REMARK   25  A    between atoms: C29_42  and  O8_43 
REMARK   26  A    between atoms: C29_42  and  C35_49 
ROOT
ATOM      1  C14 non d ame     -31.313  14.354  24.081  0.00  0.00     0.089 C 
ATOM      2  H20 non d ame     -30.343  14.497  24.559  0.00  0.00     0.087 H 
ENDROOT
BRANCH   1   3
ATOM      3  N4  non d ame     -31.465  12.931  23.818  0.00  0.00    -0.346 N 
ATOM      4  C10 non d ame     -31.286  11.927  24.930  0.00  0.00     0.241 C 
ATOM      5  O4  non d ame     -31.016  12.289  26.027  0.00  0.00    -0.271 OA
ATOM      6  H19 non d ame     -31.693  12.643  22.877  0.00  0.00     0.163 HD
BRANCH   4   7
ATOM      7  C9  non d ame     -31.453  10.458  24.641  0.00  0.00     0.092 C 
ATOM      8  H11 non d ame     -30.798   9.887  25.299  0.00  0.00     0.088 H 
BRANCH   7   9
ATOM      9  N3  non d ame     -32.830  10.055  24.943  0.00  0.00    -0.346 N 
ATOM     10  C7  non d ame     -33.125   9.365  26.175  0.00  0.00     0.240 C 
ATOM     11  O3  non d ame     -32.267   9.127  26.934  0.00  0.00    -0.271 OA
ATOM     12  H10 non d ame     -33.581  10.252  24.297  0.00  0.00     0.163 HD
BRANCH  10  13
ATOM     13  C6  non d ame     -34.592   8.935  26.489  0.00  0.00     0.086 C 
ATOM     14  H6  non d ame     -34.736   8.660  27.534  0.00  0.00     0.086 H 
BRANCH  13  15
ATOM     15  N2  non d ame     -35.478  10.057  26.228  0.00  0.00    -0.343 N 
ATOM     16  C5  non d ame     -35.650  11.093  27.249  0.00  0.00     0.273 C 
ATOM     17  O2  non d ame     -35.072  11.014  28.277  0.00  0.00    -0.266 OA
ATOM     18  H5  non d ame     -35.969  10.116  25.347  0.00  0.00     0.163 HD
BRANCH  16  19
ATOM     19  C4  non d ame     -36.582  12.286  26.986  0.00  0.00     0.154 A 
ATOM     20  C1  non d ame     -36.268  13.490  26.279  0.00  0.00    -0.017 A 
ATOM     21  C2  non d ame     -37.456  14.254  26.318  0.00  0.00     0.077 A 
ATOM     22  H1  non d ame     -35.324  13.767  25.811  0.00  0.00     0.091 H 
ATOM     23  O1  non d ame     -38.342  13.561  26.970  0.00  0.00    -0.218 OA
ATOM     24  N1  non d ame     -37.856  12.409  27.371  0.00  0.00    -0.123 NA
BRANCH  21  25
ATOM     25  C3  non d ame     -37.660  15.634  25.706  0.00  0.00    -0.029 C 
ATOM     26  H2  non d ame     -38.179  16.274  26.419  0.00  0.00     0.036 H 
ATOM     27  H3  non d ame     -36.692  16.070  25.464  0.00  0.00     0.036 H 
ATOM     28  H4  non d ame     -38.256  15.545  24.798  0.00  0.00     0.036 H 
ENDBRANCH  21  25
ENDBRANCH  16  19
ENDBRANCH  13  15
BRANCH  13  29
ATOM     29  C8  non d ame     -34.972   7.764  25.620  0.00  0.00    -0.049 C 
ATOM     30  H7  non d ame     -34.071   7.234  25.310  0.00  0.00     0.030 H 
ATOM     31  H8  non d ame     -35.615   7.088  26.182  0.00  0.00     0.030 H 
ATOM     32  H9  non d ame     -35.503   8.122  24.738  0.00  0.00     0.030 H 
ENDBRANCH  13  29
ENDBRANCH  10  13
ENDBRANCH   7   9
BRANCH   7  33
ATOM     33  C11 non d ame     -31.154  10.188  23.137  0.00  0.00    -0.033 C 
ATOM     34  H12 non d ame     -31.367  11.106  22.590  0.00  0.00     0.042 H 
BRANCH  33  35
ATOM     35  C12 non d ame     -29.649   9.845  22.910  0.00  0.00    -0.071 C 
ATOM     36  H13 non d ame     -29.567   9.030  22.191  0.00  0.00     0.028 H 
ATOM     37  H14 non d ame     -29.130  10.722  22.526  0.00  0.00     0.028 H 
ATOM     38  H15 non d ame     -29.199   9.541  23.855  0.00  0.00     0.028 H 
ENDBRANCH  33  35
BRANCH  33  39
ATOM     39  C13 non d ame     -32.083   9.064  22.575  0.00  0.00    -0.071 C 
ATOM     40  H16 non d ame     -32.726   9.479  21.799  0.00  0.00     0.028 H 
ATOM     41  H17 non d ame     -31.472   8.265  22.153  0.00  0.00     0.028 H 
ATOM     42  H18 non d ame     -32.697   8.663  23.382  0.00  0.00     0.028 H 
ENDBRANCH  33  39
ENDBRANCH   7  33
ENDBRANCH   4   7
ENDBRANCH   1   3
BRANCH   1  43
ATOM     43  C15 non d ame     -32.489  14.819  24.987  0.00  0.00     0.240 C 
ATOM     44  O5  non d ame     -33.543  15.074  24.501  0.00  0.00    -0.271 OA
ATOM     45  N6  non d ame     -32.302  14.939  26.461  0.00  0.00    -0.355 N 
ATOM     46  H46 non d ame     -31.412  14.721  26.885  0.00  0.00     0.162 HD
BRANCH  45  47
ATOM     47  C20 non d ame     -33.431  15.382  27.308  0.00  0.00     0.013 C 
ATOM     48  H30 non d ame     -34.288  14.747  27.084  0.00  0.00     0.072 H 
BRANCH  47  49
ATOM     49  C21 non d ame     -33.758  16.824  26.992  0.00  0.00    -0.038 C 
ATOM     50  H31 non d ame     -34.096  16.828  25.955  0.00  0.00     0.036 H 
ATOM     51  H32 non d ame     -34.428  17.154  27.786  0.00  0.00     0.036 H 
BRANCH  49  52
ATOM     52  C22 non d ame     -32.521  17.746  27.051  0.00  0.00     0.018 C 
ATOM     53  H33 non d ame     -31.719  17.138  27.469  0.00  0.00     0.048 H 
ATOM     54  H34 non d ame     -32.420  18.169  26.052  0.00  0.00     0.048 H 
BRANCH  52  55
ATOM     55  C23 non d ame     -32.687  18.955  28.013  0.00  0.00     0.259 C 
ATOM     56  O7  non d ame     -32.120  18.978  29.057  0.00  0.00    -0.265 OA
BRANCH  55  57
ATOM     57  O8  non d ame     -33.538  20.032  27.639  0.00  0.00    -0.317 OA
BRANCH  57  58
ATOM     58  C29 non d ame     -34.872  19.923  28.143  0.00  0.00     0.052 C 
ATOM     59  H47 non d ame     -34.979  18.890  28.474  0.00  0.00     0.082 H 
ATOM     60  H48 non d ame     -34.985  20.738  28.858  0.00  0.00     0.082 H 
BRANCH  58  61
ATOM     61  C35 non d ame     -35.851  20.165  26.964  0.00  0.00    -0.034 A 
ATOM     62  C30 non d ame     -36.991  20.941  27.153  0.00  0.00    -0.075 A 
ATOM     63  C31 non d ame     -37.871  21.158  26.094  0.00  0.00    -0.082 A 
ATOM     64  H49 non d ame     -37.195  21.377  28.131  0.00  0.00     0.084 H 
ATOM     65  C32 non d ame     -37.609  20.594  24.842  0.00  0.00    -0.083 A 
ATOM     66  H50 non d ame     -38.762  21.767  26.245  0.00  0.00     0.083 H 
ATOM     67  C33 non d ame     -36.473  19.819  24.659  0.00  0.00    -0.082 A 
ATOM     68  H51 non d ame     -38.292  20.760  24.009  0.00  0.00     0.083 H 
ATOM     69  C34 non d ame     -35.589  19.601  25.714  0.00  0.00    -0.075 A 
ATOM     70  H52 non d ame     -36.272  19.379  23.682  0.00  0.00     0.083 H 
ATOM     71  H53 non d ame     -34.698  18.991  25.563  0.00  0.00     0.084 H 
ENDBRANCH  58  61
ENDBRANCH  57  58
ENDBRANCH  55  57
ENDBRANCH  52  55
ENDBRANCH  49  52
ENDBRANCH  47  49
BRANCH  47  72
ATOM     72  C24 non d ame     -33.049  15.257  28.782  0.00  0.00    -0.039 C 
ATOM     73  H35 non d ame     -32.875  16.278  29.124  0.00  0.00     0.036 H 
ATOM     74  H36 non d ame     -33.839  14.658  29.236  0.00  0.00     0.036 H 
BRANCH  72  75
ATOM     75  C25 non d ame     -31.677  14.454  28.973  0.00  0.00    -0.001 C 
ATOM     76  C26 non d ame     -31.992  12.915  29.462  0.00  0.00    -0.035 C 
ATOM     77  C27 non d ame     -31.250  12.646  30.562  0.00  0.00     0.085 C 
ATOM     78  H38 non d ame     -33.018  12.840  29.821  0.00  0.00     0.036 H 
ATOM     79  H39 non d ame     -31.620  12.205  28.723  0.00  0.00     0.036 H 
ATOM     80  N5  non d ame     -30.707  13.963  31.061  0.00  0.00    -0.049 N 
ATOM     81  H40 non d ame     -31.952  12.250  31.297  0.00  0.00     0.075 H 
ATOM     82  H41 non d ame     -30.423  12.030  30.212  0.00  0.00     0.075 H 
ATOM     83  C28 non d ame     -30.924  15.018  29.858  0.00  0.00     0.193 C 
ATOM     84  H42 non d ame     -31.289  14.237  31.839  0.00  0.00     0.280 HD
ATOM     85  H43 non d ame     -29.714  13.829  31.196  0.00  0.00     0.280 HD
ATOM     86  H44 non d ame     -30.085  15.328  29.236  0.00  0.00     0.129 H 
ATOM     87  H37 non d ame     -31.005  14.576  28.124  0.00  0.00     0.046 H 
BRANCH  83  88
ATOM     88  O6  non d ame     -31.496  16.227  30.360  0.00  0.00    -0.369 OA
ATOM     89  H45 non d ame     -31.810  16.761  29.627  0.00  0.00     0.212 HD
ENDBRANCH  83  88
ENDBRANCH  72  75
ENDBRANCH  47  72
ENDBRANCH  45  47
ENDBRANCH   1  43
BRANCH   1  90
ATOM     90  C16 non d ame     -31.353  15.109  22.762  0.00  0.00    -0.035 C 
ATOM     91  H21 non d ame     -32.290  14.815  22.290  0.00  0.00     0.037 H 
ATOM     92  H22 non d ame     -31.178  16.153  23.022  0.00  0.00     0.037 H 
BRANCH  90  93
ATOM     93  C17 non d ame     -30.214  14.704  21.773  0.00  0.00    -0.059 C 
ATOM     94  H23 non d ame     -30.242  13.620  21.663  0.00  0.00     0.038 H 
BRANCH  93  95
ATOM     95  C18 non d ame     -30.414  15.331  20.356  0.00  0.00    -0.073 C 
ATOM     96  H24 non d ame     -30.866  14.594  19.692  0.00  0.00     0.028 H 
ATOM     97  H25 non d ame     -31.068  16.199  20.431  0.00  0.00     0.028 H 
ATOM     98  H26 non d ame     -29.448  15.637  19.955  0.00  0.00     0.028 H 
ENDBRANCH  93  95
BRANCH  93  99
ATOM     99  C19 non d ame     -28.841  15.069  22.341  0.00  0.00    -0.073 C 
ATOM    100  H27 non d ame     -28.326  15.736  21.649  0.00  0.00     0.028 H 
ATOM    101  H28 non d ame     -28.966  15.569  23.302  0.00  0.00     0.028 H 
ATOM    102  H29 non d ame     -28.252  14.162  22.478  0.00  0.00     0.028 H 
ENDBRANCH  93  99
ENDBRANCH  90  93
ENDBRANCH   1  90
TORSDOF 26
ENDMDL
MODEL 7
REMARK VINA RESULT:      -6.8      2.487      6.020
REMARK  26 active torsions:
REMARK  status: ('A' for Active; 'I' for Inactive)
REMARK    1  A    between atoms: C2_2  and  C3_3 
REMARK    2  A    between atoms: C4_6  and  C5_7 
REMARK       I    between atoms: C5_7  and  N2_9 
REMARK    3  A    between atoms: N2_9  and  C6_10 
REMARK    4  A    between atoms: C6_10  and  C7_11 
REMARK    5  A    between atoms: C6_10  and  C8_13 
REMARK       I    between atoms: C7_11  and  N3_14 
REMARK    6  A    between atoms: N3_14  and  C9_15 
REMARK    7  A    between atoms: C9_15  and  C10_16 
REMARK    8  A    between atoms: C9_15  and  C11_18 
REMARK       I    between atoms: C10_16  and  N4_21 
REMARK    9  A    between atoms: C11_18  and  C12_19 
REMARK   10  A    between atoms: C11_18  and  C13_20 
REMARK   11  A    between atoms: N4_21  and  C14_22 
REMARK   12  A    between atoms: C14_22  and  C15_23 
REMARK   13  A    between atoms: C14_22  and  C16_25 
REMARK       I    between atoms: C15_23  and  N6_40 
REMARK   14  A    between atoms: C16_25  and  C17_26 
REMARK   15  A    between atoms: C17_26  and  C18_27 
REMARK   16  A    between atoms: C17_26  and  C19_28 
REMARK   17  A    between atoms: C20_29  and  C21_30 
REMARK   18  A    between atoms: C20_29  and  C24_33 
REMARK   19  A    between atoms: C20_29  and  N6_40 
REMARK   20  A    between atoms: C21_30  and  C22_31 
REMARK   21  A    between atoms: C22_31  and  C23_32 
REMARK   22  A    between atoms: C23_32  and  O8_43 
REMARK   23  A    between atoms: C24_33  and  C25_34 
REMARK   24  A    between atoms: C28_38  and  O6_39 
REMARK   25  A    between atoms: C29_42  and  O8_43 
REMARK   26  A    between atoms: C29_42  and  C35_49 
ROOT
ATOM      1  C14 non d ame     -31.311  15.014  24.010  0.00  0.00     0.089 C 
ATOM      2  H20 non d ame     -30.297  15.085  24.405  0.00  0.00     0.087 H 
ENDROOT
BRANCH   1   3
ATOM      3  N4  non d ame     -31.656  13.602  23.938  0.00  0.00    -0.346 N 
ATOM      4  C10 non d ame     -31.332  12.679  25.085  0.00  0.00     0.241 C 
ATOM      5  O4  non d ame     -30.790  13.095  26.056  0.00  0.00    -0.271 OA
ATOM      6  H19 non d ame     -32.114  13.268  23.102  0.00  0.00     0.163 HD
BRANCH   4   7
ATOM      7  C9  non d ame     -31.701  11.222  24.996  0.00  0.00     0.092 C 
ATOM      8  H11 non d ame     -31.142  10.664  25.747  0.00  0.00     0.088 H 
BRANCH   7   9
ATOM      9  N3  non d ame     -33.125  11.058  25.304  0.00  0.00    -0.346 N 
ATOM     10  C7  non d ame     -33.528  10.514  26.578  0.00  0.00     0.240 C 
ATOM     11  O3  non d ame     -32.720  10.201  27.365  0.00  0.00    -0.271 OA
ATOM     12  H10 non d ame     -33.833  11.322  24.635  0.00  0.00     0.163 HD
BRANCH  10  13
ATOM     13  C6  non d ame     -35.045  10.339  26.899  0.00  0.00     0.086 C 
ATOM     14  H6  non d ame     -35.574   9.766  26.138  0.00  0.00     0.086 H 
BRANCH  13  15
ATOM     15  N2  non d ame     -35.181   9.603  28.145  0.00  0.00    -0.343 N 
ATOM     16  C5  non d ame     -35.470   8.167  28.106  0.00  0.00     0.273 C 
ATOM     17  O2  non d ame     -35.593   7.615  27.068  0.00  0.00    -0.266 OA
ATOM     18  H5  non d ame     -35.077  10.083  29.027  0.00  0.00     0.163 HD
BRANCH  16  19
ATOM     19  C4  non d ame     -35.615   7.375  29.415  0.00  0.00     0.154 A 
ATOM     20  C1  non d ame     -34.730   6.371  29.920  0.00  0.00    -0.017 A 
ATOM     21  C2  non d ame     -35.307   5.960  31.142  0.00  0.00     0.077 A 
ATOM     22  H1  non d ame     -33.810   5.997  29.469  0.00  0.00     0.091 H 
ATOM     23  O1  non d ame     -36.394   6.654  31.310  0.00  0.00    -0.218 OA
ATOM     24  N1  non d ame     -36.595   7.487  30.315  0.00  0.00    -0.123 NA
BRANCH  21  25
ATOM     25  C3  non d ame     -34.756   4.901  32.088  0.00  0.00    -0.029 C 
ATOM     26  H2  non d ame     -35.573   4.278  32.452  0.00  0.00     0.036 H 
ATOM     27  H3  non d ame     -34.035   4.280  31.557  0.00  0.00     0.036 H 
ATOM     28  H4  non d ame     -34.265   5.386  32.932  0.00  0.00     0.036 H 
ENDBRANCH  21  25
ENDBRANCH  16  19
ENDBRANCH  13  15
BRANCH  13  29
ATOM     29  C8  non d ame     -35.694  11.694  27.027  0.00  0.00    -0.049 C 
ATOM     30  H7  non d ame     -35.754  11.970  28.080  0.00  0.00     0.030 H 
ATOM     31  H8  non d ame     -35.098  12.434  26.492  0.00  0.00     0.030 H 
ATOM     32  H9  non d ame     -36.697  11.659  26.602  0.00  0.00     0.030 H 
ENDBRANCH  13  29
ENDBRANCH  10  13
ENDBRANCH   7   9
BRANCH   7  33
ATOM     33  C11 non d ame     -31.423  10.704  23.554  0.00  0.00    -0.033 C 
ATOM     34  H12 non d ame     -31.693  11.500  22.861  0.00  0.00     0.042 H 
BRANCH  33  35
ATOM     35  C12 non d ame     -29.908  10.394  23.344  0.00  0.00    -0.071 C 
ATOM     36  H13 non d ame     -29.771   9.880  22.393  0.00  0.00     0.028 H 
ATOM     37  H14 non d ame     -29.344  11.326  23.338  0.00  0.00     0.028 H 
ATOM     38  H15 non d ame     -29.551   9.759  24.155  0.00  0.00     0.028 H 
ENDBRANCH  33  35
BRANCH  33  39
ATOM     39  C13 non d ame     -32.307   9.458  23.227  0.00  0.00    -0.071 C 
ATOM     40  H16 non d ame     -32.797   9.602  22.264  0.00  0.00     0.028 H 
ATOM     41  H17 non d ame     -31.678   8.567  23.186  0.00  0.00     0.028 H 
ATOM     42  H18 non d ame     -33.061   9.333  24.004  0.00  0.00     0.028 H 
ENDBRANCH  33  39
ENDBRANCH   7  33
ENDBRANCH   4   7
ENDBRANCH   1   3
BRANCH   1  43
ATOM     43  C15 non d ame     -32.347  15.731  24.922  0.00  0.00     0.240 C 
ATOM     44  O5  non d ame     -33.478  15.825  24.571  0.00  0.00    -0.271 OA
ATOM     45  N6  non d ame     -31.930  16.294  26.238  0.00  0.00    -0.355 N 
ATOM     46  H46 non d ame     -30.972  16.217  26.549  0.00  0.00     0.162 HD
BRANCH  45  47
ATOM     47  C20 non d ame     -32.927  16.972  27.095  0.00  0.00     0.013 C 
ATOM     48  H30 non d ame     -33.892  16.923  26.589  0.00  0.00     0.072 H 
BRANCH  47  49
ATOM     49  C21 non d ame     -32.520  18.415  27.291  0.00  0.00    -0.038 C 
ATOM     50  H31 non d ame     -32.998  18.733  28.217  0.00  0.00     0.036 H 
ATOM     51  H32 non d ame     -31.433  18.427  27.206  0.00  0.00     0.036 H 
BRANCH  49  52
ATOM     52  C22 non d ame     -33.055  19.345  26.181  0.00  0.00     0.018 C 
ATOM     53  H33 non d ame     -32.479  20.266  26.264  0.00  0.00     0.048 H 
ATOM     54  H34 non d ame     -33.018  18.759  25.262  0.00  0.00     0.048 H 
BRANCH  52  55
ATOM     55  C23 non d ame     -34.543  19.753  26.369  0.00  0.00     0.259 C 
ATOM     56  O7  non d ame     -34.912  20.230  27.392  0.00  0.00    -0.265 OA
BRANCH  55  57
ATOM     57  O8  non d ame     -35.464  19.537  25.307  0.00  0.00    -0.317 OA
BRANCH  57  58
ATOM     58  C29 non d ame     -36.750  19.081  25.735  0.00  0.00     0.052 C 
ATOM     59  H47 non d ame     -36.828  19.363  26.785  0.00  0.00     0.082 H 
ATOM     60  H48 non d ame     -37.460  19.478  25.010  0.00  0.00     0.082 H 
BRANCH  58  61
ATOM     61  C35 non d ame     -36.765  17.532  25.640  0.00  0.00    -0.034 A 
ATOM     62  C30 non d ame     -37.055  16.912  24.429  0.00  0.00    -0.075 A 
ATOM     63  C31 non d ame     -37.069  15.520  24.343  0.00  0.00    -0.082 A 
ATOM     64  H49 non d ame     -37.271  17.515  23.547  0.00  0.00     0.084 H 
ATOM     65  C32 non d ame     -36.794  14.749  25.476  0.00  0.00    -0.083 A 
ATOM     66  H50 non d ame     -37.294  15.037  23.392  0.00  0.00     0.083 H 
ATOM     67  C33 non d ame     -36.510  15.373  26.683  0.00  0.00    -0.082 A 
ATOM     68  H51 non d ame     -36.803  13.660  25.417  0.00  0.00     0.083 H 
ATOM     69  C34 non d ame     -36.492  16.763  26.772  0.00  0.00    -0.075 A 
ATOM     70  H52 non d ame     -36.298  14.768  27.565  0.00  0.00     0.083 H 
ATOM     71  H53 non d ame     -36.267  17.245  27.724  0.00  0.00     0.084 H 
ENDBRANCH  58  61
ENDBRANCH  57  58
ENDBRANCH  55  57
ENDBRANCH  52  55
ENDBRANCH  49  52
ENDBRANCH  47  49
BRANCH  47  72
ATOM     72  C24 non d ame     -33.002  16.274  28.451  0.00  0.00    -0.039 C 
ATOM     73  H35 non d ame     -32.659  17.012  29.177  0.00  0.00     0.036 H 
ATOM     74  H36 non d ame     -34.015  15.876  28.517  0.00  0.00     0.036 H 
BRANCH  72  75
ATOM     75  C25 non d ame     -31.998  15.029  28.534  0.00  0.00    -0.001 C 
ATOM     76  C26 non d ame     -32.852  13.625  28.605  0.00  0.00    -0.035 C 
ATOM     77  C27 non d ame     -32.404  12.895  29.654  0.00  0.00     0.085 C 
ATOM     78  H38 non d ame     -33.890  13.832  28.862  0.00  0.00     0.036 H 
ATOM     79  H39 non d ame     -32.618  13.001  27.742  0.00  0.00     0.036 H 
ATOM     80  N5  non d ame     -31.552  13.811  30.498  0.00  0.00    -0.049 N 
ATOM     81  H40 non d ame     -33.296  12.618  30.217  0.00  0.00     0.075 H 
ATOM     82  H41 non d ame     -31.771  12.121  29.221  0.00  0.00     0.075 H 
ATOM     83  C28 non d ame     -31.246  15.103  29.580  0.00  0.00     0.193 C 
ATOM     84  H42 non d ame     -32.127  14.099  31.277  0.00  0.00     0.280 HD
ATOM     85  H43 non d ame     -30.685  13.322  30.665  0.00  0.00     0.280 HD
ATOM     86  H44 non d ame     -30.269  15.232  29.113  0.00  0.00     0.129 H 
ATOM     87  H37 non d ame     -31.204  15.089  27.790  0.00  0.00     0.046 H 
BRANCH  83  88
ATOM     88  O6  non d ame     -31.474  16.302  30.324  0.00  0.00    -0.369 OA
ATOM     89  H45 non d ame     -30.798  16.393  31.000  0.00  0.00     0.212 HD
ENDBRANCH  83  88
ENDBRANCH  72  75
ENDBRANCH  47  72
ENDBRANCH  45  47
ENDBRANCH   1  43
BRANCH   1  90
ATOM     90  C16 non d ame     -31.362  15.610  22.612  0.00  0.00    -0.035 C 
ATOM     91  H21 non d ame     -32.352  15.364  22.230  0.00  0.00     0.037 H 
ATOM     92  H22 non d ame     -31.067  16.653  22.732  0.00  0.00     0.037 H 
BRANCH  90  93
ATOM     93  C17 non d ame     -30.336  14.972  21.622  0.00  0.00    -0.059 C 
ATOM     94  H23 non d ame     -30.487  13.893  21.638  0.00  0.00     0.038 H 
BRANCH  93  95
ATOM     95  C18 non d ame     -30.552  15.461  20.154  0.00  0.00    -0.073 C 
ATOM     96  H24 non d ame     -30.600  14.601  19.488  0.00  0.00     0.028 H 
ATOM     97  H25 non d ame     -31.485  16.021  20.091  0.00  0.00     0.028 H 
ATOM     98  H26 non d ame     -29.722  16.103  19.859  0.00  0.00     0.028 H 
ENDBRANCH  93  95
BRANCH  93  99
ATOM     99  C19 non d ame     -28.899  15.237  22.078  0.00  0.00    -0.073 C 
ATOM    100  H27 non d ame     -28.231  14.507  21.619  0.00  0.00     0.028 H 
ATOM    101  H28 non d ame     -28.600  16.241  21.776  0.00  0.00     0.028 H 
ATOM    102  H29 non d ame     -28.840  15.152  23.163  0.00  0.00     0.028 H 
ENDBRANCH  93  99
ENDBRANCH  90  93
ENDBRANCH   1  90
TORSDOF 26
ENDMDL
MODEL 8
REMARK VINA RESULT:      -6.8      2.181      3.612
REMARK  26 active torsions:
REMARK  status: ('A' for Active; 'I' for Inactive)
REMARK    1  A    between atoms: C2_2  and  C3_3 
REMARK    2  A    between atoms: C4_6  and  C5_7 
REMARK       I    between atoms: C5_7  and  N2_9 
REMARK    3  A    between atoms: N2_9  and  C6_10 
REMARK    4  A    between atoms: C6_10  and  C7_11 
REMARK    5  A    between atoms: C6_10  and  C8_13 
REMARK       I    between atoms: C7_11  and  N3_14 
REMARK    6  A    between atoms: N3_14  and  C9_15 
REMARK    7  A    between atoms: C9_15  and  C10_16 
REMARK    8  A    between atoms: C9_15  and  C11_18 
REMARK       I    between atoms: C10_16  and  N4_21 
REMARK    9  A    between atoms: C11_18  and  C12_19 
REMARK   10  A    between atoms: C11_18  and  C13_20 
REMARK   11  A    between atoms: N4_21  and  C14_22 
REMARK   12  A    between atoms: C14_22  and  C15_23 
REMARK   13  A    between atoms: C14_22  and  C16_25 
REMARK       I    between atoms: C15_23  and  N6_40 
REMARK   14  A    between atoms: C16_25  and  C17_26 
REMARK   15  A    between atoms: C17_26  and  C18_27 
REMARK   16  A    between atoms: C17_26  and  C19_28 
REMARK   17  A    between atoms: C20_29  and  C21_30 
REMARK   18  A    between atoms: C20_29  and  C24_33 
REMARK   19  A    between atoms: C20_29  and  N6_40 
REMARK   20  A    between atoms: C21_30  and  C22_31 
REMARK   21  A    between atoms: C22_31  and  C23_32 
REMARK   22  A    between atoms: C23_32  and  O8_43 
REMARK   23  A    between atoms: C24_33  and  C25_34 
REMARK   24  A    between atoms: C28_38  and  O6_39 
REMARK   25  A    between atoms: C29_42  and  O8_43 
REMARK   26  A    between atoms: C29_42  and  C35_49 
ROOT
ATOM      1  C14 non d ame     -30.782  14.001  24.091  0.00  0.00     0.089 C 
ATOM      2  H20 non d ame     -29.727  13.723  24.084  0.00  0.00     0.087 H 
ENDROOT
BRANCH   1   3
ATOM      3  N4  non d ame     -31.550  12.797  24.369  0.00  0.00    -0.346 N 
ATOM      4  C10 non d ame     -31.091  11.462  23.840  0.00  0.00     0.241 C 
ATOM      5  O4  non d ame     -30.101  11.381  23.191  0.00  0.00    -0.271 OA
ATOM      6  H19 non d ame     -32.391  12.887  24.921  0.00  0.00     0.163 HD
BRANCH   4   7
ATOM      7  C9  non d ame     -31.896  10.225  24.142  0.00  0.00     0.092 C 
ATOM      8  H11 non d ame     -31.458   9.712  24.999  0.00  0.00     0.088 H 
BRANCH   7   9
ATOM      9  N3  non d ame     -33.260  10.609  24.518  0.00  0.00    -0.346 N 
ATOM     10  C7  non d ame     -33.669  10.555  25.900  0.00  0.00     0.240 C 
ATOM     11  O3  non d ame     -32.914  10.203  26.722  0.00  0.00    -0.271 OA
ATOM     12  H10 non d ame     -33.923  10.912  23.820  0.00  0.00     0.163 HD
BRANCH  10  13
ATOM     13  C6  non d ame     -35.123  10.961  26.294  0.00  0.00     0.086 C 
ATOM     14  H6  non d ame     -35.805  10.961  25.444  0.00  0.00     0.086 H 
BRANCH  13  15
ATOM     15  N2  non d ame     -35.642   9.993  27.245  0.00  0.00    -0.343 N 
ATOM     16  C5  non d ame     -37.048   9.589  27.168  0.00  0.00     0.273 C 
ATOM     17  O2  non d ame     -37.753  10.051  26.340  0.00  0.00    -0.266 OA
ATOM     18  H5  non d ame     -35.033   9.605  27.951  0.00  0.00     0.163 HD
BRANCH  16  19
ATOM     19  C4  non d ame     -37.610   8.565  28.167  0.00  0.00     0.154 A 
ATOM     20  C1  non d ame     -37.400   7.150  28.164  0.00  0.00    -0.017 A 
ATOM     21  C2  non d ame     -38.125   6.672  29.279  0.00  0.00     0.077 A 
ATOM     22  H1  non d ame     -36.811   6.559  27.462  0.00  0.00     0.091 H 
ATOM     23  O1  non d ame     -38.682   7.701  29.848  0.00  0.00    -0.218 OA
ATOM     24  N1  non d ame     -38.396   8.817  29.217  0.00  0.00    -0.123 NA
BRANCH  21  25
ATOM     25  C3  non d ame     -38.233   5.222  29.730  0.00  0.00    -0.029 C 
ATOM     26  H2  non d ame     -39.109   4.763  29.271  0.00  0.00     0.036 H 
ATOM     27  H3  non d ame     -37.338   4.679  29.426  0.00  0.00     0.036 H 
ATOM     28  H4  non d ame     -38.330   5.185  30.815  0.00  0.00     0.036 H 
ENDBRANCH  21  25
ENDBRANCH  16  19
ENDBRANCH  13  15
BRANCH  13  29
ATOM     29  C8  non d ame     -35.114  12.337  26.910  0.00  0.00    -0.049 C 
ATOM     30  H7  non d ame     -35.690  12.325  27.835  0.00  0.00     0.030 H 
ATOM     31  H8  non d ame     -34.087  12.631  27.126  0.00  0.00     0.030 H 
ATOM     32  H9  non d ame     -35.558  13.050  26.215  0.00  0.00     0.030 H 
ENDBRANCH  13  29
ENDBRANCH  10  13
ENDBRANCH   7   9
BRANCH   7  33
ATOM     33  C11 non d ame     -31.945   9.317  22.879  0.00  0.00    -0.033 C 
ATOM     34  H12 non d ame     -31.616   9.916  22.030  0.00  0.00     0.042 H 
BRANCH  33  35
ATOM     35  C12 non d ame     -30.965   8.109  23.008  0.00  0.00    -0.071 C 
ATOM     36  H13 non d ame     -30.252   8.304  23.810  0.00  0.00     0.028 H 
ATOM     37  H14 non d ame     -31.530   7.206  23.236  0.00  0.00     0.028 H 
ATOM     38  H15 non d ame     -30.427   7.976  22.069  0.00  0.00     0.028 H 
ENDBRANCH  33  35
BRANCH  33  39
ATOM     39  C13 non d ame     -33.404   8.834  22.593  0.00  0.00    -0.071 C 
ATOM     40  H16 non d ame     -33.438   7.745  22.625  0.00  0.00     0.028 H 
ATOM     41  H17 non d ame     -34.076   9.241  23.349  0.00  0.00     0.028 H 
ATOM     42  H18 non d ame     -33.715   9.180  21.608  0.00  0.00     0.028 H 
ENDBRANCH  33  39
ENDBRANCH   7  33
ENDBRANCH   4   7
ENDBRANCH   1   3
BRANCH   1  43
ATOM     43  C15 non d ame     -31.104  15.058  25.186  0.00  0.00     0.240 C 
ATOM     44  O5  non d ame     -30.749  16.184  25.043  0.00  0.00    -0.271 OA
ATOM     45  N6  non d ame     -31.862  14.669  26.408  0.00  0.00    -0.355 N 
ATOM     46  H46 non d ame     -32.173  13.717  26.538  0.00  0.00     0.162 HD
BRANCH  45  47
ATOM     47  C20 non d ame     -32.162  15.686  27.440  0.00  0.00     0.013 C 
ATOM     48  H30 non d ame     -31.553  16.566  27.230  0.00  0.00     0.072 H 
BRANCH  47  49
ATOM     49  C21 non d ame     -31.817  15.132  28.803  0.00  0.00    -0.038 C 
ATOM     50  H31 non d ame     -30.770  14.835  28.745  0.00  0.00     0.036 H 
ATOM     51  H32 non d ame     -32.130  15.893  29.518  0.00  0.00     0.036 H 
BRANCH  49  52
ATOM     52  C22 non d ame     -32.613  13.855  29.150  0.00  0.00     0.018 C 
ATOM     53  H33 non d ame     -32.930  13.976  30.185  0.00  0.00     0.048 H 
ATOM     54  H34 non d ame     -33.358  13.748  28.361  0.00  0.00     0.048 H 
BRANCH  52  55
ATOM     55  C23 non d ame     -31.761  12.556  29.112  0.00  0.00     0.259 C 
ATOM     56  O7  non d ame     -30.796  12.487  28.422  0.00  0.00    -0.265 OA
BRANCH  55  57
ATOM     57  O8  non d ame     -32.154  11.442  29.904  0.00  0.00    -0.317 OA
BRANCH  57  58
ATOM     58  C29 non d ame     -32.948  11.788  31.043  0.00  0.00     0.052 C 
ATOM     59  H47 non d ame     -32.256  11.826  31.884  0.00  0.00     0.082 H 
ATOM     60  H48 non d ame     -33.505  12.679  30.755  0.00  0.00     0.082 H 
BRANCH  58  61
ATOM     61  C35 non d ame     -33.958  10.636  31.290  0.00  0.00    -0.034 A 
ATOM     62  C30 non d ame     -34.830  10.694  32.373  0.00  0.00    -0.075 A 
ATOM     63  C31 non d ame     -35.737   9.660  32.595  0.00  0.00    -0.082 A 
ATOM     64  H49 non d ame     -34.802  11.550  33.047  0.00  0.00     0.084 H 
ATOM     65  C32 non d ame     -35.769   8.562  31.732  0.00  0.00    -0.083 A 
ATOM     66  H50 non d ame     -36.421   9.709  33.444  0.00  0.00     0.083 H 
ATOM     67  C33 non d ame     -34.895   8.506  30.655  0.00  0.00    -0.082 A 
ATOM     68  H51 non d ame     -36.476   7.749  31.898  0.00  0.00     0.083 H 
ATOM     69  C34 non d ame     -33.988   9.539  30.427  0.00  0.00    -0.075 A 
ATOM     70  H52 non d ame     -34.921   7.647  29.984  0.00  0.00     0.083 H 
ATOM     71  H53 non d ame     -33.306   9.489  29.578  0.00  0.00     0.084 H 
ENDBRANCH  58  61
ENDBRANCH  57  58
ENDBRANCH  55  57
ENDBRANCH  52  55
ENDBRANCH  49  52
ENDBRANCH  47  49
BRANCH  47  72
ATOM     72  C24 non d ame     -33.646  16.045  27.395  0.00  0.00    -0.039 C 
ATOM     73  H35 non d ame     -34.094  15.341  26.694  0.00  0.00     0.036 H 
ATOM     74  H36 non d ame     -33.972  16.060  28.435  0.00  0.00     0.036 H 
BRANCH  72  75
ATOM     75  C25 non d ame     -33.882  17.515  26.804  0.00  0.00    -0.001 C 
ATOM     76  C26 non d ame     -32.495  18.392  26.911  0.00  0.00    -0.035 C 
ATOM     77  C27 non d ame     -32.770  19.573  27.514  0.00  0.00     0.085 C 
ATOM     78  H38 non d ame     -31.801  17.910  27.599  0.00  0.00     0.036 H 
ATOM     79  H39 non d ame     -32.161  18.686  25.916  0.00  0.00     0.036 H 
ATOM     80  N5  non d ame     -34.146  19.448  28.122  0.00  0.00    -0.049 N 
ATOM     81  H40 non d ame     -32.036  19.669  28.314  0.00  0.00     0.075 H 
ATOM     82  H41 non d ame     -32.802  20.309  26.712  0.00  0.00     0.075 H 
ATOM     83  C28 non d ame     -34.810  18.137  27.454  0.00  0.00     0.193 C 
ATOM     84  H42 non d ame     -34.010  19.273  29.107  0.00  0.00     0.280 HD
ATOM     85  H43 non d ame     -34.666  20.260  27.820  0.00  0.00     0.280 HD
ATOM     86  H44 non d ame     -35.566  18.234  26.675  0.00  0.00     0.129 H 
ATOM     87  H37 non d ame     -34.383  17.496  25.836  0.00  0.00     0.046 H 
BRANCH  83  88
ATOM     88  O6  non d ame     -35.403  17.317  28.462  0.00  0.00    -0.369 OA
ATOM     89  H45 non d ame     -35.051  17.561  29.322  0.00  0.00     0.212 HD
ENDBRANCH  83  88
ENDBRANCH  72  75
ENDBRANCH  47  72
ENDBRANCH  45  47
ENDBRANCH   1  43
BRANCH   1  90
ATOM     90  C16 non d ame     -31.180  14.541  22.726  0.00  0.00    -0.035 C 
ATOM     91  H21 non d ame     -31.913  13.833  22.339  0.00  0.00     0.037 H 
ATOM     92  H22 non d ame     -31.463  15.579  22.898  0.00  0.00     0.037 H 
BRANCH  90  93
ATOM     93  C17 non d ame     -30.007  14.567  21.696  0.00  0.00    -0.059 C 
ATOM     94  H23 non d ame     -29.888  13.557  21.304  0.00  0.00     0.038 H 
BRANCH  93  95
ATOM     95  C18 non d ame     -30.304  15.515  20.490  0.00  0.00    -0.073 C 
ATOM     96  H24 non d ame     -30.150  16.550  20.794  0.00  0.00     0.028 H 
ATOM     97  H25 non d ame     -29.632  15.276  19.666  0.00  0.00     0.028 H 
ATOM     98  H26 non d ame     -31.336  15.380  20.167  0.00  0.00     0.028 H 
ENDBRANCH  93  95
BRANCH  93  99
ATOM     99  C19 non d ame     -28.690  14.948  22.377  0.00  0.00    -0.073 C 
ATOM    100  H27 non d ame     -28.881  15.209  23.418  0.00  0.00     0.028 H 
ATOM    101  H28 non d ame     -28.001  14.104  22.334  0.00  0.00     0.028 H 
ATOM    102  H29 non d ame     -28.249  15.802  21.863  0.00  0.00     0.028 H 
ENDBRANCH  93  99
ENDBRANCH  90  93
ENDBRANCH   1  90
TORSDOF 26
ENDMDL
MODEL 9
REMARK VINA RESULT:      -6.8      2.462      7.890
REMARK  26 active torsions:
REMARK  status: ('A' for Active; 'I' for Inactive)
REMARK    1  A    between atoms: C2_2  and  C3_3 
REMARK    2  A    between atoms: C4_6  and  C5_7 
REMARK       I    between atoms: C5_7  and  N2_9 
REMARK    3  A    between atoms: N2_9  and  C6_10 
REMARK    4  A    between atoms: C6_10  and  C7_11 
REMARK    5  A    between atoms: C6_10  and  C8_13 
REMARK       I    between atoms: C7_11  and  N3_14 
REMARK    6  A    between atoms: N3_14  and  C9_15 
REMARK    7  A    between atoms: C9_15  and  C10_16 
REMARK    8  A    between atoms: C9_15  and  C11_18 
REMARK       I    between atoms: C10_16  and  N4_21 
REMARK    9  A    between atoms: C11_18  and  C12_19 
REMARK   10  A    between atoms: C11_18  and  C13_20 
REMARK   11  A    between atoms: N4_21  and  C14_22 
REMARK   12  A    between atoms: C14_22  and  C15_23 
REMARK   13  A    between atoms: C14_22  and  C16_25 
REMARK       I    between atoms: C15_23  and  N6_40 
REMARK   14  A    between atoms: C16_25  and  C17_26 
REMARK   15  A    between atoms: C17_26  and  C18_27 
REMARK   16  A    between atoms: C17_26  and  C19_28 
REMARK   17  A    between atoms: C20_29  and  C21_30 
REMARK   18  A    between atoms: C20_29  and  C24_33 
REMARK   19  A    between atoms: C20_29  and  N6_40 
REMARK   20  A    between atoms: C21_30  and  C22_31 
REMARK   21  A    between atoms: C22_31  and  C23_32 
REMARK   22  A    between atoms: C23_32  and  O8_43 
REMARK   23  A    between atoms: C24_33  and  C25_34 
REMARK   24  A    between atoms: C28_38  and  O6_39 
REMARK   25  A    between atoms: C29_42  and  O8_43 
REMARK   26  A    between atoms: C29_42  and  C35_49 
ROOT
ATOM      1  C14 non d ame     -37.159  16.161  26.606  0.00  0.00     0.089 C 
ATOM      2  H20 non d ame     -37.614  16.612  27.488  0.00  0.00     0.087 H 
ENDROOT
BRANCH   1   3
ATOM      3  N4  non d ame     -35.726  16.406  26.680  0.00  0.00    -0.346 N 
ATOM      4  C10 non d ame     -35.130  17.088  27.885  0.00  0.00     0.241 C 
ATOM      5  O4  non d ame     -35.825  17.434  28.783  0.00  0.00    -0.271 OA
ATOM      6  H19 non d ame     -35.152  16.106  25.904  0.00  0.00     0.163 HD
BRANCH   4   7
ATOM      7  C9  non d ame     -33.644  17.327  27.947  0.00  0.00     0.092 C 
ATOM      8  H11 non d ame     -33.423  17.995  28.780  0.00  0.00     0.088 H 
BRANCH   7   9
ATOM      9  N3  non d ame     -32.955  16.061  28.213  0.00  0.00    -0.346 N 
ATOM     10  C7  non d ame     -32.022  15.965  29.308  0.00  0.00     0.240 C 
ATOM     11  O3  non d ame     -31.812  16.897  29.984  0.00  0.00    -0.271 OA
ATOM     12  H10 non d ame     -33.125  15.249  27.637  0.00  0.00     0.163 HD
BRANCH  10  13
ATOM     13  C6  non d ame     -31.289  14.615  29.583  0.00  0.00     0.086 C 
ATOM     14  H6  non d ame     -30.677  14.644  30.484  0.00  0.00     0.086 H 
BRANCH  13  15
ATOM     15  N2  non d ame     -32.281  13.573  29.788  0.00  0.00    -0.343 N 
ATOM     16  C5  non d ame     -31.924  12.377  30.554  0.00  0.00     0.273 C 
ATOM     17  O2  non d ame     -30.835  12.262  30.999  0.00  0.00    -0.266 OA
ATOM     18  H5  non d ame     -33.209  13.679  29.402  0.00  0.00     0.163 HD
BRANCH  16  19
ATOM     19  C4  non d ame     -32.964  11.268  30.780  0.00  0.00     0.154 A 
ATOM     20  C1  non d ame     -33.328  10.227  29.869  0.00  0.00    -0.017 A 
ATOM     21  C2  non d ame     -34.316   9.479  30.548  0.00  0.00     0.077 A 
ATOM     22  H1  non d ame     -32.936  10.041  28.869  0.00  0.00     0.091 H 
ATOM     23  O1  non d ame     -34.489  10.034  31.712  0.00  0.00    -0.218 OA
ATOM     24  N1  non d ame     -33.712  11.080  31.870  0.00  0.00    -0.123 NA
BRANCH  21  25
ATOM     25  C3  non d ame     -35.042   8.250  30.016  0.00  0.00    -0.029 C 
ATOM     26  H2  non d ame     -34.344   7.631  29.454  0.00  0.00     0.036 H 
ATOM     27  H3  non d ame     -35.444   7.677  30.851  0.00  0.00     0.036 H 
ATOM     28  H4  non d ame     -35.857   8.564  29.364  0.00  0.00     0.036 H 
ENDBRANCH  21  25
ENDBRANCH  16  19
ENDBRANCH  13  15
BRANCH  13  29
ATOM     29  C8  non d ame     -30.410  14.268  28.408  0.00  0.00    -0.049 C 
ATOM     30  H7  non d ame     -29.370  14.472  28.660  0.00  0.00     0.030 H 
ATOM     31  H8  non d ame     -30.526  13.211  28.169  0.00  0.00     0.030 H 
ATOM     32  H9  non d ame     -30.700  14.870  27.547  0.00  0.00     0.030 H 
ENDBRANCH  13  29
ENDBRANCH  10  13
ENDBRANCH   7   9
BRANCH   7  33
ATOM     33  C11 non d ame     -33.156  17.906  26.587  0.00  0.00    -0.033 C 
ATOM     34  H12 non d ame     -34.032  18.037  25.952  0.00  0.00     0.042 H 
BRANCH  33  35
ATOM     35  C12 non d ame     -32.494  19.307  26.770  0.00  0.00    -0.071 C 
ATOM     36  H13 non d ame     -32.433  19.544  27.832  0.00  0.00     0.028 H 
ATOM     37  H14 non d ame     -31.493  19.295  26.341  0.00  0.00     0.028 H 
ATOM     38  H15 non d ame     -33.097  20.062  26.264  0.00  0.00     0.028 H 
ENDBRANCH  33  35
BRANCH  33  39
ATOM     39  C13 non d ame     -32.186  16.911  25.872  0.00  0.00    -0.071 C 
ATOM     40  H16 non d ame     -32.613  16.610  24.916  0.00  0.00     0.028 H 
ATOM     41  H17 non d ame     -31.224  17.398  25.704  0.00  0.00     0.028 H 
ATOM     42  H18 non d ame     -32.041  16.031  26.499  0.00  0.00     0.028 H 
ENDBRANCH  33  39
ENDBRANCH   7  33
ENDBRANCH   4   7
ENDBRANCH   1   3
BRANCH   1  43
ATOM     43  C15 non d ame     -37.397  14.625  26.543  0.00  0.00     0.240 C 
ATOM     44  O5  non d ame     -38.485  14.188  26.734  0.00  0.00    -0.271 OA
ATOM     45  N6  non d ame     -36.269  13.700  26.235  0.00  0.00    -0.355 N 
ATOM     46  H46 non d ame     -35.341  14.061  26.067  0.00  0.00     0.162 HD
BRANCH  45  47
ATOM     47  C20 non d ame     -36.512  12.243  26.177  0.00  0.00     0.013 C 
ATOM     48  H30 non d ame     -37.477  12.045  26.643  0.00  0.00     0.072 H 
BRANCH  47  49
ATOM     49  C21 non d ame     -35.417  11.523  26.932  0.00  0.00    -0.038 C 
ATOM     50  H31 non d ame     -35.146  12.182  27.758  0.00  0.00     0.036 H 
ATOM     51  H32 non d ame     -35.806  10.525  27.135  0.00  0.00     0.036 H 
BRANCH  49  52
ATOM     52  C22 non d ame     -34.137  11.329  26.091  0.00  0.00     0.018 C 
ATOM     53  H33 non d ame     -33.716  10.376  26.408  0.00  0.00     0.048 H 
ATOM     54  H34 non d ame     -34.440  11.473  25.054  0.00  0.00     0.048 H 
BRANCH  52  55
ATOM     55  C23 non d ame     -33.039  12.394  26.367  0.00  0.00     0.259 C 
ATOM     56  O7  non d ame     -33.317  13.427  26.883  0.00  0.00    -0.265 OA
BRANCH  55  57
ATOM     57  O8  non d ame     -31.695  12.125  25.983  0.00  0.00    -0.317 OA
BRANCH  57  58
ATOM     58  C29 non d ame     -31.562  11.596  24.661  0.00  0.00     0.052 C 
ATOM     59  H47 non d ame     -30.942  10.705  24.761  0.00  0.00     0.082 H 
ATOM     60  H48 non d ame     -32.577  11.512  24.273  0.00  0.00     0.082 H 
BRANCH  58  61
ATOM     61  C35 non d ame     -30.794  12.636  23.804  0.00  0.00    -0.034 A 
ATOM     62  C30 non d ame     -30.829  13.984  24.147  0.00  0.00    -0.075 A 
ATOM     63  C31 non d ame     -30.139  14.919  23.377  0.00  0.00    -0.082 A 
ATOM     64  H49 non d ame     -31.398  14.308  25.019  0.00  0.00     0.084 H 
ATOM     65  C32 non d ame     -29.413  14.502  22.258  0.00  0.00    -0.083 A 
ATOM     66  H50 non d ame     -30.167  15.974  23.650  0.00  0.00     0.083 H 
ATOM     67  C33 non d ame     -29.383  13.156  21.917  0.00  0.00    -0.082 A 
ATOM     68  H51 non d ame     -28.870  15.226  21.651  0.00  0.00     0.083 H 
ATOM     69  C34 non d ame     -30.070  12.218  22.685  0.00  0.00    -0.075 A 
ATOM     70  H52 non d ame     -28.818  12.835  21.042  0.00  0.00     0.083 H 
ATOM     71  H53 non d ame     -30.041  11.163  22.412  0.00  0.00     0.084 H 
ENDBRANCH  58  61
ENDBRANCH  57  58
ENDBRANCH  55  57
ENDBRANCH  52  55
ENDBRANCH  49  52
ENDBRANCH  47  49
BRANCH  47  72
ATOM     72  C24 non d ame     -36.519  11.778  24.723  0.00  0.00    -0.039 C 
ATOM     73  H35 non d ame     -35.852  12.462  24.196  0.00  0.00     0.036 H 
ATOM     74  H36 non d ame     -36.289  10.713  24.757  0.00  0.00     0.036 H 
BRANCH  72  75
ATOM     75  C25 non d ame     -37.969  11.927  24.060  0.00  0.00    -0.001 C 
ATOM     76  C26 non d ame     -38.403  10.515  23.337  0.00  0.00    -0.035 C 
ATOM     77  C27 non d ame     -38.792  10.777  22.066  0.00  0.00     0.085 C 
ATOM     78  H38 non d ame     -37.530   9.876  23.211  0.00  0.00     0.036 H 
ATOM     79  H39 non d ame     -39.306  10.119  23.803  0.00  0.00     0.036 H 
ATOM     80  N5  non d ame     -38.353  12.186  21.752  0.00  0.00    -0.049 N 
ATOM     81  H40 non d ame     -38.230  10.082  21.442  0.00  0.00     0.075 H 
ATOM     82  H41 non d ame     -39.880  10.738  22.081  0.00  0.00     0.075 H 
ATOM     83  C28 non d ame     -37.982  12.863  23.170  0.00  0.00     0.193 C 
ATOM     84  H42 non d ame     -37.509  12.108  21.202  0.00  0.00     0.280 HD
ATOM     85  H43 non d ame     -39.161  12.659  21.371  0.00  0.00     0.280 HD
ATOM     86  H44 non d ame     -38.663  13.573  23.639  0.00  0.00     0.129 H 
ATOM     87  H37 non d ame     -38.691  12.378  24.742  0.00  0.00     0.046 H 
BRANCH  83  88
ATOM     88  O6  non d ame     -36.727  13.539  23.080  0.00  0.00    -0.369 OA
ATOM     89  H45 non d ame     -36.367  13.665  23.961  0.00  0.00     0.212 HD
ENDBRANCH  83  88
ENDBRANCH  72  75
ENDBRANCH  47  72
ENDBRANCH  45  47
ENDBRANCH   1  43
BRANCH   1  90
ATOM     90  C16 non d ame     -37.710  16.816  25.350  0.00  0.00    -0.035 C 
ATOM     91  H21 non d ame     -37.327  16.220  24.522  0.00  0.00     0.037 H 
ATOM     92  H22 non d ame     -38.785  16.896  25.514  0.00  0.00     0.037 H 
BRANCH  90  93
ATOM     93  C17 non d ame     -37.190  18.271  25.122  0.00  0.00    -0.059 C 
ATOM     94  H23 non d ame     -36.110  18.263  25.270  0.00  0.00     0.038 H 
BRANCH  93  95
ATOM     95  C18 non d ame     -37.468  18.776  23.670  0.00  0.00    -0.073 C 
ATOM     96  H24 non d ame     -36.532  19.090  23.209  0.00  0.00     0.028 H 
ATOM     97  H25 non d ame     -37.908  17.970  23.083  0.00  0.00     0.028 H 
ATOM     98  H26 non d ame     -38.157  19.619  23.704  0.00  0.00     0.028 H 
ENDBRANCH  93  95
BRANCH  93  99
ATOM     99  C19 non d ame     -37.783  19.232  26.156  0.00  0.00    -0.073 C 
ATOM    100  H27 non d ame     -38.032  18.682  27.063  0.00  0.00     0.028 H 
ATOM    101  H28 non d ame     -37.055  20.009  26.391  0.00  0.00     0.028 H 
ATOM    102  H29 non d ame     -38.684  19.691  25.750  0.00  0.00     0.028 H 
ENDBRANCH  93  99
ENDBRANCH  90  93
ENDBRANCH   1  90
TORSDOF 26
ENDMDL
MODEL 10
REMARK VINA RESULT:      -6.8      2.599      6.743
REMARK  26 active torsions:
REMARK  status: ('A' for Active; 'I' for Inactive)
REMARK    1  A    between atoms: C2_2  and  C3_3 
REMARK    2  A    between atoms: C4_6  and  C5_7 
REMARK       I    between atoms: C5_7  and  N2_9 
REMARK    3  A    between atoms: N2_9  and  C6_10 
REMARK    4  A    between atoms: C6_10  and  C7_11 
REMARK    5  A    between atoms: C6_10  and  C8_13 
REMARK       I    between atoms: C7_11  and  N3_14 
REMARK    6  A    between atoms: N3_14  and  C9_15 
REMARK    7  A    between atoms: C9_15  and  C10_16 
REMARK    8  A    between atoms: C9_15  and  C11_18 
REMARK       I    between atoms: C10_16  and  N4_21 
REMARK    9  A    between atoms: C11_18  and  C12_19 
REMARK   10  A    between atoms: C11_18  and  C13_20 
REMARK   11  A    between atoms: N4_21  and  C14_22 
REMARK   12  A    between atoms: C14_22  and  C15_23 
REMARK   13  A    between atoms: C14_22  and  C16_25 
REMARK       I    between atoms: C15_23  and  N6_40 
REMARK   14  A    between atoms: C16_25  and  C17_26 
REMARK   15  A    between atoms: C17_26  and  C18_27 
REMARK   16  A    between atoms: C17_26  and  C19_28 
REMARK   17  A    between atoms: C20_29  and  C21_30 
REMARK   18  A    between atoms: C20_29  and  C24_33 
REMARK   19  A    between atoms: C20_29  and  N6_40 
REMARK   20  A    between atoms: C21_30  and  C22_31 
REMARK   21  A    between atoms: C22_31  and  C23_32 
REMARK   22  A    between atoms: C23_32  and  O8_43 
REMARK   23  A    between atoms: C24_33  and  C25_34 
REMARK   24  A    between atoms: C28_38  and  O6_39 
REMARK   25  A    between atoms: C29_42  and  O8_43 
REMARK   26  A    between atoms: C29_42  and  C35_49 
ROOT
ATOM      1  C14 non d ame     -32.065   9.441  24.298  0.00  0.00     0.089 C 
ATOM      2  H20 non d ame     -31.576   8.585  24.763  0.00  0.00     0.087 H 
ENDROOT
BRANCH   1   3
ATOM      3  N4  non d ame     -33.430   9.493  24.801  0.00  0.00    -0.346 N 
ATOM      4  C10 non d ame     -34.026   8.304  25.512  0.00  0.00     0.241 C 
ATOM      5  O4  non d ame     -33.388   7.314  25.664  0.00  0.00    -0.271 OA
ATOM      6  H19 non d ame     -33.956  10.343  24.659  0.00  0.00     0.163 HD
BRANCH   4   7
ATOM      7  C9  non d ame     -35.437   8.377  26.031  0.00  0.00     0.092 C 
ATOM      8  H11 non d ame     -35.756   7.383  26.344  0.00  0.00     0.088 H 
BRANCH   7   9
ATOM      9  N3  non d ame     -35.478   9.239  27.216  0.00  0.00    -0.346 N 
ATOM     10  C7  non d ame     -35.855   8.688  28.495  0.00  0.00     0.240 C 
ATOM     11  O3  non d ame     -36.130   7.554  28.588  0.00  0.00    -0.271 OA
ATOM     12  H10 non d ame     -35.246  10.220  27.151  0.00  0.00     0.163 HD
BRANCH  10  13
ATOM     13  C6  non d ame     -35.900   9.611  29.752  0.00  0.00     0.086 C 
ATOM     14  H6  non d ame     -35.719   9.069  30.680  0.00  0.00     0.086 H 
BRANCH  13  15
ATOM     15  N2  non d ame     -34.848  10.608  29.642  0.00  0.00    -0.343 N 
ATOM     16  C5  non d ame     -33.705  10.555  30.556  0.00  0.00     0.273 C 
ATOM     17  O2  non d ame     -33.642   9.708  31.378  0.00  0.00    -0.266 OA
ATOM     18  H5  non d ame     -34.911  11.331  28.939  0.00  0.00     0.163 HD
BRANCH  16  19
ATOM     19  C4  non d ame     -32.586  11.602  30.450  0.00  0.00     0.154 A 
ATOM     20  C1  non d ame     -32.680  12.915  29.889  0.00  0.00    -0.017 A 
ATOM     21  C2  non d ame     -31.387  13.467  30.035  0.00  0.00     0.077 A 
ATOM     22  H1  non d ame     -33.552  13.395  29.444  0.00  0.00     0.091 H 
ATOM     23  O1  non d ame     -30.646  12.568  30.615  0.00  0.00    -0.218 OA
ATOM     24  N1  non d ame     -31.323  11.472  30.867  0.00  0.00    -0.123 NA
BRANCH  21  25
ATOM     25  C3  non d ame     -30.945  14.856  29.596  0.00  0.00    -0.029 C 
ATOM     26  H2  non d ame     -31.490  15.608  30.166  0.00  0.00     0.036 H 
ATOM     27  H3  non d ame     -29.876  14.970  29.775  0.00  0.00     0.036 H 
ATOM     28  H4  non d ame     -31.151  14.985  28.534  0.00  0.00     0.036 H 
ENDBRANCH  21  25
ENDBRANCH  16  19
ENDBRANCH  13  15
BRANCH  13  29
ATOM     29  C8  non d ame     -37.245  10.286  29.836  0.00  0.00    -0.049 C 
ATOM     30  H7  non d ame     -37.530  10.652  28.849  0.00  0.00     0.030 H 
ATOM     31  H8  non d ame     -37.989   9.571  30.187  0.00  0.00     0.030 H 
ATOM     32  H9  non d ame     -37.189  11.123  30.532  0.00  0.00     0.030 H 
ENDBRANCH  13  29
ENDBRANCH  10  13
ENDBRANCH   7   9
BRANCH   7  33
ATOM     33  C11 non d ame     -36.365   8.969  24.930  0.00  0.00    -0.033 C 
ATOM     34  H12 non d ame     -35.900   9.886  24.567  0.00  0.00     0.042 H 
BRANCH  33  35
ATOM     35  C12 non d ame     -36.498   7.998  23.716  0.00  0.00    -0.071 C 
ATOM     36  H13 non d ame     -37.472   8.135  23.246  0.00  0.00     0.028 H 
ATOM     37  H14 non d ame     -35.712   8.212  22.992  0.00  0.00     0.028 H 
ATOM     38  H15 non d ame     -36.404   6.969  24.062  0.00  0.00     0.028 H 
ENDBRANCH  33  35
BRANCH  33  39
ATOM     39  C13 non d ame     -37.765   9.338  25.517  0.00  0.00    -0.071 C 
ATOM     40  H16 non d ame     -38.349   8.428  25.662  0.00  0.00     0.028 H 
ATOM     41  H17 non d ame     -37.637   9.844  26.474  0.00  0.00     0.028 H 
ATOM     42  H18 non d ame     -38.287   9.998  24.825  0.00  0.00     0.028 H 
ENDBRANCH  33  39
ENDBRANCH   7  33
ENDBRANCH   4   7
ENDBRANCH   1   3
BRANCH   1  43
ATOM     43  C15 non d ame     -31.358  10.782  24.645  0.00  0.00     0.240 C 
ATOM     44  O5  non d ame     -30.890  10.941  25.725  0.00  0.00    -0.271 OA
ATOM     45  N6  non d ame     -31.256  11.866  23.626  0.00  0.00    -0.355 N 
ATOM     46  H46 non d ame     -31.646  11.740  22.703  0.00  0.00     0.162 HD
BRANCH  45  47
ATOM     47  C20 non d ame     -30.579  13.134  23.971  0.00  0.00     0.013 C 
ATOM     48  H30 non d ame     -29.912  12.941  24.810  0.00  0.00     0.072 H 
BRANCH  47  49
ATOM     49  C21 non d ame     -31.616  14.164  24.361  0.00  0.00    -0.038 C 
ATOM     50  H31 non d ame     -31.257  15.111  23.957  0.00  0.00     0.036 H 
ATOM     51  H32 non d ame     -32.572  13.758  24.031  0.00  0.00     0.036 H 
BRANCH  49  52
ATOM     52  C22 non d ame     -31.726  14.354  25.889  0.00  0.00     0.018 C 
ATOM     53  H33 non d ame     -31.041  13.628  26.327  0.00  0.00     0.048 H 
ATOM     54  H34 non d ame     -31.576  15.420  26.066  0.00  0.00     0.048 H 
BRANCH  52  55
ATOM     55  C23 non d ame     -33.130  14.018  26.463  0.00  0.00     0.259 C 
ATOM     56  O7  non d ame     -33.631  12.961  26.252  0.00  0.00    -0.265 OA
BRANCH  55  57
ATOM     57  O8  non d ame     -33.820  14.995  27.234  0.00  0.00    -0.317 OA
BRANCH  57  58
ATOM     58  C29 non d ame     -34.501  15.980  26.452  0.00  0.00     0.052 C 
ATOM     59  H47 non d ame     -34.332  15.699  25.413  0.00  0.00     0.082 H 
ATOM     60  H48 non d ame     -35.515  16.021  26.848  0.00  0.00     0.082 H 
BRANCH  58  61
ATOM     61  C35 non d ame     -33.818  17.350  26.708  0.00  0.00    -0.034 A 
ATOM     62  C30 non d ame     -33.189  17.599  27.924  0.00  0.00    -0.075 A 
ATOM     63  C31 non d ame     -32.576  18.830  28.153  0.00  0.00    -0.082 A 
ATOM     64  H49 non d ame     -33.177  16.830  28.697  0.00  0.00     0.084 H 
ATOM     65  C32 non d ame     -32.596  19.815  27.162  0.00  0.00    -0.083 A 
ATOM     66  H50 non d ame     -32.083  19.021  29.107  0.00  0.00     0.083 H 
ATOM     67  C33 non d ame     -33.227  19.563  25.952  0.00  0.00    -0.082 A 
ATOM     68  H51 non d ame     -32.118  20.780  27.334  0.00  0.00     0.083 H 
ATOM     69  C34 non d ame     -33.839  18.333  25.717  0.00  0.00    -0.075 A 
ATOM     70  H52 non d ame     -33.242  20.334  25.182  0.00  0.00     0.083 H 
ATOM     71  H53 non d ame     -34.332  18.143  24.764  0.00  0.00     0.084 H 
ENDBRANCH  58  61
ENDBRANCH  57  58
ENDBRANCH  55  57
ENDBRANCH  52  55
ENDBRANCH  49  52
ENDBRANCH  47  49
BRANCH  47  72
ATOM     72  C24 non d ame     -29.786  13.640  22.768  0.00  0.00    -0.039 C 
ATOM     73  H35 non d ame     -28.793  13.874  23.153  0.00  0.00     0.036 H 
ATOM     74  H36 non d ame     -29.906  12.877  21.999  0.00  0.00     0.036 H 
BRANCH  72  75
ATOM     75  C25 non d ame     -30.398  15.000  22.183  0.00  0.00    -0.001 C 
ATOM     76  C26 non d ame     -31.031  14.733  20.689  0.00  0.00    -0.035 C 
ATOM     77  C27 non d ame     -30.528  15.654  19.832  0.00  0.00     0.085 C 
ATOM     78  H38 non d ame     -30.663  13.787  20.292  0.00  0.00     0.036 H 
ATOM     79  H39 non d ame     -32.100  14.945  20.692  0.00  0.00     0.036 H 
ATOM     80  N5  non d ame     -29.365  16.317  20.528  0.00  0.00    -0.049 N 
ATOM     81  H40 non d ame     -30.155  15.085  18.980  0.00  0.00     0.075 H 
ATOM     82  H41 non d ame     -31.323  16.386  19.692  0.00  0.00     0.075 H 
ATOM     83  C28 non d ame     -29.494  15.917  22.087  0.00  0.00     0.193 C 
ATOM     84  H42 non d ame     -28.528  15.893  20.155  0.00  0.00     0.280 HD
ATOM     85  H43 non d ame     -29.509  17.313  20.439  0.00  0.00     0.280 HD
ATOM     86  H44 non d ame     -29.864  16.638  22.815  0.00  0.00     0.129 H 
ATOM     87  H37 non d ame     -31.034  15.511  22.907  0.00  0.00     0.046 H 
BRANCH  83  88
ATOM     88  O6  non d ame     -28.229  15.481  22.590  0.00  0.00    -0.369 OA
ATOM     89  H45 non d ame     -27.611  16.216  22.582  0.00  0.00     0.212 HD
ENDBRANCH  83  88
ENDBRANCH  72  75
ENDBRANCH  47  72
ENDBRANCH  45  47
ENDBRANCH   1  43
BRANCH   1  90
ATOM     90  C16 non d ame     -32.100   9.256  22.789  0.00  0.00    -0.035 C 
ATOM     91  H21 non d ame     -33.067   8.802  22.576  0.00  0.00     0.037 H 
ATOM     92  H22 non d ame     -31.853  10.233  22.373  0.00  0.00     0.037 H 
BRANCH  90  93
ATOM     93  C17 non d ame     -31.019   8.263  22.254  0.00  0.00    -0.059 C 
ATOM     94  H23 non d ame     -31.378   7.863  21.306  0.00  0.00     0.038 H 
BRANCH  93  95
ATOM     95  C18 non d ame     -29.651   8.970  21.987  0.00  0.00    -0.073 C 
ATOM     96  H24 non d ame     -29.520   9.113  20.915  0.00  0.00     0.028 H 
ATOM     97  H25 non d ame     -29.638   9.938  22.487  0.00  0.00     0.028 H 
ATOM     98  H26 non d ame     -28.841   8.351  22.372  0.00  0.00     0.028 H 
ENDBRANCH  93  95
BRANCH  93  99
ATOM     99  C19 non d ame     -30.843   7.080  23.210  0.00  0.00    -0.073 C 
ATOM    100  H27 non d ame     -31.799   6.572  23.339  0.00  0.00     0.028 H 
ATOM    101  H28 non d ame     -30.114   6.383  22.796  0.00  0.00     0.028 H 
ATOM    102  H29 non d ame     -30.491   7.442  24.175  0.00  0.00     0.028 H 
ENDBRANCH  93  99
ENDBRANCH  90  93
ENDBRANCH   1  90
TORSDOF 26
ENDMDL
MODEL 11
REMARK VINA RESULT:      -6.8      1.798      5.529
REMARK  26 active torsions:
REMARK  status: ('A' for Active; 'I' for Inactive)
REMARK    1  A    between atoms: C2_2  and  C3_3 
REMARK    2  A    between atoms: C4_6  and  C5_7 
REMARK       I    between atoms: C5_7  and  N2_9 
REMARK    3  A    between atoms: N2_9  and  C6_10 
REMARK    4  A    between atoms: C6_10  and  C7_11 
REMARK    5  A    between atoms: C6_10  and  C8_13 
REMARK       I    between atoms: C7_11  and  N3_14 
REMARK    6  A    between atoms: N3_14  and  C9_15 
REMARK    7  A    between atoms: C9_15  and  C10_16 
REMARK    8  A    between atoms: C9_15  and  C11_18 
REMARK       I    between atoms: C10_16  and  N4_21 
REMARK    9  A    between atoms: C11_18  and  C12_19 
REMARK   10  A    between atoms: C11_18  and  C13_20 
REMARK   11  A    between atoms: N4_21  and  C14_22 
REMARK   12  A    between atoms: C14_22  and  C15_23 
REMARK   13  A    between atoms: C14_22  and  C16_25 
REMARK       I    between atoms: C15_23  and  N6_40 
REMARK   14  A    between atoms: C16_25  and  C17_26 
REMARK   15  A    between atoms: C17_26  and  C18_27 
REMARK   16  A    between atoms: C17_26  and  C19_28 
REMARK   17  A    between atoms: C20_29  and  C21_30 
REMARK   18  A    between atoms: C20_29  and  C24_33 
REMARK   19  A    between atoms: C20_29  and  N6_40 
REMARK   20  A    between atoms: C21_30  and  C22_31 
REMARK   21  A    between atoms: C22_31  and  C23_32 
REMARK   22  A    between atoms: C23_32  and  O8_43 
REMARK   23  A    between atoms: C24_33  and  C25_34 
REMARK   24  A    between atoms: C28_38  and  O6_39 
REMARK   25  A    between atoms: C29_42  and  O8_43 
REMARK   26  A    between atoms: C29_42  and  C35_49 
ROOT
ATOM      1  C14 non d ame     -32.416   9.916  24.652  0.00  0.00     0.089 C 
ATOM      2  H20 non d ame     -32.198   9.098  25.340  0.00  0.00     0.087 H 
ENDROOT
BRANCH   1   3
ATOM      3  N4  non d ame     -33.797  10.318  24.874  0.00  0.00    -0.346 N 
ATOM      4  C10 non d ame     -34.450  10.095  26.215  0.00  0.00     0.241 C 
ATOM      5  O4  non d ame     -33.844   9.588  27.100  0.00  0.00    -0.271 OA
ATOM      6  H19 non d ame     -34.297  10.746  24.107  0.00  0.00     0.163 HD
BRANCH   4   7
ATOM      7  C9  non d ame     -35.878  10.523  26.428  0.00  0.00     0.092 C 
ATOM      8  H11 non d ame     -36.031  10.750  27.483  0.00  0.00     0.088 H 
BRANCH   7   9
ATOM      9  N3  non d ame     -36.137  11.755  25.678  0.00  0.00    -0.346 N 
ATOM     10  C7  non d ame     -36.970  12.785  26.249  0.00  0.00     0.240 C 
ATOM     11  O3  non d ame     -37.441  12.637  27.310  0.00  0.00    -0.271 OA
ATOM     12  H10 non d ame     -35.739  11.896  24.760  0.00  0.00     0.163 HD
BRANCH  10  13
ATOM     13  C6  non d ame     -37.245  14.093  25.444  0.00  0.00     0.086 C 
ATOM     14  H6  non d ame     -38.218  14.530  25.669  0.00  0.00     0.086 H 
BRANCH  13  15
ATOM     15  N2  non d ame     -36.249  15.087  25.807  0.00  0.00    -0.343 N 
ATOM     16  C5  non d ame     -36.580  16.112  26.799  0.00  0.00     0.273 C 
ATOM     17  O2  non d ame     -37.652  16.130  27.298  0.00  0.00    -0.266 OA
ATOM     18  H5  non d ame     -35.336  15.067  25.374  0.00  0.00     0.163 HD
BRANCH  16  19
ATOM     19  C4  non d ame     -35.536  17.169  27.194  0.00  0.00     0.154 A 
ATOM     20  C1  non d ame     -34.495  17.705  26.371  0.00  0.00    -0.017 A 
ATOM     21  C2  non d ame     -33.820  18.631  27.196  0.00  0.00     0.077 A 
ATOM     22  H1  non d ame     -34.265  17.459  25.334  0.00  0.00     0.091 H 
ATOM     23  O1  non d ame     -34.413  18.622  28.354  0.00  0.00    -0.218 OA
ATOM     24  N1  non d ame     -35.417  17.776  28.377  0.00  0.00    -0.123 NA
BRANCH  21  25
ATOM     25  C3  non d ame     -32.621  19.484  26.802  0.00  0.00    -0.029 C 
ATOM     26  H2  non d ame     -32.633  19.652  25.726  0.00  0.00     0.036 H 
ATOM     27  H3  non d ame     -32.671  20.442  27.319  0.00  0.00     0.036 H 
ATOM     28  H4  non d ame     -31.702  18.969  27.079  0.00  0.00     0.036 H 
ENDBRANCH  21  25
ENDBRANCH  16  19
ENDBRANCH  13  15
BRANCH  13  29
ATOM     29  C8  non d ame     -37.170  13.803  23.967  0.00  0.00    -0.049 C 
ATOM     30  H7  non d ame     -38.177  13.787  23.548  0.00  0.00     0.030 H 
ATOM     31  H8  non d ame     -36.584  14.577  23.473  0.00  0.00     0.030 H 
ATOM     32  H9  non d ame     -36.697  12.833  23.810  0.00  0.00     0.030 H 
ENDBRANCH  13  29
ENDBRANCH  10  13
ENDBRANCH   7   9
BRANCH   7  33
ATOM     33  C11 non d ame     -36.835   9.402  25.926  0.00  0.00    -0.033 C 
ATOM     34  H12 non d ame     -36.262   8.476  25.881  0.00  0.00     0.042 H 
BRANCH  33  35
ATOM     35  C12 non d ame     -38.017   9.175  26.920  0.00  0.00    -0.071 C 
ATOM     36  H13 non d ame     -38.814   8.627  26.418  0.00  0.00     0.028 H 
ATOM     37  H14 non d ame     -37.665   8.602  27.777  0.00  0.00     0.028 H 
ATOM     38  H15 non d ame     -38.397  10.139  27.258  0.00  0.00     0.028 H 
ENDBRANCH  33  35
BRANCH  33  39
ATOM     39  C13 non d ame     -37.358   9.716  24.487  0.00  0.00    -0.071 C 
ATOM     40  H16 non d ame     -38.400   9.408  24.404  0.00  0.00     0.028 H 
ATOM     41  H17 non d ame     -37.280  10.788  24.298  0.00  0.00     0.028 H 
ATOM     42  H18 non d ame     -36.758   9.174  23.756  0.00  0.00     0.028 H 
ENDBRANCH  33  39
ENDBRANCH   7  33
ENDBRANCH   4   7
ENDBRANCH   1   3
BRANCH   1  43
ATOM     43  C15 non d ame     -31.497  11.147  24.894  0.00  0.00     0.240 C 
ATOM     44  O5  non d ame     -30.801  11.186  25.856  0.00  0.00    -0.271 OA
ATOM     45  N6  non d ame     -31.479  12.276  23.920  0.00  0.00    -0.355 N 
ATOM     46  H46 non d ame     -32.062  12.253  23.096  0.00  0.00     0.162 HD
BRANCH  45  47
ATOM     47  C20 non d ame     -30.598  13.439  24.163  0.00  0.00     0.013 C 
ATOM     48  H30 non d ame     -29.903  13.173  24.959  0.00  0.00     0.072 H 
BRANCH  47  49
ATOM     49  C21 non d ame     -31.439  14.622  24.586  0.00  0.00    -0.038 C 
ATOM     50  H31 non d ame     -30.829  15.504  24.387  0.00  0.00     0.036 H 
ATOM     51  H32 non d ame     -32.398  14.497  24.083  0.00  0.00     0.036 H 
BRANCH  49  52
ATOM     52  C22 non d ame     -31.739  14.633  26.101  0.00  0.00     0.018 C 
ATOM     53  H33 non d ame     -31.033  13.933  26.547  0.00  0.00     0.048 H 
ATOM     54  H34 non d ame     -31.729  15.682  26.397  0.00  0.00     0.048 H 
BRANCH  52  55
ATOM     55  C23 non d ame     -33.154  14.100  26.463  0.00  0.00     0.259 C 
ATOM     56  O7  non d ame     -33.751  13.410  25.701  0.00  0.00    -0.265 OA
BRANCH  55  57
ATOM     57  O8  non d ame     -33.735  14.457  27.711  0.00  0.00    -0.317 OA
BRANCH  57  58
ATOM     58  C29 non d ame     -32.785  14.869  28.698  0.00  0.00     0.052 C 
ATOM     59  H47 non d ame     -31.934  15.262  28.143  0.00  0.00     0.082 H 
ATOM     60  H48 non d ame     -33.333  15.515  29.384  0.00  0.00     0.082 H 
BRANCH  58  61
ATOM     61  C35 non d ame     -32.325  13.607  29.475  0.00  0.00    -0.034 A 
ATOM     62  C30 non d ame     -31.107  13.609  30.148  0.00  0.00    -0.075 A 
ATOM     63  C31 non d ame     -30.693  12.475  30.846  0.00  0.00    -0.082 A 
ATOM     64  H49 non d ame     -30.477  14.498  30.129  0.00  0.00     0.084 H 
ATOM     65  C32 non d ame     -31.501  11.335  30.867  0.00  0.00    -0.083 A 
ATOM     66  H50 non d ame     -29.739  12.480  31.374  0.00  0.00     0.083 H 
ATOM     67  C33 non d ame     -32.713  11.337  30.192  0.00  0.00    -0.082 A 
ATOM     68  H51 non d ame     -31.185  10.445  31.411  0.00  0.00     0.083 H 
ATOM     69  C34 non d ame     -33.132  12.468  29.495  0.00  0.00    -0.075 A 
ATOM     70  H52 non d ame     -33.340  10.445  30.208  0.00  0.00     0.083 H 
ATOM     71  H53 non d ame     -34.087  12.462  28.967  0.00  0.00     0.084 H 
ENDBRANCH  58  61
ENDBRANCH  57  58
ENDBRANCH  55  57
ENDBRANCH  52  55
ENDBRANCH  49  52
ENDBRANCH  47  49
BRANCH  47  72
ATOM     72  C24 non d ame     -29.836  13.786  22.886  0.00  0.00    -0.039 C 
ATOM     73  H35 non d ame     -28.812  13.984  23.203  0.00  0.00     0.036 H 
ATOM     74  H36 non d ame     -30.044  12.970  22.193  0.00  0.00     0.036 H 
BRANCH  72  75
ATOM     75  C25 non d ame     -30.390  15.130  22.212  0.00  0.00    -0.001 C 
ATOM     76  C26 non d ame     -31.082  14.785  20.761  0.00  0.00    -0.035 C 
ATOM     77  C27 non d ame     -30.556  15.605  19.820  0.00  0.00     0.085 C 
ATOM     78  H38 non d ame     -30.781  13.791  20.430  0.00  0.00     0.036 H 
ATOM     79  H39 non d ame     -32.138  15.058  20.776  0.00  0.00     0.036 H 
ATOM     80  N5  non d ame     -29.337  16.252  20.431  0.00  0.00    -0.049 N 
ATOM     81  H40 non d ame     -30.242  14.951  19.006  0.00  0.00     0.075 H 
ATOM     82  H41 non d ame     -31.313  16.369  19.644  0.00  0.00     0.075 H 
ATOM     83  C28 non d ame     -29.439  15.982  22.019  0.00  0.00     0.193 C 
ATOM     84  H42 non d ame     -28.537  15.752  20.070  0.00  0.00     0.280 HD
ATOM     85  H43 non d ame     -29.428  17.245  20.266  0.00  0.00     0.280 HD
ATOM     86  H44 non d ame     -29.746  16.778  22.697  0.00  0.00     0.129 H 
ATOM     87  H37 non d ame     -30.973  15.732  22.909  0.00  0.00     0.046 H 
BRANCH  83  88
ATOM     88  O6  non d ame     -28.186  15.514  22.521  0.00  0.00    -0.369 OA
ATOM     89  H45 non d ame     -27.477  15.826  21.953  0.00  0.00     0.212 HD
ENDBRANCH  83  88
ENDBRANCH  72  75
ENDBRANCH  47  72
ENDBRANCH  45  47
ENDBRANCH   1  43
BRANCH   1  90
ATOM     90  C16 non d ame     -32.263   9.437  23.218  0.00  0.00    -0.035 C 
ATOM     91  H21 non d ame     -33.110   8.775  23.042  0.00  0.00     0.037 H 
ATOM     92  H22 non d ame     -32.146  10.342  22.622  0.00  0.00     0.037 H 
BRANCH  90  93
ATOM     93  C17 non d ame     -30.979   8.581  22.977  0.00  0.00    -0.059 C 
ATOM     94  H23 non d ame     -30.500   8.424  23.943  0.00  0.00     0.038 H 
BRANCH  93  95
ATOM     95  C18 non d ame     -31.310   7.178  22.375  0.00  0.00    -0.073 C 
ATOM     96  H24 non d ame     -31.324   6.435  23.172  0.00  0.00     0.028 H 
ATOM     97  H25 non d ame     -32.286   7.210  21.892  0.00  0.00     0.028 H 
ATOM     98  H26 non d ame     -30.551   6.909  21.641  0.00  0.00     0.028 H 
ENDBRANCH  93  95
BRANCH  93  99
ATOM     99  C19 non d ame     -29.980   9.331  22.091  0.00  0.00    -0.073 C 
ATOM    100  H27 non d ame     -30.263  10.383  22.034  0.00  0.00     0.028 H 
ATOM    101  H28 non d ame     -28.981   9.247  22.519  0.00  0.00     0.028 H 
ATOM    102  H29 non d ame     -29.984   8.899  21.091  0.00  0.00     0.028 H 
ENDBRANCH  93  99
ENDBRANCH  90  93
ENDBRANCH   1  90
TORSDOF 26
ENDMDL
MODEL 12
REMARK VINA RESULT:      -6.7      2.358      7.440
REMARK  26 active torsions:
REMARK  status: ('A' for Active; 'I' for Inactive)
REMARK    1  A    between atoms: C2_2  and  C3_3 
REMARK    2  A    between atoms: C4_6  and  C5_7 
REMARK       I    between atoms: C5_7  and  N2_9 
REMARK    3  A    between atoms: N2_9  and  C6_10 
REMARK    4  A    between atoms: C6_10  and  C7_11 
REMARK    5  A    between atoms: C6_10  and  C8_13 
REMARK       I    between atoms: C7_11  and  N3_14 
REMARK    6  A    between atoms: N3_14  and  C9_15 
REMARK    7  A    between atoms: C9_15  and  C10_16 
REMARK    8  A    between atoms: C9_15  and  C11_18 
REMARK       I    between atoms: C10_16  and  N4_21 
REMARK    9  A    between atoms: C11_18  and  C12_19 
REMARK   10  A    between atoms: C11_18  and  C13_20 
REMARK   11  A    between atoms: N4_21  and  C14_22 
REMARK   12  A    between atoms: C14_22  and  C15_23 
REMARK   13  A    between atoms: C14_22  and  C16_25 
REMARK       I    between atoms: C15_23  and  N6_40 
REMARK   14  A    between atoms: C16_25  and  C17_26 
REMARK   15  A    between atoms: C17_26  and  C18_27 
REMARK   16  A    between atoms: C17_26  and  C19_28 
REMARK   17  A    between atoms: C20_29  and  C21_30 
REMARK   18  A    between atoms: C20_29  and  C24_33 
REMARK   19  A    between atoms: C20_29  and  N6_40 
REMARK   20  A    between atoms: C21_30  and  C22_31 
REMARK   21  A    between atoms: C22_31  and  C23_32 
REMARK   22  A    between atoms: C23_32  and  O8_43 
REMARK   23  A    between atoms: C24_33  and  C25_34 
REMARK   24  A    between atoms: C28_38  and  O6_39 
REMARK   25  A    between atoms: C29_42  and  O8_43 
REMARK   26  A    between atoms: C29_42  and  C35_49 
ROOT
ATOM      1  C14 non d ame     -32.964  12.052  28.794  0.00  0.00     0.089 C 
ATOM      2  H20 non d ame     -33.120  12.413  29.810  0.00  0.00     0.087 H 
ENDROOT
BRANCH   1   3
ATOM      3  N4  non d ame     -33.693  10.800  28.656  0.00  0.00    -0.346 N 
ATOM      4  C10 non d ame     -33.855   9.879  29.839  0.00  0.00     0.241 C 
ATOM      5  O4  non d ame     -33.387  10.166  30.891  0.00  0.00    -0.271 OA
ATOM      6  H19 non d ame     -34.082  10.574  27.751  0.00  0.00     0.163 HD
BRANCH   4   7
ATOM      7  C9  non d ame     -34.617   8.590  29.680  0.00  0.00     0.092 C 
ATOM      8  H11 non d ame     -35.552   8.789  29.156  0.00  0.00     0.088 H 
BRANCH   7   9
ATOM      9  N3  non d ame     -33.843   7.663  28.849  0.00  0.00    -0.346 N 
ATOM     10  C7  non d ame     -34.074   7.606  27.426  0.00  0.00     0.240 C 
ATOM     11  O3  non d ame     -34.880   8.298  26.934  0.00  0.00    -0.271 OA
ATOM     12  H10 non d ame     -33.146   7.059  29.259  0.00  0.00     0.163 HD
BRANCH  10  13
ATOM     13  C6  non d ame     -33.249   6.616  26.547  0.00  0.00     0.086 C 
ATOM     14  H6  non d ame     -33.866   6.074  25.831  0.00  0.00     0.086 H 
BRANCH  13  15
ATOM     15  N2  non d ame     -32.277   7.369  25.773  0.00  0.00    -0.343 N 
ATOM     16  C5  non d ame     -32.600   7.766  24.401  0.00  0.00     0.273 C 
ATOM     17  O2  non d ame     -33.642   7.471  23.928  0.00  0.00    -0.266 OA
ATOM     18  H5  non d ame     -31.388   7.615  26.184  0.00  0.00     0.163 HD
BRANCH  16  19
ATOM     19  C4  non d ame     -31.582   8.565  23.571  0.00  0.00     0.154 A 
ATOM     20  C1  non d ame     -31.368   9.979  23.594  0.00  0.00    -0.017 A 
ATOM     21  C2  non d ame     -30.334  10.205  22.658  0.00  0.00     0.077 A 
ATOM     22  H1  non d ame     -31.884  10.727  24.197  0.00  0.00     0.091 H 
ATOM     23  O1  non d ame     -30.000   9.050  22.163  0.00  0.00    -0.218 OA
ATOM     24  N1  non d ame     -30.714   8.077  22.680  0.00  0.00    -0.123 NA
BRANCH  21  25
ATOM     25  C3  non d ame     -29.723  11.553  22.298  0.00  0.00    -0.029 C 
ATOM     26  H2  non d ame     -29.907  11.766  21.245  0.00  0.00     0.036 H 
ATOM     27  H3  non d ame     -30.176  12.332  22.910  0.00  0.00     0.036 H 
ATOM     28  H4  non d ame     -28.649  11.526  22.480  0.00  0.00     0.036 H 
ENDBRANCH  21  25
ENDBRANCH  16  19
ENDBRANCH  13  15
BRANCH  13  29
ATOM     29  C8  non d ame     -32.544   5.621  27.434  0.00  0.00    -0.049 C 
ATOM     30  H7  non d ame     -31.476   5.837  27.444  0.00  0.00     0.030 H 
ATOM     31  H8  non d ame     -32.939   5.693  28.447  0.00  0.00     0.030 H 
ATOM     32  H9  non d ame     -32.707   4.613  27.051  0.00  0.00     0.030 H 
ENDBRANCH  13  29
ENDBRANCH  10  13
ENDBRANCH   7   9
BRANCH   7  33
ATOM     33  C11 non d ame     -34.855   7.952  31.080  0.00  0.00    -0.033 C 
ATOM     34  H12 non d ame     -34.024   8.247  31.721  0.00  0.00     0.042 H 
BRANCH  33  35
ATOM     35  C12 non d ame     -36.166   8.491  31.735  0.00  0.00    -0.071 C 
ATOM     36  H13 non d ame     -37.008   8.306  31.067  0.00  0.00     0.028 H 
ATOM     37  H14 non d ame     -36.334   7.980  32.682  0.00  0.00     0.028 H 
ATOM     38  H15 non d ame     -36.070   9.562  31.911  0.00  0.00     0.028 H 
ENDBRANCH  33  35
BRANCH  33  39
ATOM     39  C13 non d ame     -34.867   6.392  30.989  0.00  0.00    -0.071 C 
ATOM     40  H16 non d ame     -35.307   5.979  31.897  0.00  0.00     0.028 H 
ATOM     41  H17 non d ame     -35.456   6.083  30.126  0.00  0.00     0.028 H 
ATOM     42  H18 non d ame     -33.846   6.027  30.881  0.00  0.00     0.028 H 
ENDBRANCH  33  39
ENDBRANCH   7  33
ENDBRANCH   4   7
ENDBRANCH   1   3
BRANCH   1  43
ATOM     43  C15 non d ame     -33.493  13.054  27.727  0.00  0.00     0.240 C 
ATOM     44  O5  non d ame     -33.428  12.777  26.573  0.00  0.00    -0.271 OA
ATOM     45  N6  non d ame     -34.090  14.354  28.145  0.00  0.00    -0.355 N 
ATOM     46  H46 non d ame     -34.155  14.598  29.123  0.00  0.00     0.162 HD
BRANCH  45  47
ATOM     47  C20 non d ame     -34.590  15.295  27.119  0.00  0.00     0.013 C 
ATOM     48  H30 non d ame     -34.066  15.083  26.187  0.00  0.00     0.072 H 
BRANCH  47  49
ATOM     49  C21 non d ame     -34.306  16.713  27.560  0.00  0.00    -0.038 C 
ATOM     50  H31 non d ame     -34.851  17.352  26.866  0.00  0.00     0.036 H 
ATOM     51  H32 non d ame     -34.538  16.741  28.625  0.00  0.00     0.036 H 
BRANCH  49  52
ATOM     52  C22 non d ame     -32.816  17.095  27.428  0.00  0.00     0.018 C 
ATOM     53  H33 non d ame     -32.751  18.139  27.732  0.00  0.00     0.048 H 
ATOM     54  H34 non d ame     -32.265  16.331  27.978  0.00  0.00     0.048 H 
BRANCH  52  55
ATOM     55  C23 non d ame     -32.282  17.040  25.969  0.00  0.00     0.259 C 
ATOM     56  O7  non d ame     -32.849  17.616  25.098  0.00  0.00    -0.265 OA
BRANCH  55  57
ATOM     57  O8  non d ame     -31.114  16.281  25.683  0.00  0.00    -0.317 OA
BRANCH  57  58
ATOM     58  C29 non d ame     -31.369  15.064  24.975  0.00  0.00     0.052 C 
ATOM     59  H47 non d ame     -30.813  14.292  25.507  0.00  0.00     0.082 H 
ATOM     60  H48 non d ame     -32.453  14.994  24.890  0.00  0.00     0.082 H 
BRANCH  58  61
ATOM     61  C35 non d ame     -30.773  15.206  23.549  0.00  0.00    -0.034 A 
ATOM     62  C30 non d ame     -29.394  15.180  23.365  0.00  0.00    -0.075 A 
ATOM     63  C31 non d ame     -28.858  15.307  22.084  0.00  0.00    -0.082 A 
ATOM     64  H49 non d ame     -28.733  15.060  24.224  0.00  0.00     0.084 H 
ATOM     65  C32 non d ame     -29.707  15.463  20.985  0.00  0.00    -0.083 A 
ATOM     66  H50 non d ame     -27.777  15.284  21.943  0.00  0.00     0.083 H 
ATOM     67  C33 non d ame     -31.082  15.492  21.174  0.00  0.00    -0.082 A 
ATOM     68  H51 non d ame     -29.296  15.563  19.980  0.00  0.00     0.083 H 
ATOM     69  C34 non d ame     -31.622  15.363  22.452  0.00  0.00    -0.075 A 
ATOM     70  H52 non d ame     -31.741  15.617  20.315  0.00  0.00     0.083 H 
ATOM     71  H53 non d ame     -32.703  15.386  22.593  0.00  0.00     0.084 H 
ENDBRANCH  58  61
ENDBRANCH  57  58
ENDBRANCH  55  57
ENDBRANCH  52  55
ENDBRANCH  49  52
ENDBRANCH  47  49
BRANCH  47  72
ATOM     72  C24 non d ame     -36.095  15.109  26.937  0.00  0.00    -0.039 C 
ATOM     73  H35 non d ame     -36.418  14.513  27.791  0.00  0.00     0.036 H 
ATOM     74  H36 non d ame     -36.495  16.111  26.790  0.00  0.00     0.036 H 
BRANCH  72  75
ATOM     75  C25 non d ame     -36.432  14.266  25.617  0.00  0.00    -0.001 C 
ATOM     76  C26 non d ame     -37.542  15.070  24.708  0.00  0.00    -0.035 C 
ATOM     77  C27 non d ame     -38.559  14.225  24.413  0.00  0.00     0.085 C 
ATOM     78  H38 non d ame     -38.021  15.846  25.304  0.00  0.00     0.036 H 
ATOM     79  H39 non d ame     -37.121  15.313  23.733  0.00  0.00     0.036 H 
ATOM     80  N5  non d ame     -38.405  13.019  25.308  0.00  0.00    -0.049 N 
ATOM     81  H40 non d ame     -39.469  14.758  24.688  0.00  0.00     0.075 H 
ATOM     82  H41 non d ame     -38.395  13.923  23.379  0.00  0.00     0.075 H 
ATOM     83  C28 non d ame     -36.911  13.104  25.914  0.00  0.00     0.193 C 
ATOM     84  H42 non d ame     -39.065  13.136  26.062  0.00  0.00     0.280 HD
ATOM     85  H43 non d ame     -38.462  12.209  24.707  0.00  0.00     0.280 HD
ATOM     86  H44 non d ame     -36.120  12.460  25.530  0.00  0.00     0.129 H 
ATOM     87  H37 non d ame     -35.533  13.917  25.109  0.00  0.00     0.046 H 
BRANCH  83  88
ATOM     88  O6  non d ame     -36.938  12.876  27.325  0.00  0.00    -0.369 OA
ATOM     89  H45 non d ame     -36.254  12.246  27.560  0.00  0.00     0.212 HD
ENDBRANCH  83  88
ENDBRANCH  72  75
ENDBRANCH  47  72
ENDBRANCH  45  47
ENDBRANCH   1  43
BRANCH   1  90
ATOM     90  C16 non d ame     -31.484  11.793  28.561  0.00  0.00    -0.035 C 
ATOM     91  H21 non d ame     -31.312  10.774  28.907  0.00  0.00     0.037 H 
ATOM     92  H22 non d ame     -31.306  12.051  27.517  0.00  0.00     0.037 H 
BRANCH  90  93
ATOM     93  C17 non d ame     -30.546  12.711  29.408  0.00  0.00    -0.059 C 
ATOM     94  H23 non d ame     -29.571  12.227  29.462  0.00  0.00     0.038 H 
BRANCH  93  95
ATOM     95  C18 non d ame     -30.347  14.114  28.753  0.00  0.00    -0.073 C 
ATOM     96  H24 non d ame     -29.331  14.194  28.367  0.00  0.00     0.028 H 
ATOM     97  H25 non d ame     -31.056  14.238  27.934  0.00  0.00     0.028 H 
ATOM     98  H26 non d ame     -30.514  14.891  29.499  0.00  0.00     0.028 H 
ENDBRANCH  93  95
BRANCH  93  99
ATOM     99  C19 non d ame     -31.066  12.848  30.842  0.00  0.00    -0.073 C 
ATOM    100  H27 non d ame     -32.099  12.503  30.889  0.00  0.00     0.028 H 
ATOM    101  H28 non d ame     -30.451  12.245  31.511  0.00  0.00     0.028 H 
ATOM    102  H29 non d ame     -31.016  13.893  31.148  0.00  0.00     0.028 H 
ENDBRANCH  93  99
ENDBRANCH  90  93
ENDBRANCH   1  90
TORSDOF 26
ENDMDL
MODEL 13
REMARK VINA RESULT:      -6.7      3.268      8.472
REMARK  26 active torsions:
REMARK  status: ('A' for Active; 'I' for Inactive)
REMARK    1  A    between atoms: C2_2  and  C3_3 
REMARK    2  A    between atoms: C4_6  and  C5_7 
REMARK       I    between atoms: C5_7  and  N2_9 
REMARK    3  A    between atoms: N2_9  and  C6_10 
REMARK    4  A    between atoms: C6_10  and  C7_11 
REMARK    5  A    between atoms: C6_10  and  C8_13 
REMARK       I    between atoms: C7_11  and  N3_14 
REMARK    6  A    between atoms: N3_14  and  C9_15 
REMARK    7  A    between atoms: C9_15  and  C10_16 
REMARK    8  A    between atoms: C9_15  and  C11_18 
REMARK       I    between atoms: C10_16  and  N4_21 
REMARK    9  A    between atoms: C11_18  and  C12_19 
REMARK   10  A    between atoms: C11_18  and  C13_20 
REMARK   11  A    between atoms: N4_21  and  C14_22 
REMARK   12  A    between atoms: C14_22  and  C15_23 
REMARK   13  A    between atoms: C14_22  and  C16_25 
REMARK       I    between atoms: C15_23  and  N6_40 
REMARK   14  A    between atoms: C16_25  and  C17_26 
REMARK   15  A    between atoms: C17_26  and  C18_27 
REMARK   16  A    between atoms: C17_26  and  C19_28 
REMARK   17  A    between atoms: C20_29  and  C21_30 
REMARK   18  A    between atoms: C20_29  and  C24_33 
REMARK   19  A    between atoms: C20_29  and  N6_40 
REMARK   20  A    between atoms: C21_30  and  C22_31 
REMARK   21  A    between atoms: C22_31  and  C23_32 
REMARK   22  A    between atoms: C23_32  and  O8_43 
REMARK   23  A    between atoms: C24_33  and  C25_34 
REMARK   24  A    between atoms: C28_38  and  O6_39 
REMARK   25  A    between atoms: C29_42  and  O8_43 
REMARK   26  A    between atoms: C29_42  and  C35_49 
ROOT
ATOM      1  C14 non d ame     -35.158   8.638  27.148  0.00  0.00     0.089 C 
ATOM      2  H20 non d ame     -35.023   7.891  27.931  0.00  0.00     0.087 H 
ENDROOT
BRANCH   1   3
ATOM      3  N4  non d ame     -34.148   9.667  27.346  0.00  0.00    -0.346 N 
ATOM      4  C10 non d ame     -33.424   9.780  28.665  0.00  0.00     0.241 C 
ATOM      5  O4  non d ame     -33.675   9.034  29.553  0.00  0.00    -0.271 OA
ATOM      6  H19 non d ame     -33.951  10.294  26.579  0.00  0.00     0.163 HD
BRANCH   4   7
ATOM      7  C9  non d ame     -32.378  10.847  28.850  0.00  0.00     0.092 C 
ATOM      8  H11 non d ame     -31.451  10.528  28.374  0.00  0.00     0.088 H 
BRANCH   7   9
ATOM      9  N3  non d ame     -32.809  12.077  28.178  0.00  0.00    -0.346 N 
ATOM     10  C7  non d ame     -32.006  12.639  27.120  0.00  0.00     0.240 C 
ATOM     11  O3  non d ame     -31.010  12.116  26.798  0.00  0.00    -0.271 OA
ATOM     12  H10 non d ame     -33.665  12.541  28.447  0.00  0.00     0.163 HD
BRANCH  10  13
ATOM     13  C6  non d ame     -32.468  13.950  26.411  0.00  0.00     0.086 C 
ATOM     14  H6  non d ame     -32.086  14.848  26.895  0.00  0.00     0.086 H 
BRANCH  13  15
ATOM     15  N2  non d ame     -31.951  13.958  25.052  0.00  0.00    -0.343 N 
ATOM     16  C5  non d ame     -31.200  15.121  24.573  0.00  0.00     0.273 C 
ATOM     17  O2  non d ame     -31.020  16.045  25.288  0.00  0.00    -0.266 OA
ATOM     18  H5  non d ame     -32.112  13.165  24.448  0.00  0.00     0.163 HD
BRANCH  16  19
ATOM     19  C4  non d ame     -30.647  15.142  23.140  0.00  0.00     0.154 A 
ATOM     20  C1  non d ame     -31.279  15.685  21.977  0.00  0.00    -0.017 A 
ATOM     21  C2  non d ame     -30.365  15.455  20.925  0.00  0.00     0.077 A 
ATOM     22  H1  non d ame     -32.253  16.171  21.907  0.00  0.00     0.091 H 
ATOM     23  O1  non d ame     -29.331  14.852  21.435  0.00  0.00    -0.218 OA
ATOM     24  N1  non d ame     -29.472  14.658  22.726  0.00  0.00    -0.123 NA
BRANCH  21  25
ATOM     25  C3  non d ame     -30.555  15.843  19.464  0.00  0.00    -0.029 C 
ATOM     26  H2  non d ame     -29.678  16.388  19.116  0.00  0.00     0.036 H 
ATOM     27  H3  non d ame     -30.684  14.943  18.864  0.00  0.00     0.036 H 
ATOM     28  H4  non d ame     -31.437  16.474  19.368  0.00  0.00     0.036 H 
ENDBRANCH  21  25
ENDBRANCH  16  19
ENDBRANCH  13  15
BRANCH  13  29
ATOM     29  C8  non d ame     -33.974  14.009  26.391  0.00  0.00    -0.049 C 
ATOM     30  H7  non d ame     -34.362  13.198  25.774  0.00  0.00     0.030 H 
ATOM     31  H8  non d ame     -34.355  13.907  27.406  0.00  0.00     0.030 H 
ATOM     32  H9  non d ame     -34.295  14.965  25.976  0.00  0.00     0.030 H 
ENDBRANCH  13  29
ENDBRANCH  10  13
ENDBRANCH   7   9
BRANCH   7  33
ATOM     33  C11 non d ame     -32.188  11.129  30.370  0.00  0.00    -0.033 C 
ATOM     34  H12 non d ame     -32.078  10.167  30.871  0.00  0.00     0.042 H 
BRANCH  33  35
ATOM     35  C12 non d ame     -30.888  11.949  30.638  0.00  0.00    -0.071 C 
ATOM     36  H13 non d ame     -30.477  11.672  31.608  0.00  0.00     0.028 H 
ATOM     37  H14 non d ame     -30.157  11.736  29.859  0.00  0.00     0.028 H 
ATOM     38  H15 non d ame     -31.123  13.014  30.635  0.00  0.00     0.028 H 
ENDBRANCH  33  35
BRANCH  33  39
ATOM     39  C13 non d ame     -33.443  11.844  30.967  0.00  0.00    -0.071 C 
ATOM     40  H16 non d ame     -33.563  12.820  30.496  0.00  0.00     0.028 H 
ATOM     41  H17 non d ame     -34.330  11.238  30.780  0.00  0.00     0.028 H 
ATOM     42  H18 non d ame     -33.311  11.972  32.041  0.00  0.00     0.028 H 
ENDBRANCH  33  39
ENDBRANCH   7  33
ENDBRANCH   4   7
ENDBRANCH   1   3
BRANCH   1  43
ATOM     43  C15 non d ame     -34.979   8.036  25.725  0.00  0.00     0.240 C 
ATOM     44  O5  non d ame     -35.917   7.583  25.153  0.00  0.00    -0.271 OA
ATOM     45  N6  non d ame     -33.640   8.033  25.071  0.00  0.00    -0.355 N 
ATOM     46  H46 non d ame     -32.836   8.419  25.545  0.00  0.00     0.162 HD
BRANCH  45  47
ATOM     47  C20 non d ame     -33.487   7.459  23.716  0.00  0.00     0.013 C 
ATOM     48  H30 non d ame     -34.480   7.210  23.343  0.00  0.00     0.072 H 
BRANCH  47  49
ATOM     49  C21 non d ame     -32.638   6.210  23.796  0.00  0.00    -0.038 C 
ATOM     50  H31 non d ame     -33.249   5.411  23.376  0.00  0.00     0.036 H 
ATOM     51  H32 non d ame     -31.687   6.471  23.332  0.00  0.00     0.036 H 
BRANCH  49  52
ATOM     52  C22 non d ame     -32.316   5.796  25.249  0.00  0.00     0.018 C 
ATOM     53  H33 non d ame     -31.314   5.368  25.218  0.00  0.00     0.048 H 
ATOM     54  H34 non d ame     -32.513   6.678  25.858  0.00  0.00     0.048 H 
BRANCH  52  55
ATOM     55  C23 non d ame     -33.242   4.678  25.801  0.00  0.00     0.259 C 
ATOM     56  O7  non d ame     -33.421   3.681  25.180  0.00  0.00    -0.265 OA
BRANCH  55  57
ATOM     57  O8  non d ame     -33.887   4.864  27.056  0.00  0.00    -0.317 OA
BRANCH  57  58
ATOM     58  C29 non d ame     -35.301   4.649  27.021  0.00  0.00     0.052 C 
ATOM     59  H47 non d ame     -35.681   5.311  26.242  0.00  0.00     0.082 H 
ATOM     60  H48 non d ame     -35.434   3.571  26.932  0.00  0.00     0.082 H 
BRANCH  58  61
ATOM     61  C35 non d ame     -35.888   5.106  28.383  0.00  0.00    -0.034 A 
ATOM     62  C30 non d ame     -37.253   4.993  28.626  0.00  0.00    -0.075 A 
ATOM     63  C31 non d ame     -37.781   5.403  29.850  0.00  0.00    -0.082 A 
ATOM     64  H49 non d ame     -37.910   4.583  27.858  0.00  0.00     0.084 H 
ATOM     65  C32 non d ame     -36.938   5.930  30.832  0.00  0.00    -0.083 A 
ATOM     66  H50 non d ame     -38.851   5.311  30.038  0.00  0.00     0.083 H 
ATOM     67  C33 non d ame     -35.577   6.044  30.583  0.00  0.00    -0.082 A 
ATOM     68  H51 non d ame     -37.342   6.253  31.791  0.00  0.00     0.083 H 
ATOM     69  C34 non d ame     -35.045   5.634  29.363  0.00  0.00    -0.075 A 
ATOM     70  H52 non d ame     -34.922   6.459  31.350  0.00  0.00     0.083 H 
ATOM     71  H53 non d ame     -33.975   5.726  29.175  0.00  0.00     0.084 H 
ENDBRANCH  58  61
ENDBRANCH  57  58
ENDBRANCH  55  57
ENDBRANCH  52  55
ENDBRANCH  49  52
ENDBRANCH  47  49
BRANCH  47  72
ATOM     72  C24 non d ame     -32.813   8.475  22.797  0.00  0.00    -0.039 C 
ATOM     73  H35 non d ame     -32.685   7.963  21.843  0.00  0.00     0.036 H 
ATOM     74  H36 non d ame     -33.430   9.372  22.855  0.00  0.00     0.036 H 
BRANCH  72  75
ATOM     75  C25 non d ame     -31.352   8.871  23.321  0.00  0.00    -0.001 C 
ATOM     76  C26 non d ame     -31.310  10.469  23.708  0.00  0.00    -0.035 C 
ATOM     77  C27 non d ame     -30.252  11.041  23.085  0.00  0.00     0.085 C 
ATOM     78  H38 non d ame     -32.169  10.981  23.275  0.00  0.00     0.036 H 
ATOM     79  H39 non d ame     -31.079  10.592  24.766  0.00  0.00     0.036 H 
ATOM     80  N5  non d ame     -29.763  10.056  22.051  0.00  0.00    -0.049 N 
ATOM     81  H40 non d ame     -30.653  11.919  22.577  0.00  0.00     0.075 H 
ATOM     82  H41 non d ame     -29.489  11.158  23.853  0.00  0.00     0.075 H 
ATOM     83  C28 non d ame     -30.455   8.645  22.420  0.00  0.00     0.193 C 
ATOM     84  H42 non d ame     -30.125  10.369  21.162  0.00  0.00     0.280 HD
ATOM     85  H43 non d ame     -28.765   9.970  22.188  0.00  0.00     0.280 HD
ATOM     86  H44 non d ame     -29.880   7.856  22.907  0.00  0.00     0.129 H 
ATOM     87  H37 non d ame     -30.977   8.171  24.067  0.00  0.00     0.046 H 
BRANCH  83  88
ATOM     88  O6  non d ame     -31.008   8.045  21.247  0.00  0.00    -0.369 OA
ATOM     89  H45 non d ame     -31.669   7.396  21.501  0.00  0.00     0.212 HD
ENDBRANCH  83  88
ENDBRANCH  72  75
ENDBRANCH  47  72
ENDBRANCH  45  47
ENDBRANCH   1  43
BRANCH   1  90
ATOM     90  C16 non d ame     -36.537   9.267  27.268  0.00  0.00    -0.035 C 
ATOM     91  H21 non d ame     -36.359  10.340  27.338  0.00  0.00     0.037 H 
ATOM     92  H22 non d ame     -37.112   8.862  26.435  0.00  0.00     0.037 H 
BRANCH  90  93
ATOM     93  C17 non d ame     -37.299   8.861  28.569  0.00  0.00    -0.059 C 
ATOM     94  H23 non d ame     -36.896   7.906  28.904  0.00  0.00     0.038 H 
BRANCH  93  95
ATOM     95  C18 non d ame     -37.091   9.896  29.721  0.00  0.00    -0.073 C 
ATOM     96  H24 non d ame     -37.789   9.685  30.530  0.00  0.00     0.028 H 
ATOM     97  H25 non d ame     -36.070   9.824  30.095  0.00  0.00     0.028 H 
ATOM     98  H26 non d ame     -37.268  10.902  29.342  0.00  0.00     0.028 H 
ENDBRANCH  93  95
BRANCH  93  99
ATOM     99  C19 non d ame     -38.789   8.653  28.287  0.00  0.00    -0.073 C 
ATOM    100  H27 non d ame     -38.910   7.885  27.522  0.00  0.00     0.028 H 
ATOM    101  H28 non d ame     -39.292   8.336  29.201  0.00  0.00     0.028 H 
ATOM    102  H29 non d ame     -39.227   9.587  27.938  0.00  0.00     0.028 H 
ENDBRANCH  93  99
ENDBRANCH  90  93
ENDBRANCH   1  90
TORSDOF 26
ENDMDL
MODEL 14
REMARK VINA RESULT:      -6.6      4.306      8.293
REMARK  26 active torsions:
REMARK  status: ('A' for Active; 'I' for Inactive)
REMARK    1  A    between atoms: C2_2  and  C3_3 
REMARK    2  A    between atoms: C4_6  and  C5_7 
REMARK       I    between atoms: C5_7  and  N2_9 
REMARK    3  A    between atoms: N2_9  and  C6_10 
REMARK    4  A    between atoms: C6_10  and  C7_11 
REMARK    5  A    between atoms: C6_10  and  C8_13 
REMARK       I    between atoms: C7_11  and  N3_14 
REMARK    6  A    between atoms: N3_14  and  C9_15 
REMARK    7  A    between atoms: C9_15  and  C10_16 
REMARK    8  A    between atoms: C9_15  and  C11_18 
REMARK       I    between atoms: C10_16  and  N4_21 
REMARK    9  A    between atoms: C11_18  and  C12_19 
REMARK   10  A    between atoms: C11_18  and  C13_20 
REMARK   11  A    between atoms: N4_21  and  C14_22 
REMARK   12  A    between atoms: C14_22  and  C15_23 
REMARK   13  A    between atoms: C14_22  and  C16_25 
REMARK       I    between atoms: C15_23  and  N6_40 
REMARK   14  A    between atoms: C16_25  and  C17_26 
REMARK   15  A    between atoms: C17_26  and  C18_27 
REMARK   16  A    between atoms: C17_26  and  C19_28 
REMARK   17  A    between atoms: C20_29  and  C21_30 
REMARK   18  A    between atoms: C20_29  and  C24_33 
REMARK   19  A    between atoms: C20_29  and  N6_40 
REMARK   20  A    between atoms: C21_30  and  C22_31 
REMARK   21  A    between atoms: C22_31  and  C23_32 
REMARK   22  A    between atoms: C23_32  and  O8_43 
REMARK   23  A    between atoms: C24_33  and  C25_34 
REMARK   24  A    between atoms: C28_38  and  O6_39 
REMARK   25  A    between atoms: C29_42  and  O8_43 
REMARK   26  A    between atoms: C29_42  and  C35_49 
ROOT
ATOM      1  C14 non d ame     -32.190   7.052  24.774  0.00  0.00     0.089 C 
ATOM      2  H20 non d ame     -31.106   6.982  24.864  0.00  0.00     0.087 H 
ENDROOT
BRANCH   1   3
ATOM      3  N4  non d ame     -32.764   5.926  25.495  0.00  0.00    -0.346 N 
ATOM      4  C10 non d ame     -32.455   5.720  26.957  0.00  0.00     0.241 C 
ATOM      5  O4  non d ame     -31.740   6.473  27.531  0.00  0.00    -0.271 OA
ATOM      6  H19 non d ame     -33.369   5.296  24.988  0.00  0.00     0.163 HD
BRANCH   4   7
ATOM      7  C9  non d ame     -33.063   4.553  27.689  0.00  0.00     0.092 C 
ATOM      8  H11 non d ame     -32.316   3.765  27.790  0.00  0.00     0.088 H 
BRANCH   7   9
ATOM      9  N3  non d ame     -33.441   4.967  29.043  0.00  0.00    -0.346 N 
ATOM     10  C7  non d ame     -33.048   4.168  30.177  0.00  0.00     0.240 C 
ATOM     11  O3  non d ame     -32.429   3.188  30.019  0.00  0.00    -0.271 OA
ATOM     12  H10 non d ame     -33.977   5.810  29.195  0.00  0.00     0.163 HD
BRANCH  10  13
ATOM     13  C6  non d ame     -33.457   4.613  31.616  0.00  0.00     0.086 C 
ATOM     14  H6  non d ame     -32.878   5.464  31.975  0.00  0.00     0.086 H 
BRANCH  13  15
ATOM     15  N2  non d ame     -34.848   5.033  31.602  0.00  0.00    -0.343 N 
ATOM     16  C5  non d ame     -35.173   6.446  31.394  0.00  0.00     0.273 C 
ATOM     17  O2  non d ame     -34.307   7.237  31.242  0.00  0.00    -0.266 OA
ATOM     18  H5  non d ame     -35.581   4.351  31.736  0.00  0.00     0.163 HD
BRANCH  16  19
ATOM     19  C4  non d ame     -36.639   6.905  31.376  0.00  0.00     0.154 A 
ATOM     20  C1  non d ame     -37.124   8.251  31.339  0.00  0.00    -0.017 A 
ATOM     21  C2  non d ame     -38.532   8.130  31.335  0.00  0.00     0.077 A 
ATOM     22  H1  non d ame     -36.544   9.173  31.319  0.00  0.00     0.091 H 
ATOM     23  O1  non d ame     -38.812   6.860  31.365  0.00  0.00    -0.218 OA
ATOM     24  N1  non d ame     -37.724   6.125  31.389  0.00  0.00    -0.123 NA
BRANCH  21  25
ATOM     25  C3  non d ame     -39.535   9.275  31.301  0.00  0.00    -0.029 C 
ATOM     26  H2  non d ame     -39.149  10.113  31.881  0.00  0.00     0.036 H 
ATOM     27  H3  non d ame     -39.693   9.589  30.270  0.00  0.00     0.036 H 
ATOM     28  H4  non d ame     -40.481   8.943  31.728  0.00  0.00     0.036 H 
ENDBRANCH  21  25
ENDBRANCH  16  19
ENDBRANCH  13  15
BRANCH  13  29
ATOM     29  C8  non d ame     -33.275   3.462  32.572  0.00  0.00    -0.049 C 
ATOM     30  H7  non d ame     -33.840   2.600  32.215  0.00  0.00     0.030 H 
ATOM     31  H8  non d ame     -32.218   3.203  32.632  0.00  0.00     0.030 H 
ATOM     32  H9  non d ame     -33.635   3.749  33.560  0.00  0.00     0.030 H 
ENDBRANCH  13  29
ENDBRANCH  10  13
ENDBRANCH   7   9
BRANCH   7  33
ATOM     33  C11 non d ame     -34.329   4.064  26.926  0.00  0.00    -0.033 C 
ATOM     34  H12 non d ame     -34.301   4.502  25.928  0.00  0.00     0.042 H 
BRANCH  33  35
ATOM     35  C12 non d ame     -34.328   2.513  26.758  0.00  0.00    -0.071 C 
ATOM     36  H13 non d ame     -34.680   2.255  25.759  0.00  0.00     0.028 H 
ATOM     37  H14 non d ame     -33.316   2.133  26.896  0.00  0.00     0.028 H 
ATOM     38  H15 non d ame     -34.989   2.066  27.501  0.00  0.00     0.028 H 
ENDBRANCH  33  35
BRANCH  33  39
ATOM     39  C13 non d ame     -35.632   4.557  27.633  0.00  0.00    -0.071 C 
ATOM     40  H16 non d ame     -35.503   4.501  28.714  0.00  0.00     0.028 H 
ATOM     41  H17 non d ame     -35.835   5.588  27.344  0.00  0.00     0.028 H 
ATOM     42  H18 non d ame     -36.469   3.926  27.333  0.00  0.00     0.028 H 
ENDBRANCH  33  39
ENDBRANCH   7  33
ENDBRANCH   4   7
ENDBRANCH   1   3
BRANCH   1  43
ATOM     43  C15 non d ame     -32.745   8.369  25.389  0.00  0.00     0.240 C 
ATOM     44  O5  non d ame     -33.919   8.552  25.433  0.00  0.00    -0.271 OA
ATOM     45  N6  non d ame     -31.814   9.399  25.930  0.00  0.00    -0.355 N 
ATOM     46  H46 non d ame     -30.815   9.253  25.903  0.00  0.00     0.162 HD
BRANCH  45  47
ATOM     47  C20 non d ame     -32.357  10.645  26.513  0.00  0.00     0.013 C 
ATOM     48  H30 non d ame     -33.435  10.650  26.349  0.00  0.00     0.072 H 
BRANCH  47  49
ATOM     49  C21 non d ame     -31.725  11.835  25.827  0.00  0.00    -0.038 C 
ATOM     50  H31 non d ame     -30.714  11.904  26.229  0.00  0.00     0.036 H 
ATOM     51  H32 non d ame     -31.878  11.674  24.759  0.00  0.00     0.036 H 
BRANCH  49  52
ATOM     52  C22 non d ame     -32.425  13.167  26.172  0.00  0.00     0.018 C 
ATOM     53  H33 non d ame     -32.861  13.522  25.239  0.00  0.00     0.048 H 
ATOM     54  H34 non d ame     -33.067  12.951  27.027  0.00  0.00     0.048 H 
BRANCH  52  55
ATOM     55  C23 non d ame     -31.450  14.283  26.641  0.00  0.00     0.259 C 
ATOM     56  O7  non d ame     -31.051  14.304  27.760  0.00  0.00    -0.265 OA
BRANCH  55  57
ATOM     57  O8  non d ame     -31.049  15.290  25.720  0.00  0.00    -0.317 OA
BRANCH  57  58
ATOM     58  C29 non d ame     -31.977  15.506  24.652  0.00  0.00     0.052 C 
ATOM     59  H47 non d ame     -32.736  14.730  24.760  0.00  0.00     0.082 H 
ATOM     60  H48 non d ame     -32.259  16.556  24.714  0.00  0.00     0.082 H 
BRANCH  58  61
ATOM     61  C35 non d ame     -31.227  15.277  23.313  0.00  0.00    -0.034 A 
ATOM     62  C30 non d ame     -31.269  16.248  22.317  0.00  0.00    -0.075 A 
ATOM     63  C31 non d ame     -30.596  16.042  21.113  0.00  0.00    -0.082 A 
ATOM     64  H49 non d ame     -31.829  17.169  22.479  0.00  0.00     0.084 H 
ATOM     65  C32 non d ame     -29.881  14.859  20.906  0.00  0.00    -0.083 A 
ATOM     66  H50 non d ame     -30.630  16.805  20.335  0.00  0.00     0.083 H 
ATOM     67  C33 non d ame     -29.845  13.893  21.902  0.00  0.00    -0.082 A 
ATOM     68  H51 non d ame     -29.352  14.691  19.969  0.00  0.00     0.083 H 
ATOM     69  C34 non d ame     -30.515  14.094  23.107  0.00  0.00    -0.075 A 
ATOM     70  H52 non d ame     -29.288  12.970  21.737  0.00  0.00     0.083 H 
ATOM     71  H53 non d ame     -30.481  13.331  23.885  0.00  0.00     0.084 H 
ENDBRANCH  58  61
ENDBRANCH  57  58
ENDBRANCH  55  57
ENDBRANCH  52  55
ENDBRANCH  49  52
ENDBRANCH  47  49
BRANCH  47  72
ATOM     72  C24 non d ame     -32.048  10.694  28.008  0.00  0.00    -0.039 C 
ATOM     73  H35 non d ame     -31.731   9.685  28.272  0.00  0.00     0.036 H 
ATOM     74  H36 non d ame     -31.361  11.531  28.134  0.00  0.00     0.036 H 
BRANCH  72  75
ATOM     75  C25 non d ame     -33.355  11.021  28.873  0.00  0.00    -0.001 C 
ATOM     76  C26 non d ame     -32.955  11.969  30.157  0.00  0.00    -0.035 C 
ATOM     77  C27 non d ame     -33.454  11.409  31.285  0.00  0.00     0.085 C 
ATOM     78  H38 non d ame     -31.877  11.946  30.316  0.00  0.00     0.036 H 
ATOM     79  H39 non d ame     -33.478  12.924  30.094  0.00  0.00     0.036 H 
ATOM     80  N5  non d ame     -33.874  10.002  30.931  0.00  0.00    -0.049 N 
ATOM     81  H40 non d ame     -32.617  11.365  31.982  0.00  0.00     0.075 H 
ATOM     82  H41 non d ame     -34.340  11.992  31.532  0.00  0.00     0.075 H 
ATOM     83  C28 non d ame     -33.904   9.940  29.318  0.00  0.00     0.193 C 
ATOM     84  H42 non d ame     -33.140   9.393  31.263  0.00  0.00     0.280 HD
ATOM     85  H43 non d ame     -34.817   9.891  31.275  0.00  0.00     0.280 HD
ATOM     86  H44 non d ame     -34.852   9.964  28.781  0.00  0.00     0.129 H 
ATOM     87  H37 non d ame     -34.189  11.352  28.253  0.00  0.00     0.046 H 
BRANCH  83  88
ATOM     88  O6  non d ame     -33.233   8.766  28.857  0.00  0.00    -0.369 OA
ATOM     89  H45 non d ame     -33.012   8.868  27.928  0.00  0.00     0.212 HD
ENDBRANCH  83  88
ENDBRANCH  72  75
ENDBRANCH  47  72
ENDBRANCH  45  47
ENDBRANCH   1  43
BRANCH   1  90
ATOM     90  C16 non d ame     -32.592   6.962  23.311  0.00  0.00    -0.035 C 
ATOM     91  H21 non d ame     -32.704   5.897  23.107  0.00  0.00     0.037 H 
ATOM     92  H22 non d ame     -33.448   7.629  23.205  0.00  0.00     0.037 H 
BRANCH  90  93
ATOM     93  C17 non d ame     -31.499   7.486  22.326  0.00  0.00    -0.059 C 
ATOM     94  H23 non d ame     -31.757   7.134  21.328  0.00  0.00     0.038 H 
BRANCH  93  95
ATOM     95  C18 non d ame     -31.446   9.047  22.282  0.00  0.00    -0.073 C 
ATOM     96  H24 non d ame     -32.047   9.408  21.448  0.00  0.00     0.028 H 
ATOM     97  H25 non d ame     -31.840   9.451  23.214  0.00  0.00     0.028 H 
ATOM     98  H26 non d ame     -30.414   9.372  22.153  0.00  0.00     0.028 H 
ENDBRANCH  93  95
BRANCH  93  99
ATOM     99  C19 non d ame     -30.126   6.904  22.674  0.00  0.00    -0.073 C 
ATOM    100  H27 non d ame     -30.241   5.867  22.990  0.00  0.00     0.028 H 
ATOM    101  H28 non d ame     -29.481   6.947  21.796  0.00  0.00     0.028 H 
ATOM    102  H29 non d ame     -29.680   7.484  23.481  0.00  0.00     0.028 H 
ENDBRANCH  93  99
ENDBRANCH  90  93
ENDBRANCH   1  90
TORSDOF 26
ENDMDL
MODEL 15
REMARK VINA RESULT:      -6.6      3.680      9.439
REMARK  26 active torsions:
REMARK  status: ('A' for Active; 'I' for Inactive)
REMARK    1  A    between atoms: C2_2  and  C3_3 
REMARK    2  A    between atoms: C4_6  and  C5_7 
REMARK       I    between atoms: C5_7  and  N2_9 
REMARK    3  A    between atoms: N2_9  and  C6_10 
REMARK    4  A    between atoms: C6_10  and  C7_11 
REMARK    5  A    between atoms: C6_10  and  C8_13 
REMARK       I    between atoms: C7_11  and  N3_14 
REMARK    6  A    between atoms: N3_14  and  C9_15 
REMARK    7  A    between atoms: C9_15  and  C10_16 
REMARK    8  A    between atoms: C9_15  and  C11_18 
REMARK       I    between atoms: C10_16  and  N4_21 
REMARK    9  A    between atoms: C11_18  and  C12_19 
REMARK   10  A    between atoms: C11_18  and  C13_20 
REMARK   11  A    between atoms: N4_21  and  C14_22 
REMARK   12  A    between atoms: C14_22  and  C15_23 
REMARK   13  A    between atoms: C14_22  and  C16_25 
REMARK       I    between atoms: C15_23  and  N6_40 
REMARK   14  A    between atoms: C16_25  and  C17_26 
REMARK   15  A    between atoms: C17_26  and  C18_27 
REMARK   16  A    between atoms: C17_26  and  C19_28 
REMARK   17  A    between atoms: C20_29  and  C21_30 
REMARK   18  A    between atoms: C20_29  and  C24_33 
REMARK   19  A    between atoms: C20_29  and  N6_40 
REMARK   20  A    between atoms: C21_30  and  C22_31 
REMARK   21  A    between atoms: C22_31  and  C23_32 
REMARK   22  A    between atoms: C23_32  and  O8_43 
REMARK   23  A    between atoms: C24_33  and  C25_34 
REMARK   24  A    between atoms: C28_38  and  O6_39 
REMARK   25  A    between atoms: C29_42  and  O8_43 
REMARK   26  A    between atoms: C29_42  and  C35_49 
ROOT
ATOM      1  C14 non d ame     -34.941   8.342  31.222  0.00  0.00     0.089 C 
ATOM      2  H20 non d ame     -34.540   8.419  32.233  0.00  0.00     0.087 H 
ENDROOT
BRANCH   1   3
ATOM      3  N4  non d ame     -34.036   9.060  30.337  0.00  0.00    -0.346 N 
ATOM      4  C10 non d ame     -33.473  10.398  30.745  0.00  0.00     0.241 C 
ATOM      5  O4  non d ame     -33.765  10.878  31.790  0.00  0.00    -0.271 OA
ATOM      6  H19 non d ame     -33.802   8.635  29.450  0.00  0.00     0.163 HD
BRANCH   4   7
ATOM      7  C9  non d ame     -32.534  11.125  29.818  0.00  0.00     0.092 C 
ATOM      8  H11 non d ame     -31.845  10.408  29.372  0.00  0.00     0.088 H 
BRANCH   7   9
ATOM      9  N3  non d ame     -33.298  11.730  28.724  0.00  0.00    -0.346 N 
ATOM     10  C7  non d ame     -33.442  11.030  27.471  0.00  0.00     0.240 C 
ATOM     11  O3  non d ame     -32.948   9.978  27.327  0.00  0.00    -0.271 OA
ATOM     12  H10 non d ame     -33.729  12.637  28.833  0.00  0.00     0.163 HD
BRANCH  10  13
ATOM     13  C6  non d ame     -34.253  11.681  26.309  0.00  0.00     0.086 C 
ATOM     14  H6  non d ame     -35.009  12.382  26.663  0.00  0.00     0.086 H 
BRANCH  13  15
ATOM     15  N2  non d ame     -33.344  12.440  25.466  0.00  0.00    -0.343 N 
ATOM     16  C5  non d ame     -33.013  13.821  25.823  0.00  0.00     0.273 C 
ATOM     17  O2  non d ame     -33.486  14.313  26.788  0.00  0.00    -0.266 OA
ATOM     18  H5  non d ame     -32.947  12.012  24.642  0.00  0.00     0.163 HD
BRANCH  16  19
ATOM     19  C4  non d ame     -32.052  14.635  24.942  0.00  0.00     0.154 A 
ATOM     20  C1  non d ame     -31.064  14.125  24.041  0.00  0.00    -0.017 A 
ATOM     21  C2  non d ame     -30.457  15.272  23.482  0.00  0.00     0.077 A 
ATOM     22  H1  non d ame     -30.825  13.084  23.826  0.00  0.00     0.091 H 
ATOM     23  O1  non d ame     -31.036  16.312  24.006  0.00  0.00    -0.218 OA
ATOM     24  N1  non d ame     -31.970  15.966  24.862  0.00  0.00    -0.123 NA
BRANCH  21  25
ATOM     25  C3  non d ame     -29.333  15.286  22.455  0.00  0.00    -0.029 C 
ATOM     26  H2  non d ame     -29.662  15.819  21.563  0.00  0.00     0.036 H 
ATOM     27  H3  non d ame     -28.462  15.787  22.877  0.00  0.00     0.036 H 
ATOM     28  H4  non d ame     -29.070  14.262  22.189  0.00  0.00     0.036 H 
ENDBRANCH  21  25
ENDBRANCH  16  19
ENDBRANCH  13  15
BRANCH  13  29
ATOM     29  C8  non d ame     -34.930  10.604  25.499  0.00  0.00    -0.049 C 
ATOM     30  H7  non d ame     -34.230  10.209  24.763  0.00  0.00     0.030 H 
ATOM     31  H8  non d ame     -35.252   9.800  26.162  0.00  0.00     0.030 H 
ATOM     32  H9  non d ame     -35.797  11.023  24.988  0.00  0.00     0.030 H 
ENDBRANCH  13  29
ENDBRANCH  10  13
ENDBRANCH   7   9
BRANCH   7  33
ATOM     33  C11 non d ame     -31.789  12.241  30.607  0.00  0.00    -0.033 C 
ATOM     34  H12 non d ame     -32.303  12.371  31.559  0.00  0.00     0.042 H 
BRANCH  33  35
ATOM     35  C12 non d ame     -30.317  11.828  30.922  0.00  0.00    -0.071 C 
ATOM     36  H13 non d ame     -29.668  12.699  30.831  0.00  0.00     0.028 H 
ATOM     37  H14 non d ame     -30.259  11.436  31.937  0.00  0.00     0.028 H 
ATOM     38  H15 non d ame     -29.996  11.061  30.217  0.00  0.00     0.028 H 
ENDBRANCH  33  35
BRANCH  33  39
ATOM     39  C13 non d ame     -31.843  13.600  29.838  0.00  0.00    -0.071 C 
ATOM     40  H16 non d ame     -32.429  14.319  30.412  0.00  0.00     0.028 H 
ATOM     41  H17 non d ame     -30.831  13.982  29.703  0.00  0.00     0.028 H 
ATOM     42  H18 non d ame     -32.306  13.448  28.863  0.00  0.00     0.028 H 
ENDBRANCH  33  39
ENDBRANCH   7  33
ENDBRANCH   4   7
ENDBRANCH   1   3
BRANCH   1  43
ATOM     43  C15 non d ame     -35.038   6.866  30.740  0.00  0.00     0.240 C 
ATOM     44  O5  non d ame     -35.555   6.051  31.433  0.00  0.00    -0.271 OA
ATOM     45  N6  non d ame     -34.493   6.470  29.410  0.00  0.00    -0.355 N 
ATOM     46  H46 non d ame     -34.056   7.155  28.810  0.00  0.00     0.162 HD
BRANCH  45  47
ATOM     47  C20 non d ame     -34.594   5.063  28.966  0.00  0.00     0.013 C 
ATOM     48  H30 non d ame     -34.952   4.471  29.808  0.00  0.00     0.072 H 
BRANCH  47  49
ATOM     49  C21 non d ame     -33.230   4.576  28.534  0.00  0.00    -0.038 C 
ATOM     50  H31 non d ame     -32.513   5.245  29.012  0.00  0.00     0.036 H 
ATOM     51  H32 non d ame     -33.214   3.510  28.758  0.00  0.00     0.036 H 
BRANCH  49  52
ATOM     52  C22 non d ame     -33.001   4.706  27.012  0.00  0.00     0.018 C 
ATOM     53  H33 non d ame     -32.338   3.886  26.742  0.00  0.00     0.048 H 
ATOM     54  H34 non d ame     -33.995   4.773  26.569  0.00  0.00     0.048 H 
BRANCH  52  55
ATOM     55  C23 non d ame     -32.260   6.009  26.599  0.00  0.00     0.259 C 
ATOM     56  O7  non d ame     -31.887   6.778  27.425  0.00  0.00    -0.265 OA
BRANCH  55  57
ATOM     57  O8  non d ame     -32.044   6.279  25.220  0.00  0.00    -0.317 OA
BRANCH  57  58
ATOM     58  C29 non d ame     -32.725   7.443  24.741  0.00  0.00     0.052 C 
ATOM     59  H47 non d ame     -33.510   7.074  24.080  0.00  0.00     0.082 H 
ATOM     60  H48 non d ame     -32.986   8.018  25.628  0.00  0.00     0.082 H 
BRANCH  58  61
ATOM     61  C35 non d ame     -31.721   8.271  23.896  0.00  0.00    -0.034 A 
ATOM     62  C30 non d ame     -30.798   7.626  23.080  0.00  0.00    -0.075 A 
ATOM     63  C31 non d ame     -29.896   8.370  22.321  0.00  0.00    -0.082 A 
ATOM     64  H49 non d ame     -30.780   6.536  23.035  0.00  0.00     0.084 H 
ATOM     65  C32 non d ame     -29.918   9.766  22.382  0.00  0.00    -0.083 A 
ATOM     66  H50 non d ame     -29.174   7.861  21.681  0.00  0.00     0.083 H 
ATOM     67  C33 non d ame     -30.839  10.406  23.200  0.00  0.00    -0.082 A 
ATOM     68  H51 non d ame     -29.217  10.355  21.791  0.00  0.00     0.083 H 
ATOM     69  C34 non d ame     -31.744   9.666  23.959  0.00  0.00    -0.075 A 
ATOM     70  H52 non d ame     -30.852  11.495  23.247  0.00  0.00     0.083 H 
ATOM     71  H53 non d ame     -32.465  10.176  24.598  0.00  0.00     0.084 H 
ENDBRANCH  58  61
ENDBRANCH  57  58
ENDBRANCH  55  57
ENDBRANCH  52  55
ENDBRANCH  49  52
ENDBRANCH  47  49
BRANCH  47  72
ATOM     72  C24 non d ame     -35.567   4.961  27.793  0.00  0.00    -0.039 C 
ATOM     73  H35 non d ame     -35.069   5.456  26.959  0.00  0.00     0.036 H 
ATOM     74  H36 non d ame     -35.827   3.905  27.723  0.00  0.00     0.036 H 
BRANCH  72  75
ATOM     75  C25 non d ame     -36.924   5.763  28.077  0.00  0.00    -0.001 C 
ATOM     76  C26 non d ame     -37.919   4.863  29.027  0.00  0.00    -0.035 C 
ATOM     77  C27 non d ame     -39.141   4.803  28.446  0.00  0.00     0.085 C 
ATOM     78  H38 non d ame     -37.590   3.824  29.035  0.00  0.00     0.036 H 
ATOM     79  H39 non d ame     -38.109   5.382  29.967  0.00  0.00     0.036 H 
ATOM     80  N5  non d ame     -38.982   5.303  27.031  0.00  0.00    -0.049 N 
ATOM     81  H40 non d ame     -39.401   3.745  28.423  0.00  0.00     0.075 H 
ATOM     82  H41 non d ame     -39.763   5.504  29.002  0.00  0.00     0.075 H 
ATOM     83  C28 non d ame     -37.545   6.036  26.978  0.00  0.00     0.193 C 
ATOM     84  H42 non d ame     -38.948   4.484  26.440  0.00  0.00     0.280 HD
ATOM     85  H43 non d ame     -39.703   5.997  26.890  0.00  0.00     0.280 HD
ATOM     86  H44 non d ame     -37.478   7.124  26.977  0.00  0.00     0.129 H 
ATOM     87  H37 non d ame     -36.739   6.792  28.388  0.00  0.00     0.046 H 
BRANCH  83  88
ATOM     88  O6  non d ame     -36.815   5.608  25.826  0.00  0.00    -0.369 OA
ATOM     89  H45 non d ame     -36.685   6.353  25.235  0.00  0.00     0.212 HD
ENDBRANCH  83  88
ENDBRANCH  72  75
ENDBRANCH  47  72
ENDBRANCH  45  47
ENDBRANCH   1  43
BRANCH   1  90
ATOM     90  C16 non d ame     -36.314   8.991  31.161  0.00  0.00    -0.035 C 
ATOM     91  H21 non d ame     -36.946   8.392  31.817  0.00  0.00     0.037 H 
ATOM     92  H22 non d ame     -36.145  10.045  31.380  0.00  0.00     0.037 H 
BRANCH  90  93
ATOM     93  C17 non d ame     -36.971   8.934  29.745  0.00  0.00    -0.059 C 
ATOM     94  H23 non d ame     -36.418   8.206  29.153  0.00  0.00     0.038 H 
BRANCH  93  95
ATOM     95  C18 non d ame     -38.461   8.468  29.805  0.00  0.00    -0.073 C 
ATOM     96  H24 non d ame     -38.961   8.953  30.643  0.00  0.00     0.028 H 
ATOM     97  H25 non d ame     -38.965   8.738  28.877  0.00  0.00     0.028 H 
ATOM     98  H26 non d ame     -38.498   7.387  29.937  0.00  0.00     0.028 H 
ENDBRANCH  93  95
BRANCH  93  99
ATOM     99  C19 non d ame     -36.852  10.284  29.033  0.00  0.00    -0.073 C 
ATOM    100  H27 non d ame     -37.153  11.082  29.712  0.00  0.00     0.028 H 
ATOM    101  H28 non d ame     -35.818  10.442  28.723  0.00  0.00     0.028 H 
ATOM    102  H29 non d ame     -37.498  10.290  28.155  0.00  0.00     0.028 H 
ENDBRANCH  93  99
ENDBRANCH  90  93
ENDBRANCH   1  90
TORSDOF 26
ENDMDL
MODEL 16
REMARK VINA RESULT:      -6.6      2.186      4.084
REMARK  26 active torsions:
REMARK  status: ('A' for Active; 'I' for Inactive)
REMARK    1  A    between atoms: C2_2  and  C3_3 
REMARK    2  A    between atoms: C4_6  and  C5_7 
REMARK       I    between atoms: C5_7  and  N2_9 
REMARK    3  A    between atoms: N2_9  and  C6_10 
REMARK    4  A    between atoms: C6_10  and  C7_11 
REMARK    5  A    between atoms: C6_10  and  C8_13 
REMARK       I    between atoms: C7_11  and  N3_14 
REMARK    6  A    between atoms: N3_14  and  C9_15 
REMARK    7  A    between atoms: C9_15  and  C10_16 
REMARK    8  A    between atoms: C9_15  and  C11_18 
REMARK       I    between atoms: C10_16  and  N4_21 
REMARK    9  A    between atoms: C11_18  and  C12_19 
REMARK   10  A    between atoms: C11_18  and  C13_20 
REMARK   11  A    between atoms: N4_21  and  C14_22 
REMARK   12  A    between atoms: C14_22  and  C15_23 
REMARK   13  A    between atoms: C14_22  and  C16_25 
REMARK       I    between atoms: C15_23  and  N6_40 
REMARK   14  A    between atoms: C16_25  and  C17_26 
REMARK   15  A    between atoms: C17_26  and  C18_27 
REMARK   16  A    between atoms: C17_26  and  C19_28 
REMARK   17  A    between atoms: C20_29  and  C21_30 
REMARK   18  A    between atoms: C20_29  and  C24_33 
REMARK   19  A    between atoms: C20_29  and  N6_40 
REMARK   20  A    between atoms: C21_30  and  C22_31 
REMARK   21  A    between atoms: C22_31  and  C23_32 
REMARK   22  A    between atoms: C23_32  and  O8_43 
REMARK   23  A    between atoms: C24_33  and  C25_34 
REMARK   24  A    between atoms: C28_38  and  O6_39 
REMARK   25  A    between atoms: C29_42  and  O8_43 
REMARK   26  A    between atoms: C29_42  and  C35_49 
ROOT
ATOM      1  C14 non d ame     -30.766  14.214  24.104  0.00  0.00     0.089 C 
ATOM      2  H20 non d ame     -29.686  14.193  23.958  0.00  0.00     0.087 H 
ENDROOT
BRANCH   1   3
ATOM      3  N4  non d ame     -31.210  12.841  24.289  0.00  0.00    -0.346 N 
ATOM      4  C10 non d ame     -30.638  11.735  23.439  0.00  0.00     0.241 C 
ATOM      5  O4  non d ame     -29.823  11.975  22.610  0.00  0.00    -0.271 OA
ATOM      6  H19 non d ame     -31.906  12.657  24.998  0.00  0.00     0.163 HD
BRANCH   4   7
ATOM      7  C9  non d ame     -31.105  10.318  23.647  0.00  0.00     0.092 C 
ATOM      8  H11 non d ame     -30.627   9.910  24.538  0.00  0.00     0.088 H 
BRANCH   7   9
ATOM      9  N3  non d ame     -32.551  10.310  23.889  0.00  0.00    -0.346 N 
ATOM     10  C7  non d ame     -33.055  10.337  25.240  0.00  0.00     0.240 C 
ATOM     11  O3  non d ame     -32.312  10.365  26.143  0.00  0.00    -0.271 OA
ATOM     12  H10 non d ame     -33.204  10.285  23.119  0.00  0.00     0.163 HD
BRANCH  10  13
ATOM     13  C6  non d ame     -34.595  10.326  25.491  0.00  0.00     0.086 C 
ATOM     14  H6  non d ame     -35.149   9.839  24.688  0.00  0.00     0.086 H 
BRANCH  13  15
ATOM     15  N2  non d ame     -34.869   9.571  26.702  0.00  0.00    -0.343 N 
ATOM     16  C5  non d ame     -35.122   8.131  26.613  0.00  0.00     0.273 C 
ATOM     17  O2  non d ame     -35.105   7.590  25.563  0.00  0.00    -0.266 OA
ATOM     18  H5  non d ame     -34.884  10.042  27.596  0.00  0.00     0.163 HD
BRANCH  16  19
ATOM     19  C4  non d ame     -35.412   7.320  27.886  0.00  0.00     0.154 A 
ATOM     20  C1  non d ame     -36.691   7.055  28.470  0.00  0.00    -0.017 A 
ATOM     21  C2  non d ame     -36.414   6.276  29.615  0.00  0.00     0.077 A 
ATOM     22  H1  non d ame     -37.671   7.379  28.117  0.00  0.00     0.091 H 
ATOM     23  O1  non d ame     -35.124   6.116  29.672  0.00  0.00    -0.218 OA
ATOM     24  N1  non d ame     -34.518   6.717  28.674  0.00  0.00    -0.123 NA
BRANCH  21  25
ATOM     25  C3  non d ame     -37.437   5.723  30.599  0.00  0.00    -0.029 C 
ATOM     26  H2  non d ame     -38.394   6.219  30.445  0.00  0.00     0.036 H 
ATOM     27  H3  non d ame     -37.553   4.652  30.439  0.00  0.00     0.036 H 
ATOM     28  H4  non d ame     -37.094   5.903  31.618  0.00  0.00     0.036 H 
ENDBRANCH  21  25
ENDBRANCH  16  19
ENDBRANCH  13  15
BRANCH  13  29
ATOM     29  C8  non d ame     -35.094  11.741  25.640  0.00  0.00    -0.049 C 
ATOM     30  H7  non d ame     -35.685  11.823  26.551  0.00  0.00     0.030 H 
ATOM     31  H8  non d ame     -34.244  12.421  25.695  0.00  0.00     0.030 H 
ATOM     32  H9  non d ame     -35.712  12.000  24.780  0.00  0.00     0.030 H 
ENDBRANCH  13  29
ENDBRANCH  10  13
ENDBRANCH   7   9
BRANCH   7  33
ATOM     33  C11 non d ame     -30.789   9.476  22.376  0.00  0.00    -0.033 C 
ATOM     34  H12 non d ame     -30.687  10.168  21.540  0.00  0.00     0.042 H 
BRANCH  33  35
ATOM     35  C12 non d ame     -29.436   8.712  22.521  0.00  0.00    -0.071 C 
ATOM     36  H13 non d ame     -28.611   9.422  22.469  0.00  0.00     0.028 H 
ATOM     37  H14 non d ame     -29.412   8.196  23.481  0.00  0.00     0.028 H 
ATOM     38  H15 non d ame     -29.341   7.985  21.715  0.00  0.00     0.028 H 
ENDBRANCH  33  35
BRANCH  33  39
ATOM     39  C13 non d ame     -31.961   8.495  22.050  0.00  0.00    -0.071 C 
ATOM     40  H16 non d ame     -31.585   7.472  22.034  0.00  0.00     0.028 H 
ATOM     41  H17 non d ame     -32.735   8.586  22.813  0.00  0.00     0.028 H 
ATOM     42  H18 non d ame     -32.383   8.744  21.076  0.00  0.00     0.028 H 
ENDBRANCH  33  39
ENDBRANCH   7  33
ENDBRANCH   4   7
ENDBRANCH   1   3
BRANCH   1  43
ATOM     43  C15 non d ame     -31.173  15.039  25.359  0.00  0.00     0.240 C 
ATOM     44  O5  non d ame     -30.971  16.210  25.388  0.00  0.00    -0.271 OA
ATOM     45  N6  non d ame     -31.821  14.369  26.523  0.00  0.00    -0.355 N 
ATOM     46  H46 non d ame     -32.001  13.376  26.509  0.00  0.00     0.162 HD
BRANCH  45  47
ATOM     47  C20 non d ame     -32.202  15.168  27.708  0.00  0.00     0.013 C 
ATOM     48  H30 non d ame     -31.299  15.628  28.107  0.00  0.00     0.072 H 
BRANCH  47  49
ATOM     49  C21 non d ame     -32.820  14.257  28.746  0.00  0.00    -0.038 C 
ATOM     50  H31 non d ame     -32.527  14.670  29.712  0.00  0.00     0.036 H 
ATOM     51  H32 non d ame     -33.875  14.183  28.481  0.00  0.00     0.036 H 
BRANCH  49  52
ATOM     52  C22 non d ame     -32.255  12.821  28.696  0.00  0.00     0.018 C 
ATOM     53  H33 non d ame     -33.085  12.188  28.384  0.00  0.00     0.048 H 
ATOM     54  H34 non d ame     -31.354  12.880  28.084  0.00  0.00     0.048 H 
BRANCH  52  55
ATOM     55  C23 non d ame     -31.799  12.279  30.079  0.00  0.00     0.259 C 
ATOM     56  O7  non d ame     -31.062  12.914  30.763  0.00  0.00    -0.265 OA
BRANCH  55  57
ATOM     57  O8  non d ame     -32.262  11.007  30.516  0.00  0.00    -0.317 OA
BRANCH  57  58
ATOM     58  C29 non d ame     -33.155  10.367  29.600  0.00  0.00     0.052 C 
ATOM     59  H47 non d ame     -33.436  11.133  28.878  0.00  0.00     0.082 H 
ATOM     60  H48 non d ame     -32.640   9.466  29.266  0.00  0.00     0.082 H 
BRANCH  58  61
ATOM     61  C35 non d ame     -34.424   9.943  30.387  0.00  0.00    -0.034 A 
ATOM     62  C30 non d ame     -34.313   9.100  31.487  0.00  0.00    -0.075 A 
ATOM     63  C31 non d ame     -35.453   8.719  32.193  0.00  0.00    -0.082 A 
ATOM     64  H49 non d ame     -33.332   8.737  31.796  0.00  0.00     0.084 H 
ATOM     65  C32 non d ame     -36.709   9.183  31.794  0.00  0.00    -0.083 A 
ATOM     66  H50 non d ame     -35.362   8.059  33.057  0.00  0.00     0.083 H 
ATOM     67  C33 non d ame     -36.815  10.022  30.693  0.00  0.00    -0.082 A 
ATOM     68  H51 non d ame     -37.605   8.891  32.340  0.00  0.00     0.083 H 
ATOM     69  C34 non d ame     -35.678  10.407  29.985  0.00  0.00    -0.075 A 
ATOM     70  H52 non d ame     -37.797  10.380  30.382  0.00  0.00     0.083 H 
ATOM     71  H53 non d ame     -35.770  11.067  29.122  0.00  0.00     0.084 H 
ENDBRANCH  58  61
ENDBRANCH  57  58
ENDBRANCH  55  57
ENDBRANCH  52  55
ENDBRANCH  49  52
ENDBRANCH  47  49
BRANCH  47  72
ATOM     72  C24 non d ame     -33.212  16.240  27.305  0.00  0.00    -0.039 C 
ATOM     73  H35 non d ame     -33.365  16.845  28.200  0.00  0.00     0.036 H 
ATOM     74  H36 non d ame     -32.806  16.697  26.403  0.00  0.00     0.036 H 
BRANCH  72  75
ATOM     75  C25 non d ame     -34.630  15.604  26.917  0.00  0.00    -0.001 C 
ATOM     76  C26 non d ame     -34.872  15.723  25.295  0.00  0.00    -0.035 C 
ATOM     77  C27 non d ame     -36.084  16.287  25.075  0.00  0.00     0.085 C 
ATOM     78  H38 non d ame     -34.174  16.442  24.865  0.00  0.00     0.036 H 
ATOM     79  H39 non d ame     -34.969  14.730  24.857  0.00  0.00     0.036 H 
ATOM     80  N5  non d ame     -36.549  16.861  26.391  0.00  0.00    -0.049 N 
ATOM     81  H40 non d ame     -35.902  17.103  24.375  0.00  0.00     0.075 H 
ATOM     82  H41 non d ame     -36.740  15.464  24.794  0.00  0.00     0.075 H 
ATOM     83  C28 non d ame     -35.596  16.212  27.521  0.00  0.00     0.193 C 
ATOM     84  H42 non d ame     -36.369  17.854  26.350  0.00  0.00     0.280 HD
ATOM     85  H43 non d ame     -37.491  16.524  26.532  0.00  0.00     0.280 HD
ATOM     86  H44 non d ame     -35.964  15.411  28.162  0.00  0.00     0.129 H 
ATOM     87  H37 non d ame     -34.781  14.624  27.370  0.00  0.00     0.046 H 
BRANCH  83  88
ATOM     88  O6  non d ame     -35.124  17.226  28.409  0.00  0.00    -0.369 OA
ATOM     89  H45 non d ame     -34.339  16.912  28.865  0.00  0.00     0.212 HD
ENDBRANCH  83  88
ENDBRANCH  72  75
ENDBRANCH  47  72
ENDBRANCH  45  47
ENDBRANCH   1  43
BRANCH   1  90
ATOM     90  C16 non d ame     -31.443  14.793  22.872  0.00  0.00    -0.035 C 
ATOM     91  H21 non d ame     -31.795  13.932  22.305  0.00  0.00     0.037 H 
ATOM     92  H22 non d ame     -32.156  15.525  23.251  0.00  0.00     0.037 H 
BRANCH  90  93
ATOM     93  C17 non d ame     -30.469  15.571  21.930  0.00  0.00    -0.059 C 
ATOM     94  H23 non d ame     -30.692  16.633  22.028  0.00  0.00     0.038 H 
BRANCH  93  95
ATOM     95  C18 non d ame     -28.972  15.360  22.326  0.00  0.00    -0.073 C 
ATOM     96  H24 non d ame     -28.330  15.808  21.569  0.00  0.00     0.028 H 
ATOM     97  H25 non d ame     -28.781  15.833  23.289  0.00  0.00     0.028 H 
ATOM     98  H26 non d ame     -28.762  14.293  22.397  0.00  0.00     0.028 H 
ENDBRANCH  93  95
BRANCH  93  99
ATOM     99  C19 non d ame     -30.704  15.191  20.466  0.00  0.00    -0.073 C 
ATOM    100  H27 non d ame     -30.925  14.125  20.398  0.00  0.00     0.028 H 
ATOM    101  H28 non d ame     -31.545  15.761  20.072  0.00  0.00     0.028 H 
ATOM    102  H29 non d ame     -29.810  15.414  19.885  0.00  0.00     0.028 H 
ENDBRANCH  93  99
ENDBRANCH  90  93
ENDBRANCH   1  90
TORSDOF 26
ENDMDL
MODEL 17
REMARK VINA RESULT:      -6.5      3.129      8.079
REMARK  26 active torsions:
REMARK  status: ('A' for Active; 'I' for Inactive)
REMARK    1  A    between atoms: C2_2  and  C3_3 
REMARK    2  A    between atoms: C4_6  and  C5_7 
REMARK       I    between atoms: C5_7  and  N2_9 
REMARK    3  A    between atoms: N2_9  and  C6_10 
REMARK    4  A    between atoms: C6_10  and  C7_11 
REMARK    5  A    between atoms: C6_10  and  C8_13 
REMARK       I    between atoms: C7_11  and  N3_14 
REMARK    6  A    between atoms: N3_14  and  C9_15 
REMARK    7  A    between atoms: C9_15  and  C10_16 
REMARK    8  A    between atoms: C9_15  and  C11_18 
REMARK       I    between atoms: C10_16  and  N4_21 
REMARK    9  A    between atoms: C11_18  and  C12_19 
REMARK   10  A    between atoms: C11_18  and  C13_20 
REMARK   11  A    between atoms: N4_21  and  C14_22 
REMARK   12  A    between atoms: C14_22  and  C15_23 
REMARK   13  A    between atoms: C14_22  and  C16_25 
REMARK       I    between atoms: C15_23  and  N6_40 
REMARK   14  A    between atoms: C16_25  and  C17_26 
REMARK   15  A    between atoms: C17_26  and  C18_27 
REMARK   16  A    between atoms: C17_26  and  C19_28 
REMARK   17  A    between atoms: C20_29  and  C21_30 
REMARK   18  A    between atoms: C20_29  and  C24_33 
REMARK   19  A    between atoms: C20_29  and  N6_40 
REMARK   20  A    between atoms: C21_30  and  C22_31 
REMARK   21  A    between atoms: C22_31  and  C23_32 
REMARK   22  A    between atoms: C23_32  and  O8_43 
REMARK   23  A    between atoms: C24_33  and  C25_34 
REMARK   24  A    between atoms: C28_38  and  O6_39 
REMARK   25  A    between atoms: C29_42  and  O8_43 
REMARK   26  A    between atoms: C29_42  and  C35_49 
ROOT
ATOM      1  C14 non d ame     -33.975   7.250  25.275  0.00  0.00     0.089 C 
ATOM      2  H20 non d ame     -33.058   6.719  25.533  0.00  0.00     0.087 H 
ENDROOT
BRANCH   1   3
ATOM      3  N4  non d ame     -34.769   7.368  26.489  0.00  0.00    -0.346 N 
ATOM      4  C10 non d ame     -34.111   7.727  27.798  0.00  0.00     0.241 C 
ATOM      5  O4  non d ame     -32.940   7.914  27.849  0.00  0.00    -0.271 OA
ATOM      6  H19 non d ame     -35.763   7.202  26.424  0.00  0.00     0.163 HD
BRANCH   4   7
ATOM      7  C9  non d ame     -34.949   7.850  29.043  0.00  0.00     0.092 C 
ATOM      8  H11 non d ame     -34.655   7.074  29.751  0.00  0.00     0.088 H 
BRANCH   7   9
ATOM      9  N3  non d ame     -34.687   9.142  29.684  0.00  0.00    -0.346 N 
ATOM     10  C7  non d ame     -34.459   9.208  31.107  0.00  0.00     0.240 C 
ATOM     11  O3  non d ame     -34.486   8.231  31.751  0.00  0.00    -0.271 OA
ATOM     12  H10 non d ame     -34.663   9.993  29.141  0.00  0.00     0.163 HD
BRANCH  10  13
ATOM     13  C6  non d ame     -34.184  10.587  31.783  0.00  0.00     0.086 C 
ATOM     14  H6  non d ame     -33.353  10.552  32.487  0.00  0.00     0.086 H 
BRANCH  13  15
ATOM     15  N2  non d ame     -33.821  11.551  30.758  0.00  0.00    -0.343 N 
ATOM     16  C5  non d ame     -32.415  11.921  30.581  0.00  0.00     0.273 C 
ATOM     17  O2  non d ame     -31.584  11.440  31.271  0.00  0.00    -0.266 OA
ATOM     18  H5  non d ame     -34.538  11.959  30.174  0.00  0.00     0.163 HD
BRANCH  16  19
ATOM     19  C4  non d ame     -32.017  12.938  29.500  0.00  0.00     0.154 A 
ATOM     20  C1  non d ame     -32.737  14.111  29.108  0.00  0.00    -0.017 A 
ATOM     21  C2  non d ame     -31.955  14.694  28.087  0.00  0.00     0.077 A 
ATOM     22  H1  non d ame     -33.683  14.482  29.505  0.00  0.00     0.091 H 
ATOM     23  O1  non d ame     -30.909  13.938  27.921  0.00  0.00    -0.218 OA
ATOM     24  N1  non d ame     -30.923  12.907  28.733  0.00  0.00    -0.123 NA
BRANCH  21  25
ATOM     25  C3  non d ame     -32.276  15.972  27.324  0.00  0.00    -0.029 C 
ATOM     26  H2  non d ame     -31.352  16.417  26.955  0.00  0.00     0.036 H 
ATOM     27  H3  non d ame     -32.928  15.738  26.482  0.00  0.00     0.036 H 
ATOM     28  H4  non d ame     -32.778  16.675  27.988  0.00  0.00     0.036 H 
ENDBRANCH  21  25
ENDBRANCH  16  19
ENDBRANCH  13  15
BRANCH  13  29
ATOM     29  C8  non d ame     -35.420  11.048  32.512  0.00  0.00    -0.049 C 
ATOM     30  H7  non d ame     -35.913  11.830  31.932  0.00  0.00     0.030 H 
ATOM     31  H8  non d ame     -36.102  10.208  32.639  0.00  0.00     0.030 H 
ATOM     32  H9  non d ame     -35.141  11.442  33.489  0.00  0.00     0.030 H 
ENDBRANCH  13  29
ENDBRANCH  10  13
ENDBRANCH   7   9
BRANCH   7  33
ATOM     33  C11 non d ame     -36.456   7.758  28.665  0.00  0.00    -0.033 C 
ATOM     34  H12 non d ame     -36.520   7.315  27.671  0.00  0.00     0.042 H 
BRANCH  33  35
ATOM     35  C12 non d ame     -37.232   6.823  29.645  0.00  0.00    -0.071 C 
ATOM     36  H13 non d ame     -38.303   6.996  29.541  0.00  0.00     0.028 H 
ATOM     37  H14 non d ame     -37.007   5.783  29.409  0.00  0.00     0.028 H 
ATOM     38  H15 non d ame     -36.928   7.037  30.669  0.00  0.00     0.028 H 
ENDBRANCH  33  35
BRANCH  33  39
ATOM     39  C13 non d ame     -37.105   9.178  28.604  0.00  0.00    -0.071 C 
ATOM     40  H16 non d ame     -38.187   9.079  28.514  0.00  0.00     0.028 H 
ATOM     41  H17 non d ame     -36.865   9.727  29.516  0.00  0.00     0.028 H 
ATOM     42  H18 non d ame     -36.716   9.719  27.742  0.00  0.00     0.028 H 
ENDBRANCH  33  39
ENDBRANCH   7  33
ENDBRANCH   4   7
ENDBRANCH   1   3
BRANCH   1  43
ATOM     43  C15 non d ame     -33.692   8.679  24.728  0.00  0.00     0.240 C 
ATOM     44  O5  non d ame     -34.400   9.143  23.893  0.00  0.00    -0.271 OA
ATOM     45  N6  non d ame     -32.544   9.472  25.251  0.00  0.00    -0.355 N 
ATOM     46  H46 non d ame     -31.939   9.091  25.964  0.00  0.00     0.162 HD
BRANCH  45  47
ATOM     47  C20 non d ame     -32.289  10.830  24.722  0.00  0.00     0.013 C 
ATOM     48  H30 non d ame     -32.852  10.939  23.795  0.00  0.00     0.072 H 
BRANCH  47  49
ATOM     49  C21 non d ame     -30.811  10.991  24.451  0.00  0.00    -0.038 C 
ATOM     50  H31 non d ame     -30.593  12.045  24.624  0.00  0.00     0.036 H 
ATOM     51  H32 non d ame     -30.317  10.226  25.051  0.00  0.00     0.036 H 
BRANCH  49  52
ATOM     52  C22 non d ame     -30.436  10.703  22.981  0.00  0.00     0.018 C 
ATOM     53  H33 non d ame     -31.353  10.842  22.410  0.00  0.00     0.048 H 
ATOM     54  H34 non d ame     -29.564  11.324  22.772  0.00  0.00     0.048 H 
BRANCH  52  55
ATOM     55  C23 non d ame     -29.989   9.237  22.724  0.00  0.00     0.259 C 
ATOM     56  O7  non d ame     -29.009   9.007  22.093  0.00  0.00    -0.265 OA
BRANCH  55  57
ATOM     57  O8  non d ame     -30.774   8.169  23.242  0.00  0.00    -0.317 OA
BRANCH  57  58
ATOM     58  C29 non d ame     -30.472   6.894  22.669  0.00  0.00     0.052 C 
ATOM     59  H47 non d ame     -29.560   7.040  22.089  0.00  0.00     0.082 H 
ATOM     60  H48 non d ame     -30.483   6.187  23.498  0.00  0.00     0.082 H 
BRANCH  58  61
ATOM     61  C35 non d ame     -31.621   6.524  21.693  0.00  0.00    -0.034 A 
ATOM     62  C30 non d ame     -31.703   5.238  21.169  0.00  0.00    -0.075 A 
ATOM     63  C31 non d ame     -32.734   4.905  20.293  0.00  0.00    -0.082 A 
ATOM     64  H49 non d ame     -30.959   4.490  21.446  0.00  0.00     0.084 H 
ATOM     65  C32 non d ame     -33.685   5.866  19.937  0.00  0.00    -0.083 A 
ATOM     66  H50 non d ame     -32.797   3.896  19.885  0.00  0.00     0.083 H 
ATOM     67  C33 non d ame     -33.597   7.149  20.460  0.00  0.00    -0.082 A 
ATOM     68  H51 non d ame     -34.495   5.614  19.253  0.00  0.00     0.083 H 
ATOM     69  C34 non d ame     -32.569   7.485  21.338  0.00  0.00    -0.075 A 
ATOM     70  H52 non d ame     -34.339   7.897  20.179  0.00  0.00     0.083 H 
ATOM     71  H53 non d ame     -32.507   8.495  21.745  0.00  0.00     0.084 H 
ENDBRANCH  58  61
ENDBRANCH  57  58
ENDBRANCH  55  57
ENDBRANCH  52  55
ENDBRANCH  49  52
ENDBRANCH  47  49
BRANCH  47  72
ATOM     72  C24 non d ame     -32.739  11.874  25.741  0.00  0.00    -0.039 C 
ATOM     73  H35 non d ame     -32.477  11.460  26.716  0.00  0.00     0.036 H 
ATOM     74  H36 non d ame     -32.293  12.812  25.411  0.00  0.00     0.036 H 
BRANCH  72  75
ATOM     75  C25 non d ame     -34.328  12.074  25.724  0.00  0.00    -0.001 C 
ATOM     76  C26 non d ame     -34.690  13.678  25.682  0.00  0.00    -0.035 C 
ATOM     77  C27 non d ame     -35.576  13.951  26.670  0.00  0.00     0.085 C 
ATOM     78  H38 non d ame     -33.814  14.266  25.955  0.00  0.00     0.036 H 
ATOM     79  H39 non d ame     -35.243  13.913  24.772  0.00  0.00     0.036 H 
ATOM     80  N5  non d ame     -35.600  12.751  27.585  0.00  0.00    -0.049 N 
ATOM     81  H40 non d ame     -35.157  14.801  27.209  0.00  0.00     0.075 H 
ATOM     82  H41 non d ame     -36.543  14.041  26.177  0.00  0.00     0.075 H 
ATOM     83  C28 non d ame     -34.875  11.559  26.774  0.00  0.00     0.193 C 
ATOM     84  H42 non d ame     -35.031  12.989  28.385  0.00  0.00     0.280 HD
ATOM     85  H43 non d ame     -36.573  12.509  27.712  0.00  0.00     0.280 HD
ATOM     86  H44 non d ame     -35.463  10.761  26.319  0.00  0.00     0.129 H 
ATOM     87  H37 non d ame     -34.816  11.436  24.988  0.00  0.00     0.046 H 
BRANCH  83  88
ATOM     88  O6  non d ame     -33.922  10.901  27.611  0.00  0.00    -0.369 OA
ATOM     89  H45 non d ame     -34.381  10.329  28.231  0.00  0.00     0.212 HD
ENDBRANCH  83  88
ENDBRANCH  72  75
ENDBRANCH  47  72
ENDBRANCH  45  47
ENDBRANCH   1  43
BRANCH   1  90
ATOM     90  C16 non d ame     -34.759   6.454  24.245  0.00  0.00    -0.035 C 
ATOM     91  H21 non d ame     -35.808   6.608  24.498  0.00  0.00     0.037 H 
ATOM     92  H22 non d ame     -34.378   6.781  23.277  0.00  0.00     0.037 H 
BRANCH  90  93
ATOM     93  C17 non d ame     -34.509   4.914  24.320  0.00  0.00    -0.059 C 
ATOM     94  H23 non d ame     -35.059   4.532  25.180  0.00  0.00     0.038 H 
BRANCH  93  95
ATOM     95  C18 non d ame     -35.033   4.169  23.051  0.00  0.00    -0.073 C 
ATOM     96  H24 non d ame     -34.624   3.160  23.027  0.00  0.00     0.028 H 
ATOM     97  H25 non d ame     -36.121   4.118  23.082  0.00  0.00     0.028 H 
ATOM     98  H26 non d ame     -34.721   4.709  22.158  0.00  0.00     0.028 H 
ENDBRANCH  93  95
BRANCH  93  99
ATOM     99  C19 non d ame     -33.027   4.611  24.556  0.00  0.00    -0.073 C 
ATOM    100  H27 non d ame     -32.924   3.617  24.991  0.00  0.00     0.028 H 
ATOM    101  H28 non d ame     -32.492   4.650  23.607  0.00  0.00     0.028 H 
ATOM    102  H29 non d ame     -32.609   5.352  25.238  0.00  0.00     0.028 H 
ENDBRANCH  93  99
ENDBRANCH  90  93
ENDBRANCH   1  90
TORSDOF 26
ENDMDL
MODEL 18
REMARK VINA RESULT:      -6.5      3.425      7.101
REMARK  26 active torsions:
REMARK  status: ('A' for Active; 'I' for Inactive)
REMARK    1  A    between atoms: C2_2  and  C3_3 
REMARK    2  A    between atoms: C4_6  and  C5_7 
REMARK       I    between atoms: C5_7  and  N2_9 
REMARK    3  A    between atoms: N2_9  and  C6_10 
REMARK    4  A    between atoms: C6_10  and  C7_11 
REMARK    5  A    between atoms: C6_10  and  C8_13 
REMARK       I    between atoms: C7_11  and  N3_14 
REMARK    6  A    between atoms: N3_14  and  C9_15 
REMARK    7  A    between atoms: C9_15  and  C10_16 
REMARK    8  A    between atoms: C9_15  and  C11_18 
REMARK       I    between atoms: C10_16  and  N4_21 
REMARK    9  A    between atoms: C11_18  and  C12_19 
REMARK   10  A    between atoms: C11_18  and  C13_20 
REMARK   11  A    between atoms: N4_21  and  C14_22 
REMARK   12  A    between atoms: C14_22  and  C15_23 
REMARK   13  A    between atoms: C14_22  and  C16_25 
REMARK       I    between atoms: C15_23  and  N6_40 
REMARK   14  A    between atoms: C16_25  and  C17_26 
REMARK   15  A    between atoms: C17_26  and  C18_27 
REMARK   16  A    between atoms: C17_26  and  C19_28 
REMARK   17  A    between atoms: C20_29  and  C21_30 
REMARK   18  A    between atoms: C20_29  and  C24_33 
REMARK   19  A    between atoms: C20_29  and  N6_40 
REMARK   20  A    between atoms: C21_30  and  C22_31 
REMARK   21  A    between atoms: C22_31  and  C23_32 
REMARK   22  A    between atoms: C23_32  and  O8_43 
REMARK   23  A    between atoms: C24_33  and  C25_34 
REMARK   24  A    between atoms: C28_38  and  O6_39 
REMARK   25  A    between atoms: C29_42  and  O8_43 
REMARK   26  A    between atoms: C29_42  and  C35_49 
ROOT
ATOM      1  C14 non d ame     -32.175   8.916  24.678  0.00  0.00     0.089 C 
ATOM      2  H20 non d ame     -31.176   8.496  24.797  0.00  0.00     0.087 H 
ENDROOT
BRANCH   1   3
ATOM      3  N4  non d ame     -33.114   7.806  24.627  0.00  0.00    -0.346 N 
ATOM      4  C10 non d ame     -32.623   6.386  24.756  0.00  0.00     0.241 C 
ATOM      5  O4  non d ame     -31.466   6.162  24.897  0.00  0.00    -0.271 OA
ATOM      6  H19 non d ame     -34.094   8.018  24.504  0.00  0.00     0.163 HD
BRANCH   4   7
ATOM      7  C9  non d ame     -33.610   5.249  24.707  0.00  0.00     0.092 C 
ATOM      8  H11 non d ame     -33.076   4.306  24.820  0.00  0.00     0.088 H 
BRANCH   7   9
ATOM      9  N3  non d ame     -34.539   5.359  25.835  0.00  0.00    -0.346 N 
ATOM     10  C7  non d ame     -34.344   4.546  27.011  0.00  0.00     0.240 C 
ATOM     11  O3  non d ame     -33.445   3.798  27.064  0.00  0.00    -0.271 OA
ATOM     12  H10 non d ame     -35.319   5.999  25.803  0.00  0.00     0.163 HD
BRANCH  10  13
ATOM     13  C6  non d ame     -35.338   4.665  28.208  0.00  0.00     0.086 C 
ATOM     14  H6  non d ame     -35.020   4.091  29.078  0.00  0.00     0.086 H 
BRANCH  13  15
ATOM     15  N2  non d ame     -35.405   6.055  28.628  0.00  0.00    -0.343 N 
ATOM     16  C5  non d ame     -35.193   6.394  30.037  0.00  0.00     0.273 C 
ATOM     17  O2  non d ame     -34.971   5.541  30.825  0.00  0.00    -0.266 OA
ATOM     18  H5  non d ame     -35.597   6.777  27.948  0.00  0.00     0.163 HD
BRANCH  16  19
ATOM     19  C4  non d ame     -35.260   7.859  30.495  0.00  0.00     0.154 A 
ATOM     20  C1  non d ame     -35.154   8.352  31.834  0.00  0.00    -0.017 A 
ATOM     21  C2  non d ame     -35.278   9.754  31.716  0.00  0.00     0.077 A 
ATOM     22  H1  non d ame     -35.010   7.780  32.751  0.00  0.00     0.091 H 
ATOM     23  O1  non d ame     -35.434  10.024  30.454  0.00  0.00    -0.218 OA
ATOM     24  N1  non d ame     -35.427   8.935  29.721  0.00  0.00    -0.123 NA
BRANCH  21  25
ATOM     25  C3  non d ame     -35.234  10.762  32.857  0.00  0.00    -0.029 C 
ATOM     26  H2  non d ame     -35.709  10.334  33.739  0.00  0.00     0.036 H 
ATOM     27  H3  non d ame     -34.197  11.007  33.086  0.00  0.00     0.036 H 
ATOM     28  H4  non d ame     -35.764  11.668  32.563  0.00  0.00     0.036 H 
ENDBRANCH  21  25
ENDBRANCH  16  19
ENDBRANCH  13  15
BRANCH  13  29
ATOM     29  C8  non d ame     -36.702   4.188  27.781  0.00  0.00    -0.049 C 
ATOM     30  H7  non d ame     -36.624   3.672  26.824  0.00  0.00     0.030 H 
ATOM     31  H8  non d ame     -37.099   3.504  28.530  0.00  0.00     0.030 H 
ATOM     32  H9  non d ame     -37.371   5.043  27.678  0.00  0.00     0.030 H 
ENDBRANCH  13  29
ENDBRANCH  10  13
ENDBRANCH   7   9
BRANCH   7  33
ATOM     33  C11 non d ame     -34.409   5.314  23.372  0.00  0.00    -0.033 C 
ATOM     34  H12 non d ame     -34.797   6.327  23.270  0.00  0.00     0.042 H 
BRANCH  33  35
ATOM     35  C12 non d ame     -33.487   5.039  22.144  0.00  0.00    -0.071 C 
ATOM     36  H13 non d ame     -32.554   5.591  22.258  0.00  0.00     0.028 H 
ATOM     37  H14 non d ame     -33.273   3.972  22.082  0.00  0.00     0.028 H 
ATOM     38  H15 non d ame     -33.990   5.362  21.232  0.00  0.00     0.028 H 
ENDBRANCH  33  35
BRANCH  33  39
ATOM     39  C13 non d ame     -35.624   4.332  23.400  0.00  0.00    -0.071 C 
ATOM     40  H16 non d ame     -35.260   3.305  23.448  0.00  0.00     0.028 H 
ATOM     41  H17 non d ame     -36.240   4.540  24.276  0.00  0.00     0.028 H 
ATOM     42  H18 non d ame     -36.220   4.466  22.498  0.00  0.00     0.028 H 
ENDBRANCH  33  39
ENDBRANCH   7  33
ENDBRANCH   4   7
ENDBRANCH   1   3
BRANCH   1  43
ATOM     43  C15 non d ame     -32.567   9.843  25.864  0.00  0.00     0.240 C 
ATOM     44  O5  non d ame     -32.932   9.368  26.890  0.00  0.00    -0.271 OA
ATOM     45  N6  non d ame     -32.479  11.325  25.723  0.00  0.00    -0.355 N 
ATOM     46  H46 non d ame     -32.166  11.740  24.858  0.00  0.00     0.162 HD
BRANCH  45  47
ATOM     47  C20 non d ame     -32.854  12.192  26.861  0.00  0.00     0.013 C 
ATOM     48  H30 non d ame     -33.351  11.572  27.606  0.00  0.00     0.072 H 
BRANCH  47  49
ATOM     49  C21 non d ame     -33.796  13.272  26.376  0.00  0.00    -0.038 C 
ATOM     50  H31 non d ame     -33.475  13.509  25.362  0.00  0.00     0.036 H 
ATOM     51  H32 non d ame     -34.800  12.888  26.555  0.00  0.00     0.036 H 
BRANCH  49  52
ATOM     52  C22 non d ame     -33.677  14.579  27.189  0.00  0.00     0.018 C 
ATOM     53  H33 non d ame     -34.684  14.801  27.541  0.00  0.00     0.048 H 
ATOM     54  H34 non d ame     -32.874  14.409  27.907  0.00  0.00     0.048 H 
BRANCH  52  55
ATOM     55  C23 non d ame     -33.241  15.807  26.341  0.00  0.00     0.259 C 
ATOM     56  O7  non d ame     -33.953  16.753  26.239  0.00  0.00    -0.265 OA
BRANCH  55  57
ATOM     57  O8  non d ame     -31.984  15.783  25.676  0.00  0.00    -0.317 OA
BRANCH  57  58
ATOM     58  C29 non d ame     -32.023  16.294  24.340  0.00  0.00     0.052 C 
ATOM     59  H47 non d ame     -33.065  16.225  24.028  0.00  0.00     0.082 H 
ATOM     60  H48 non d ame     -31.530  17.264  24.382  0.00  0.00     0.082 H 
BRANCH  58  61
ATOM     61  C35 non d ame     -31.178  15.352  23.442  0.00  0.00    -0.034 A 
ATOM     62  C30 non d ame     -30.953  14.035  23.831  0.00  0.00    -0.075 A 
ATOM     63  C31 non d ame     -30.193  13.189  23.025  0.00  0.00    -0.082 A 
ATOM     64  H49 non d ame     -31.370  13.666  24.769  0.00  0.00     0.084 H 
ATOM     65  C32 non d ame     -29.656  13.664  21.826  0.00  0.00    -0.083 A 
ATOM     66  H50 non d ame     -30.020  12.157  23.332  0.00  0.00     0.083 H 
ATOM     67  C33 non d ame     -29.880  14.980  21.443  0.00  0.00    -0.082 A 
ATOM     68  H51 non d ame     -29.061  13.009  21.189  0.00  0.00     0.083 H 
ATOM     69  C34 non d ame     -30.641  15.828  22.245  0.00  0.00    -0.075 A 
ATOM     70  H52 non d ame     -29.458  15.348  20.508  0.00  0.00     0.083 H 
ATOM     71  H53 non d ame     -30.814  16.860  21.937  0.00  0.00     0.084 H 
ENDBRANCH  58  61
ENDBRANCH  57  58
ENDBRANCH  55  57
ENDBRANCH  52  55
ENDBRANCH  49  52
ENDBRANCH  47  49
BRANCH  47  72
ATOM     72  C24 non d ame     -31.603  12.836  27.455  0.00  0.00    -0.039 C 
ATOM     73  H35 non d ame     -30.821  12.692  26.708  0.00  0.00     0.036 H 
ATOM     74  H36 non d ame     -31.903  13.843  27.742  0.00  0.00     0.036 H 
BRANCH  72  75
ATOM     75  C25 non d ame     -31.127  12.086  28.788  0.00  0.00    -0.001 C 
ATOM     76  C26 non d ame     -32.430  11.468  29.578  0.00  0.00    -0.035 C 
ATOM     77  C27 non d ame     -32.386  11.868  30.872  0.00  0.00     0.085 C 
ATOM     78  H38 non d ame     -33.346  11.923  29.202  0.00  0.00     0.036 H 
ATOM     79  H39 non d ame     -32.347  10.383  29.644  0.00  0.00     0.036 H 
ATOM     80  N5  non d ame     -31.354  12.967  30.959  0.00  0.00    -0.049 N 
ATOM     81  H40 non d ame     -33.370  12.287  31.080  0.00  0.00     0.075 H 
ATOM     82  H41 non d ame     -32.031  11.004  31.432  0.00  0.00     0.075 H 
ATOM     83  C28 non d ame     -30.511  12.894  29.584  0.00  0.00     0.193 C 
ATOM     84  H42 non d ame     -31.865  13.838  30.977  0.00  0.00     0.280 HD
ATOM     85  H43 non d ame     -30.742  12.724  31.725  0.00  0.00     0.280 HD
ATOM     86  H44 non d ame     -29.510  12.462  29.571  0.00  0.00     0.129 H 
ATOM     87  H37 non d ame     -30.291  11.410  28.606  0.00  0.00     0.046 H 
BRANCH  83  88
ATOM     88  O6  non d ame     -30.370  14.201  29.023  0.00  0.00    -0.369 OA
ATOM     89  H45 non d ame     -30.389  14.855  29.726  0.00  0.00     0.212 HD
ENDBRANCH  83  88
ENDBRANCH  72  75
ENDBRANCH  47  72
ENDBRANCH  45  47
ENDBRANCH   1  43
BRANCH   1  90
ATOM     90  C16 non d ame     -32.255   9.694  23.374  0.00  0.00    -0.035 C 
ATOM     91  H21 non d ame     -33.155   9.333  22.877  0.00  0.00     0.037 H 
ATOM     92  H22 non d ame     -32.172  10.743  23.658  0.00  0.00     0.037 H 
BRANCH  90  93
ATOM     93  C17 non d ame     -31.069   9.405  22.399  0.00  0.00    -0.059 C 
ATOM     94  H23 non d ame     -31.105  10.150  21.604  0.00  0.00     0.038 H 
BRANCH  93  95
ATOM     95  C18 non d ame     -29.681   9.530  23.106  0.00  0.00    -0.073 C 
ATOM     96  H24 non d ame     -29.748  10.260  23.912  0.00  0.00     0.028 H 
ATOM     97  H25 non d ame     -29.394   8.562  23.516  0.00  0.00     0.028 H 
ATOM     98  H26 non d ame     -28.933   9.854  22.383  0.00  0.00     0.028 H 
ENDBRANCH  93  95
BRANCH  93  99
ATOM     99  C19 non d ame     -31.223   8.031  21.741  0.00  0.00    -0.073 C 
ATOM    100  H27 non d ame     -32.193   7.608  22.007  0.00  0.00     0.028 H 
ATOM    101  H28 non d ame     -31.158   8.137  20.658  0.00  0.00     0.028 H 
ATOM    102  H29 non d ame     -30.430   7.370  22.090  0.00  0.00     0.028 H 
ENDBRANCH  93  99
ENDBRANCH  90  93
ENDBRANCH   1  90
TORSDOF 26
ENDMDL
MODEL 19
REMARK VINA RESULT:      -6.5      2.735      8.680
REMARK  26 active torsions:
REMARK  status: ('A' for Active; 'I' for Inactive)
REMARK    1  A    between atoms: C2_2  and  C3_3 
REMARK    2  A    between atoms: C4_6  and  C5_7 
REMARK       I    between atoms: C5_7  and  N2_9 
REMARK    3  A    between atoms: N2_9  and  C6_10 
REMARK    4  A    between atoms: C6_10  and  C7_11 
REMARK    5  A    between atoms: C6_10  and  C8_13 
REMARK       I    between atoms: C7_11  and  N3_14 
REMARK    6  A    between atoms: N3_14  and  C9_15 
REMARK    7  A    between atoms: C9_15  and  C10_16 
REMARK    8  A    between atoms: C9_15  and  C11_18 
REMARK       I    between atoms: C10_16  and  N4_21 
REMARK    9  A    between atoms: C11_18  and  C12_19 
REMARK   10  A    between atoms: C11_18  and  C13_20 
REMARK   11  A    between atoms: N4_21  and  C14_22 
REMARK   12  A    between atoms: C14_22  and  C15_23 
REMARK   13  A    between atoms: C14_22  and  C16_25 
REMARK       I    between atoms: C15_23  and  N6_40 
REMARK   14  A    between atoms: C16_25  and  C17_26 
REMARK   15  A    between atoms: C17_26  and  C18_27 
REMARK   16  A    between atoms: C17_26  and  C19_28 
REMARK   17  A    between atoms: C20_29  and  C21_30 
REMARK   18  A    between atoms: C20_29  and  C24_33 
REMARK   19  A    between atoms: C20_29  and  N6_40 
REMARK   20  A    between atoms: C21_30  and  C22_31 
REMARK   21  A    between atoms: C22_31  and  C23_32 
REMARK   22  A    between atoms: C23_32  and  O8_43 
REMARK   23  A    between atoms: C24_33  and  C25_34 
REMARK   24  A    between atoms: C28_38  and  O6_39 
REMARK   25  A    between atoms: C29_42  and  O8_43 
REMARK   26  A    between atoms: C29_42  and  C35_49 
ROOT
ATOM      1  C14 non d ame     -33.982   6.840  27.812  0.00  0.00     0.089 C 
ATOM      2  H20 non d ame     -33.032   6.469  27.426  0.00  0.00     0.087 H 
ENDROOT
BRANCH   1   3
ATOM      3  N4  non d ame     -33.690   7.967  28.686  0.00  0.00    -0.346 N 
ATOM      4  C10 non d ame     -32.997   9.191  28.144  0.00  0.00     0.241 C 
ATOM      5  O4  non d ame     -32.681   9.246  27.002  0.00  0.00    -0.271 OA
ATOM      6  H19 non d ame     -33.965   7.899  29.656  0.00  0.00     0.163 HD
BRANCH   4   7
ATOM      7  C9  non d ame     -32.708  10.350  29.062  0.00  0.00     0.092 C 
ATOM      8  H11 non d ame     -31.652  10.340  29.330  0.00  0.00     0.088 H 
BRANCH   7   9
ATOM      9  N3  non d ame     -32.963  11.609  28.355  0.00  0.00    -0.346 N 
ATOM     10  C7  non d ame     -31.868  12.494  28.041  0.00  0.00     0.240 C 
ATOM     11  O3  non d ame     -30.776  12.209  28.350  0.00  0.00    -0.271 OA
ATOM     12  H10 non d ame     -33.901  11.869  28.083  0.00  0.00     0.163 HD
BRANCH  10  13
ATOM     13  C6  non d ame     -32.147  13.834  27.291  0.00  0.00     0.086 C 
ATOM     14  H6  non d ame     -31.571  14.668  27.691  0.00  0.00     0.086 H 
BRANCH  13  15
ATOM     15  N2  non d ame     -31.753  13.686  25.900  0.00  0.00    -0.343 N 
ATOM     16  C5  non d ame     -31.303  14.860  25.149  0.00  0.00     0.273 C 
ATOM     17  O2  non d ame     -31.264  15.919  25.672  0.00  0.00    -0.266 OA
ATOM     18  H5  non d ame     -31.792  12.777  25.459  0.00  0.00     0.163 HD
BRANCH  16  19
ATOM     19  C4  non d ame     -30.882  14.718  23.678  0.00  0.00     0.154 A 
ATOM     20  C1  non d ame     -31.264  15.559  22.584  0.00  0.00    -0.017 A 
ATOM     21  C2  non d ame     -30.615  15.007  21.457  0.00  0.00     0.077 A 
ATOM     22  H1  non d ame     -31.912  16.436  22.605  0.00  0.00     0.091 H 
ATOM     23  O1  non d ame     -29.942  13.971  21.867  0.00  0.00    -0.218 OA
ATOM     24  N1  non d ame     -30.082  13.783  23.159  0.00  0.00    -0.123 NA
BRANCH  21  25
ATOM     25  C3  non d ame     -30.690  15.528  20.028  0.00  0.00    -0.029 C 
ATOM     26  H2  non d ame     -31.017  16.567  20.037  0.00  0.00     0.036 H 
ATOM     27  H3  non d ame     -29.706  15.462  19.566  0.00  0.00     0.036 H 
ATOM     28  H4  non d ame     -31.400  14.928  19.459  0.00  0.00     0.036 H 
ENDBRANCH  21  25
ENDBRANCH  16  19
ENDBRANCH  13  15
BRANCH  13  29
ATOM     29  C8  non d ame     -33.615  14.167  27.380  0.00  0.00    -0.049 C 
ATOM     30  H7  non d ame     -34.106  13.467  28.056  0.00  0.00     0.030 H 
ATOM     31  H8  non d ame     -33.734  15.182  27.758  0.00  0.00     0.030 H 
ATOM     32  H9  non d ame     -34.065  14.092  26.390  0.00  0.00     0.030 H 
ENDBRANCH  13  29
ENDBRANCH  10  13
ENDBRANCH   7   9
BRANCH   7  33
ATOM     33  C11 non d ame     -33.631  10.264  30.312  0.00  0.00    -0.033 C 
ATOM     34  H12 non d ame     -33.426   9.315  30.807  0.00  0.00     0.042 H 
BRANCH  33  35
ATOM     35  C12 non d ame     -33.315  11.403  31.332  0.00  0.00    -0.071 C 
ATOM     36  H13 non d ame     -32.249  11.400  31.561  0.00  0.00     0.028 H 
ATOM     37  H14 non d ame     -33.591  12.364  30.900  0.00  0.00     0.028 H 
ATOM     38  H15 non d ame     -33.883  11.239  32.247  0.00  0.00     0.028 H 
ENDBRANCH  33  35
BRANCH  33  39
ATOM     39  C13 non d ame     -35.138  10.278  29.897  0.00  0.00    -0.071 C 
ATOM     40  H16 non d ame     -35.686  10.965  30.543  0.00  0.00     0.028 H 
ATOM     41  H17 non d ame     -35.226  10.604  28.861  0.00  0.00     0.028 H 
ATOM     42  H18 non d ame     -35.551   9.275  29.999  0.00  0.00     0.028 H 
ENDBRANCH  33  39
ENDBRANCH   7  33
ENDBRANCH   4   7
ENDBRANCH   1   3
BRANCH   1  43
ATOM     43  C15 non d ame     -34.927   7.326  26.676  0.00  0.00     0.240 C 
ATOM     44  O5  non d ame     -36.081   7.500  26.902  0.00  0.00    -0.271 OA
ATOM     45  N6  non d ame     -34.392   7.582  25.309  0.00  0.00    -0.355 N 
ATOM     46  H46 non d ame     -33.413   7.442  25.106  0.00  0.00     0.162 HD
BRANCH  45  47
ATOM     47  C20 non d ame     -35.304   8.045  24.240  0.00  0.00     0.013 C 
ATOM     48  H30 non d ame     -36.327   7.883  24.579  0.00  0.00     0.072 H 
BRANCH  47  49
ATOM     49  C21 non d ame     -35.044   7.248  22.982  0.00  0.00    -0.038 C 
ATOM     50  H31 non d ame     -36.020   6.894  22.651  0.00  0.00     0.036 H 
ATOM     51  H32 non d ame     -34.453   7.900  22.338  0.00  0.00     0.036 H 
BRANCH  49  52
ATOM     52  C22 non d ame     -34.186   5.990  23.236  0.00  0.00     0.018 C 
ATOM     53  H33 non d ame     -33.588   6.214  24.118  0.00  0.00     0.048 H 
ATOM     54  H34 non d ame     -34.884   5.153  23.248  0.00  0.00     0.048 H 
BRANCH  52  55
ATOM     55  C23 non d ame     -33.172   5.684  22.099  0.00  0.00     0.259 C 
ATOM     56  O7  non d ame     -33.554   5.418  21.005  0.00  0.00    -0.265 OA
BRANCH  55  57
ATOM     57  O8  non d ame     -31.778   5.713  22.381  0.00  0.00    -0.317 OA
BRANCH  57  58
ATOM     58  C29 non d ame     -31.440   6.431  23.571  0.00  0.00     0.052 C 
ATOM     59  H47 non d ame     -32.380   6.580  24.103  0.00  0.00     0.082 H 
ATOM     60  H48 non d ame     -30.633   5.867  24.038  0.00  0.00     0.082 H 
BRANCH  58  61
ATOM     61  C35 non d ame     -30.888   7.820  23.152  0.00  0.00    -0.034 A 
ATOM     62  C30 non d ame     -31.560   8.979  23.527  0.00  0.00    -0.075 A 
ATOM     63  C31 non d ame     -31.065  10.226  23.151  0.00  0.00    -0.082 A 
ATOM     64  H49 non d ame     -32.475   8.910  24.116  0.00  0.00     0.084 H 
ATOM     65  C32 non d ame     -29.894  10.312  22.393  0.00  0.00    -0.083 A 
ATOM     66  H50 non d ame     -31.593  11.133  23.448  0.00  0.00     0.083 H 
ATOM     67  C33 non d ame     -29.229   9.153  22.018  0.00  0.00    -0.082 A 
ATOM     68  H51 non d ame     -29.499  11.284  22.095  0.00  0.00     0.083 H 
ATOM     69  C34 non d ame     -29.719   7.904  22.394  0.00  0.00    -0.075 A 
ATOM     70  H52 non d ame     -28.316   9.223  21.425  0.00  0.00     0.083 H 
ATOM     71  H53 non d ame     -29.190   6.998  22.097  0.00  0.00     0.084 H 
ENDBRANCH  58  61
ENDBRANCH  57  58
ENDBRANCH  55  57
ENDBRANCH  52  55
ENDBRANCH  49  52
ENDBRANCH  47  49
BRANCH  47  72
ATOM     72  C24 non d ame     -35.065   9.528  23.964  0.00  0.00    -0.039 C 
ATOM     73  H35 non d ame     -34.025   9.710  24.238  0.00  0.00     0.036 H 
ATOM     74  H36 non d ame     -35.393   9.688  22.937  0.00  0.00     0.036 H 
BRANCH  72  75
ATOM     75  C25 non d ame     -35.970  10.459  24.901  0.00  0.00    -0.001 C 
ATOM     76  C26 non d ame     -37.113  11.221  23.996  0.00  0.00    -0.035 C 
ATOM     77  C27 non d ame     -37.068  12.548  24.263  0.00  0.00     0.085 C 
ATOM     78  H38 non d ame     -36.852  11.165  22.939  0.00  0.00     0.036 H 
ATOM     79  H39 non d ame     -38.109  10.929  24.328  0.00  0.00     0.036 H 
ATOM     80  N5  non d ame     -35.786  12.803  25.018  0.00  0.00    -0.049 N 
ATOM     81  H40 non d ame     -37.012  13.039  23.291  0.00  0.00     0.075 H 
ATOM     82  H41 non d ame     -37.913  12.742  24.923  0.00  0.00     0.075 H 
ATOM     83  C28 non d ame     -35.258  11.355  25.498  0.00  0.00     0.193 C 
ATOM     84  H42 non d ame     -35.129  13.179  24.349  0.00  0.00     0.280 HD
ATOM     85  H43 non d ame     -36.038  13.341  25.835  0.00  0.00     0.280 HD
ATOM     86  H44 non d ame     -35.373  11.040  26.536  0.00  0.00     0.129 H 
ATOM     87  H37 non d ame     -36.312   9.938  25.795  0.00  0.00     0.046 H 
BRANCH  83  88
ATOM     88  O6  non d ame     -33.866  11.217  25.210  0.00  0.00    -0.369 OA
ATOM     89  H45 non d ame     -33.386  11.960  25.584  0.00  0.00     0.212 HD
ENDBRANCH  83  88
ENDBRANCH  72  75
ENDBRANCH  47  72
ENDBRANCH  45  47
ENDBRANCH   1  43
BRANCH   1  90
ATOM     90  C16 non d ame     -34.670   5.751  28.619  0.00  0.00    -0.035 C 
ATOM     91  H21 non d ame     -35.593   5.534  28.083  0.00  0.00     0.037 H 
ATOM     92  H22 non d ame     -33.919   4.971  28.750  0.00  0.00     0.037 H 
BRANCH  90  93
ATOM     93  C17 non d ame     -35.089   6.205  30.054  0.00  0.00    -0.059 C 
ATOM     94  H23 non d ame     -34.714   7.217  30.203  0.00  0.00     0.038 H 
BRANCH  93  95
ATOM     95  C18 non d ame     -36.641   6.240  30.231  0.00  0.00    -0.073 C 
ATOM     96  H24 non d ame     -37.052   5.251  30.032  0.00  0.00     0.028 H 
ATOM     97  H25 non d ame     -36.884   6.536  31.251  0.00  0.00     0.028 H 
ATOM     98  H26 non d ame     -37.070   6.959  29.532  0.00  0.00     0.028 H 
ENDBRANCH  93  95
BRANCH  93  99
ATOM     99  C19 non d ame     -34.440   5.318  31.120  0.00  0.00    -0.073 C 
ATOM    100  H27 non d ame     -34.969   5.440  32.065  0.00  0.00     0.028 H 
ATOM    101  H28 non d ame     -34.492   4.275  30.806  0.00  0.00     0.028 H 
ATOM    102  H29 non d ame     -33.397   5.606  31.246  0.00  0.00     0.028 H 
ENDBRANCH  93  99
ENDBRANCH  90  93
ENDBRANCH   1  90
TORSDOF 26
ENDMDL
MODEL 20
REMARK VINA RESULT:      -6.5      2.946      8.919
REMARK  26 active torsions:
REMARK  status: ('A' for Active; 'I' for Inactive)
REMARK    1  A    between atoms: C2_2  and  C3_3 
REMARK    2  A    between atoms: C4_6  and  C5_7 
REMARK       I    between atoms: C5_7  and  N2_9 
REMARK    3  A    between atoms: N2_9  and  C6_10 
REMARK    4  A    between atoms: C6_10  and  C7_11 
REMARK    5  A    between atoms: C6_10  and  C8_13 
REMARK       I    between atoms: C7_11  and  N3_14 
REMARK    6  A    between atoms: N3_14  and  C9_15 
REMARK    7  A    between atoms: C9_15  and  C10_16 
REMARK    8  A    between atoms: C9_15  and  C11_18 
REMARK       I    between atoms: C10_16  and  N4_21 
REMARK    9  A    between atoms: C11_18  and  C12_19 
REMARK   10  A    between atoms: C11_18  and  C13_20 
REMARK   11  A    between atoms: N4_21  and  C14_22 
REMARK   12  A    between atoms: C14_22  and  C15_23 
REMARK   13  A    between atoms: C14_22  and  C16_25 
REMARK       I    between atoms: C15_23  and  N6_40 
REMARK   14  A    between atoms: C16_25  and  C17_26 
REMARK   15  A    between atoms: C17_26  and  C18_27 
REMARK   16  A    between atoms: C17_26  and  C19_28 
REMARK   17  A    between atoms: C20_29  and  C21_30 
REMARK   18  A    between atoms: C20_29  and  C24_33 
REMARK   19  A    between atoms: C20_29  and  N6_40 
REMARK   20  A    between atoms: C21_30  and  C22_31 
REMARK   21  A    between atoms: C22_31  and  C23_32 
REMARK   22  A    between atoms: C23_32  and  O8_43 
REMARK   23  A    between atoms: C24_33  and  C25_34 
REMARK   24  A    between atoms: C28_38  and  O6_39 
REMARK   25  A    between atoms: C29_42  and  O8_43 
REMARK   26  A    between atoms: C29_42  and  C35_49 
ROOT
ATOM      1  C14 non d ame     -33.746   7.224  27.610  0.00  0.00     0.089 C 
ATOM      2  H20 non d ame     -33.172   6.752  28.408  0.00  0.00     0.087 H 
ENDROOT
BRANCH   1   3
ATOM      3  N4  non d ame     -34.219   8.507  28.110  0.00  0.00    -0.346 N 
ATOM      4  C10 non d ame     -34.743   8.629  29.518  0.00  0.00     0.241 C 
ATOM      5  O4  non d ame     -34.778   7.680  30.230  0.00  0.00    -0.271 OA
ATOM      6  H19 non d ame     -34.183   9.301  27.487  0.00  0.00     0.163 HD
BRANCH   4   7
ATOM      7  C9  non d ame     -35.223   9.966  30.020  0.00  0.00     0.092 C 
ATOM      8  H11 non d ame     -35.218   9.962  31.110  0.00  0.00     0.088 H 
BRANCH   7   9
ATOM      9  N3  non d ame     -34.295  11.014  29.586  0.00  0.00    -0.346 N 
ATOM     10  C7  non d ame     -33.130  11.318  30.379  0.00  0.00     0.240 C 
ATOM     11  O3  non d ame     -32.925  10.731  31.371  0.00  0.00    -0.271 OA
ATOM     12  H10 non d ame     -34.460  11.530  28.733  0.00  0.00     0.163 HD
BRANCH  10  13
ATOM     13  C6  non d ame     -32.147  12.437  29.913  0.00  0.00     0.086 C 
ATOM     14  H6  non d ame     -31.627  12.183  28.989  0.00  0.00     0.086 H 
BRANCH  13  15
ATOM     15  N2  non d ame     -32.904  13.648  29.645  0.00  0.00    -0.343 N 
ATOM     16  C5  non d ame     -32.310  14.702  28.820  0.00  0.00     0.273 C 
ATOM     17  O2  non d ame     -31.222  14.567  28.379  0.00  0.00    -0.266 OA
ATOM     18  H5  non d ame     -33.832  13.756  30.029  0.00  0.00     0.163 HD
BRANCH  16  19
ATOM     19  C4  non d ame     -33.100  15.987  28.528  0.00  0.00     0.154 A 
ATOM     20  C1  non d ame     -34.422  16.086  27.989  0.00  0.00    -0.017 A 
ATOM     21  C2  non d ame     -34.682  17.473  27.916  0.00  0.00     0.077 A 
ATOM     22  H1  non d ame     -35.090  15.276  27.696  0.00  0.00     0.091 H 
ATOM     23  O1  non d ame     -33.628  18.089  28.364  0.00  0.00    -0.218 OA
ATOM     24  N1  non d ame     -32.691  17.243  28.726  0.00  0.00    -0.123 NA
BRANCH  21  25
ATOM     25  C3  non d ame     -35.962  18.125  27.408  0.00  0.00    -0.029 C 
ATOM     26  H2  non d ame     -36.300  18.870  28.127  0.00  0.00     0.036 H 
ATOM     27  H3  non d ame     -35.768  18.607  26.450  0.00  0.00     0.036 H 
ATOM     28  H4  non d ame     -36.732  17.364  27.283  0.00  0.00     0.036 H 
ENDBRANCH  21  25
ENDBRANCH  16  19
ENDBRANCH  13  15
BRANCH  13  29
ATOM     29  C8  non d ame     -31.126  12.694  30.992  0.00  0.00    -0.049 C 
ATOM     30  H7  non d ame     -31.485  12.285  31.937  0.00  0.00     0.030 H 
ATOM     31  H8  non d ame     -30.185  12.214  30.723  0.00  0.00     0.030 H 
ATOM     32  H9  non d ame     -30.970  13.768  31.097  0.00  0.00     0.030 H 
ENDBRANCH  13  29
ENDBRANCH  10  13
ENDBRANCH   7   9
BRANCH   7  33
ATOM     33  C11 non d ame     -36.639  10.259  29.442  0.00  0.00    -0.033 C 
ATOM     34  H12 non d ame     -37.125  10.971  30.109  0.00  0.00     0.042 H 
BRANCH  33  35
ATOM     35  C12 non d ame     -36.552  10.921  28.032  0.00  0.00    -0.071 C 
ATOM     36  H13 non d ame     -36.496  12.004  28.142  0.00  0.00     0.028 H 
ATOM     37  H14 non d ame     -35.661  10.562  27.517  0.00  0.00     0.028 H 
ATOM     38  H15 non d ame     -37.437  10.660  27.453  0.00  0.00     0.028 H 
ENDBRANCH  33  35
BRANCH  33  39
ATOM     39  C13 non d ame     -37.508   8.960  29.405  0.00  0.00    -0.071 C 
ATOM     40  H16 non d ame     -37.388   8.470  28.439  0.00  0.00     0.028 H 
ATOM     41  H17 non d ame     -37.186   8.285  30.198  0.00  0.00     0.028 H 
ATOM     42  H18 non d ame     -38.556   9.220  29.554  0.00  0.00     0.028 H 
ENDBRANCH  33  39
ENDBRANCH   7  33
ENDBRANCH   4   7
ENDBRANCH   1   3
BRANCH   1  43
ATOM     43  C15 non d ame     -32.887   7.474  26.338  0.00  0.00     0.240 C 
ATOM     44  O5  non d ame     -32.106   6.652  25.981  0.00  0.00    -0.271 OA
ATOM     45  N6  non d ame     -33.043   8.736  25.559  0.00  0.00    -0.355 N 
ATOM     46  H46 non d ame     -33.706   9.439  25.850  0.00  0.00     0.162 HD
BRANCH  45  47
ATOM     47  C20 non d ame     -32.220   8.958  24.351  0.00  0.00     0.013 C 
ATOM     48  H30 non d ame     -31.311   8.364  24.450  0.00  0.00     0.072 H 
BRANCH  47  49
ATOM     49  C21 non d ame     -31.869  10.425  24.248  0.00  0.00    -0.038 C 
ATOM     50  H31 non d ame     -30.927  10.465  23.702  0.00  0.00     0.036 H 
ATOM     51  H32 non d ame     -32.756  10.911  23.842  0.00  0.00     0.036 H 
BRANCH  49  52
ATOM     52  C22 non d ame     -31.605  11.076  25.623  0.00  0.00     0.018 C 
ATOM     53  H33 non d ame     -31.835  10.309  26.362  0.00  0.00     0.048 H 
ATOM     54  H34 non d ame     -30.600  11.493  25.564  0.00  0.00     0.048 H 
BRANCH  52  55
ATOM     55  C23 non d ame     -32.546  12.271  25.941  0.00  0.00     0.259 C 
ATOM     56  O7  non d ame     -33.385  12.173  26.777  0.00  0.00    -0.265 OA
BRANCH  55  57
ATOM     57  O8  non d ame     -32.403  13.484  25.211  0.00  0.00    -0.317 OA
BRANCH  57  58
ATOM     58  C29 non d ame     -31.059  13.969  25.146  0.00  0.00     0.052 C 
ATOM     59  H47 non d ame     -31.035  14.856  25.779  0.00  0.00     0.082 H 
ATOM     60  H48 non d ame     -30.425  13.115  25.381  0.00  0.00     0.082 H 
BRANCH  58  61
ATOM     61  C35 non d ame     -30.777  14.402  23.682  0.00  0.00    -0.034 A 
ATOM     62  C30 non d ame     -31.321  15.583  23.188  0.00  0.00    -0.075 A 
ATOM     63  C31 non d ame     -31.068  15.971  21.873  0.00  0.00    -0.082 A 
ATOM     64  H49 non d ame     -31.946  16.204  23.830  0.00  0.00     0.084 H 
ATOM     65  C32 non d ame     -30.269  15.173  21.051  0.00  0.00    -0.083 A 
ATOM     66  H50 non d ame     -31.495  16.898  21.489  0.00  0.00     0.083 H 
ATOM     67  C33 non d ame     -29.731  13.993  21.548  0.00  0.00    -0.082 A 
ATOM     68  H51 non d ame     -30.065  15.469  20.022  0.00  0.00     0.083 H 
ATOM     69  C34 non d ame     -29.979  13.602  22.862  0.00  0.00    -0.075 A 
ATOM     70  H52 non d ame     -29.109  13.371  20.903  0.00  0.00     0.083 H 
ATOM     71  H53 non d ame     -29.552  12.675  23.245  0.00  0.00     0.084 H 
ENDBRANCH  58  61
ENDBRANCH  57  58
ENDBRANCH  55  57
ENDBRANCH  52  55
ENDBRANCH  49  52
ENDBRANCH  47  49
BRANCH  47  72
ATOM     72  C24 non d ame     -32.999   8.531  23.109  0.00  0.00    -0.039 C 
ATOM     73  H35 non d ame     -34.001   8.287  23.465  0.00  0.00     0.036 H 
ATOM     74  H36 non d ame     -32.859   9.336  22.388  0.00  0.00     0.036 H 
BRANCH  72  75
ATOM     75  C25 non d ame     -32.392   7.200  22.456  0.00  0.00    -0.001 C 
ATOM     76  C26 non d ame     -32.262   7.384  20.827  0.00  0.00    -0.035 C 
ATOM     77  C27 non d ame     -32.852   6.327  20.220  0.00  0.00     0.085 C 
ATOM     78  H38 non d ame     -32.861   8.233  20.498  0.00  0.00     0.036 H 
ATOM     79  H39 non d ame     -31.219   7.303  20.524  0.00  0.00     0.036 H 
ATOM     80  N5  non d ame     -33.657   5.605  21.274  0.00  0.00    -0.049 N 
ATOM     81  H40 non d ame     -33.533   6.756  19.485  0.00  0.00     0.075 H 
ATOM     82  H41 non d ame     -32.035   5.684  19.896  0.00  0.00     0.075 H 
ATOM     83  C28 non d ame     -33.144   6.178  22.694  0.00  0.00     0.193 C 
ATOM     84  H42 non d ame     -34.618   5.886  21.143  0.00  0.00     0.280 HD
ATOM     85  H43 non d ame     -33.402   4.630  21.210  0.00  0.00     0.280 HD
ATOM     86  H44 non d ame     -32.479   5.585  23.322  0.00  0.00     0.129 H 
ATOM     87  H37 non d ame     -31.508   6.846  22.987  0.00  0.00     0.046 H 
BRANCH  83  88
ATOM     88  O6  non d ame     -34.259   6.510  23.523  0.00  0.00    -0.369 OA
ATOM     89  H45 non d ame     -34.452   5.774  24.109  0.00  0.00     0.212 HD
ENDBRANCH  83  88
ENDBRANCH  72  75
ENDBRANCH  47  72
ENDBRANCH  45  47
ENDBRANCH   1  43
BRANCH   1  90
ATOM     90  C16 non d ame     -34.944   6.357  27.256  0.00  0.00    -0.035 C 
ATOM     91  H21 non d ame     -35.741   6.679  27.926  0.00  0.00     0.037 H 
ATOM     92  H22 non d ame     -35.064   6.459  26.177  0.00  0.00     0.037 H 
BRANCH  90  93
ATOM     93  C17 non d ame     -34.721   4.837  27.535  0.00  0.00    -0.059 C 
ATOM     94  H23 non d ame     -34.189   4.419  26.681  0.00  0.00     0.038 H 
BRANCH  93  95
ATOM     95  C18 non d ame     -33.848   4.592  28.807  0.00  0.00    -0.073 C 
ATOM     96  H24 non d ame     -32.810   4.838  28.588  0.00  0.00     0.028 H 
ATOM     97  H25 non d ame     -34.206   5.224  29.620  0.00  0.00     0.028 H 
ATOM     98  H26 non d ame     -33.920   3.546  29.101  0.00  0.00     0.028 H 
ENDBRANCH  93  95
BRANCH  93  99
ATOM     99  C19 non d ame     -36.058   4.099  27.642  0.00  0.00    -0.073 C 
ATOM    100  H27 non d ame     -36.876   4.819  27.590  0.00  0.00     0.028 H 
ATOM    101  H28 non d ame     -36.149   3.388  26.821  0.00  0.00     0.028 H 
ATOM    102  H29 non d ame     -36.104   3.565  28.591  0.00  0.00     0.028 H 
ENDBRANCH  93  99
ENDBRANCH  90  93
ENDBRANCH   1  90
TORSDOF 26
ENDMDL
