MODEL 1
REMARK VINA RESULT:      -7.3      0.000      0.000
REMARK  26 active torsions:
REMARK  status: ('A' for Active; 'I' for Inactive)
REMARK    1  A    between atoms: C2_2  and  C3_3 
REMARK    2  A    between atoms: C4_6  and  C5_7 
REMARK       I    between atoms: C5_7  and  N2_9 
REMARK    3  A    between atoms: N2_9  and  C6_10 
REMARK    4  A    between atoms: C6_10  and  C7_11 
REMARK    5  A    between atoms: C6_10  and  C8_13 
REMARK       I    between atoms: C7_11  and  N3_14 
REMARK    6  A    between atoms: N3_14  and  C9_15 
REMARK    7  A    between atoms: C9_15  and  C10_16 
REMARK    8  A    between atoms: C9_15  and  C11_18 
REMARK       I    between atoms: C10_16  and  N4_21 
REMARK    9  A    between atoms: C11_18  and  C12_19 
REMARK   10  A    between atoms: C11_18  and  C13_20 
REMARK   11  A    between atoms: N4_21  and  C14_22 
REMARK   12  A    between atoms: C14_22  and  C15_23 
REMARK   13  A    between atoms: C14_22  and  C16_25 
REMARK       I    between atoms: C15_23  and  N6_40 
REMARK   14  A    between atoms: C16_25  and  C17_26 
REMARK   15  A    between atoms: C17_26  and  C18_27 
REMARK   16  A    between atoms: C17_26  and  C19_28 
REMARK   17  A    between atoms: C20_29  and  C21_30 
REMARK   18  A    between atoms: C20_29  and  C24_33 
REMARK   19  A    between atoms: C20_29  and  N6_40 
REMARK   20  A    between atoms: C21_30  and  C22_31 
REMARK   21  A    between atoms: C22_31  and  C23_32 
REMARK   22  A    between atoms: C23_32  and  O8_43 
REMARK   23  A    between atoms: C24_33  and  C25_34 
REMARK   24  A    between atoms: C28_38  and  O6_39 
REMARK   25  A    between atoms: C29_42  and  O8_43 
REMARK   26  A    between atoms: C29_42  and  C35_49 
ROOT
ATOM      1  C14 non d ame     -32.956  10.274  26.379  0.00  0.00     0.089 C 
ATOM      2  H20 non d ame     -33.758  10.611  25.722  0.00  0.00     0.087 H 
ENDROOT
BRANCH   1   3
ATOM      3  N4  non d ame     -32.261   9.189  25.702  0.00  0.00    -0.346 N 
ATOM      4  C10 non d ame     -33.023   8.225  24.828  0.00  0.00     0.241 C 
ATOM      5  O4  non d ame     -34.196   8.341  24.687  0.00  0.00    -0.271 OA
ATOM      6  H19 non d ame     -31.264   9.106  25.837  0.00  0.00     0.163 HD
BRANCH   4   7
ATOM      7  C9  non d ame     -32.288   7.111  24.131  0.00  0.00     0.092 C 
ATOM      8  H11 non d ame     -32.845   6.814  23.243  0.00  0.00     0.088 H 
BRANCH   7   9
ATOM      9  N3  non d ame     -30.980   7.596  23.679  0.00  0.00    -0.346 N 
ATOM     10  C7  non d ame     -30.803   8.025  22.314  0.00  0.00     0.240 C 
ATOM     11  O3  non d ame     -31.702   7.985  21.565  0.00  0.00    -0.271 OA
ATOM     12  H10 non d ame     -30.195   7.634  24.313  0.00  0.00     0.163 HD
BRANCH  10  13
ATOM     13  C6  non d ame     -29.408   8.537  21.838  0.00  0.00     0.086 C 
ATOM     14  H6  non d ame     -29.116   8.128  20.871  0.00  0.00     0.086 H 
BRANCH  13  15
ATOM     15  N2  non d ame     -29.466   9.981  21.678  0.00  0.00    -0.343 N 
ATOM     16  C5  non d ame     -29.921  10.812  22.795  0.00  0.00     0.273 C 
ATOM     17  O2  non d ame     -30.241  10.310  23.816  0.00  0.00    -0.266 OA
ATOM     18  H5  non d ame     -29.193  10.402  20.802  0.00  0.00     0.163 HD
BRANCH  16  19
ATOM     19  C4  non d ame     -29.985  12.340  22.641  0.00  0.00     0.154 A 
ATOM     20  C1  non d ame     -30.725  13.260  23.449  0.00  0.00    -0.017 A 
ATOM     21  C2  non d ame     -30.449  14.531  22.899  0.00  0.00     0.077 A 
ATOM     22  H1  non d ame     -31.365  13.039  24.304  0.00  0.00     0.091 H 
ATOM     23  O1  non d ame     -29.642  14.351  21.894  0.00  0.00    -0.218 OA
ATOM     24  N1  non d ame     -29.357  13.081  21.724  0.00  0.00    -0.123 NA
BRANCH  21  25
ATOM     25  C3  non d ame     -30.993  15.865  23.392  0.00  0.00    -0.029 C 
ATOM     26  H2  non d ame     -30.283  16.314  24.085  0.00  0.00     0.036 H 
ATOM     27  H3  non d ame     -31.144  16.532  22.543  0.00  0.00     0.036 H 
ATOM     28  H4  non d ame     -31.944  15.704  23.900  0.00  0.00     0.036 H 
ENDBRANCH  21  25
ENDBRANCH  16  19
ENDBRANCH  13  15
BRANCH  13  29
ATOM     29  C8  non d ame     -28.361   8.171  22.858  0.00  0.00    -0.049 C 
ATOM     30  H7  non d ame     -28.182   9.022  23.517  0.00  0.00     0.030 H 
ATOM     31  H8  non d ame     -28.708   7.323  23.447  0.00  0.00     0.030 H 
ATOM     32  H9  non d ame     -27.434   7.906  22.349  0.00  0.00     0.030 H 
ENDBRANCH  13  29
ENDBRANCH  10  13
ENDBRANCH   7   9
BRANCH   7  33
ATOM     33  C11 non d ame     -32.085   5.925  25.119  0.00  0.00    -0.033 C 
ATOM     34  H12 non d ame     -31.091   5.515  24.941  0.00  0.00     0.042 H 
BRANCH  33  35
ATOM     35  C12 non d ame     -32.134   6.407  26.603  0.00  0.00    -0.071 C 
ATOM     36  H13 non d ame     -31.236   6.982  26.828  0.00  0.00     0.028 H 
ATOM     37  H14 non d ame     -33.013   7.033  26.752  0.00  0.00     0.028 H 
ATOM     38  H15 non d ame     -32.187   5.542  27.264  0.00  0.00     0.028 H 
ENDBRANCH  33  35
BRANCH  33  39
ATOM     39  C13 non d ame     -33.129   4.793  24.856  0.00  0.00    -0.071 C 
ATOM     40  H16 non d ame     -33.139   4.104  25.701  0.00  0.00     0.028 H 
ATOM     41  H17 non d ame     -34.119   5.233  24.734  0.00  0.00     0.028 H 
ATOM     42  H18 non d ame     -32.858   4.253  23.949  0.00  0.00     0.028 H 
ENDBRANCH  33  39
ENDBRANCH   7  33
ENDBRANCH   4   7
ENDBRANCH   1   3
BRANCH   1  43
ATOM     43  C15 non d ame     -31.932  11.405  26.681  0.00  0.00     0.240 C 
ATOM     44  O5  non d ame     -30.783  11.249  26.418  0.00  0.00    -0.271 OA
ATOM     45  N6  non d ame     -32.384  12.687  27.292  0.00  0.00    -0.355 N 
ATOM     46  H46 non d ame     -33.357  12.834  27.516  0.00  0.00     0.162 HD
BRANCH  45  47
ATOM     47  C20 non d ame     -31.398  13.754  27.573  0.00  0.00     0.013 C 
ATOM     48  H30 non d ame     -30.527  13.579  26.941  0.00  0.00     0.072 H 
BRANCH  47  49
ATOM     49  C21 non d ame     -31.000  13.696  29.030  0.00  0.00    -0.038 C 
ATOM     50  H31 non d ame     -30.151  13.014  29.077  0.00  0.00     0.036 H 
ATOM     51  H32 non d ame     -30.885  14.733  29.345  0.00  0.00     0.036 H 
BRANCH  49  52
ATOM     52  C22 non d ame     -32.099  13.086  29.928  0.00  0.00     0.018 C 
ATOM     53  H33 non d ame     -32.300  13.832  30.695  0.00  0.00     0.048 H 
ATOM     54  H34 non d ame     -32.893  12.773  29.250  0.00  0.00     0.048 H 
BRANCH  52  55
ATOM     55  C23 non d ame     -31.651  11.805  30.684  0.00  0.00     0.259 C 
ATOM     56  O7  non d ame     -30.526  11.681  31.047  0.00  0.00    -0.265 OA
BRANCH  55  57
ATOM     57  O8  non d ame     -32.598  10.772  30.928  0.00  0.00    -0.317 OA
BRANCH  57  58
ATOM     58  C29 non d ame     -33.846  11.238  31.449  0.00  0.00     0.052 C 
ATOM     59  H47 non d ame     -33.653  11.494  32.491  0.00  0.00     0.082 H 
ATOM     60  H48 non d ame     -34.188  12.005  30.754  0.00  0.00     0.082 H 
BRANCH  58  61
ATOM     61  C35 non d ame     -34.852  10.057  31.411  0.00  0.00    -0.034 A 
ATOM     62  C30 non d ame     -34.391   8.754  31.251  0.00  0.00    -0.075 A 
ATOM     63  C31 non d ame     -35.295   7.694  31.217  0.00  0.00    -0.082 A 
ATOM     64  H49 non d ame     -33.322   8.564  31.153  0.00  0.00     0.084 H 
ATOM     65  C32 non d ame     -36.665   7.940  31.340  0.00  0.00    -0.083 A 
ATOM     66  H50 non d ame     -34.931   6.673  31.093  0.00  0.00     0.083 H 
ATOM     67  C33 non d ame     -37.121   9.242  31.495  0.00  0.00    -0.082 A 
ATOM     68  H51 non d ame     -37.379   7.116  31.314  0.00  0.00     0.083 H 
ATOM     69  C34 non d ame     -36.221  10.305  31.532  0.00  0.00    -0.075 A 
ATOM     70  H52 non d ame     -38.190   9.431  31.588  0.00  0.00     0.083 H 
ATOM     71  H53 non d ame     -36.586  11.325  31.656  0.00  0.00     0.084 H 
ENDBRANCH  58  61
ENDBRANCH  57  58
ENDBRANCH  55  57
ENDBRANCH  52  55
ENDBRANCH  49  52
ENDBRANCH  47  49
BRANCH  47  72
ATOM     72  C24 non d ame     -32.011  15.118  27.265  0.00  0.00    -0.039 C 
ATOM     73  H35 non d ame     -31.788  15.739  28.134  0.00  0.00     0.036 H 
ATOM     74  H36 non d ame     -31.626  15.395  26.284  0.00  0.00     0.036 H 
BRANCH  72  75
ATOM     75  C25 non d ame     -33.606  15.037  27.141  0.00  0.00    -0.001 C 
ATOM     76  C26 non d ame     -34.072  15.460  25.622  0.00  0.00    -0.035 C 
ATOM     77  C27 non d ame     -35.034  16.410  25.709  0.00  0.00     0.085 C 
ATOM     78  H38 non d ame     -33.256  15.969  25.109  0.00  0.00     0.036 H 
ATOM     79  H39 non d ame     -34.582  14.625  25.140  0.00  0.00     0.036 H 
ATOM     80  N5  non d ame     -35.034  16.908  27.134  0.00  0.00    -0.049 N 
ATOM     81  H40 non d ame     -34.707  17.216  25.051  0.00  0.00     0.075 H 
ATOM     82  H41 non d ame     -35.972  15.893  25.513  0.00  0.00     0.075 H 
ATOM     83  C28 non d ame     -34.182  15.830  27.982  0.00  0.00     0.193 C 
ATOM     84  H42 non d ame     -34.532  17.784  27.132  0.00  0.00     0.280 HD
ATOM     85  H43 non d ame     -35.994  16.877  27.447  0.00  0.00     0.280 HD
ATOM     86  H44 non d ame     -34.686  15.107  28.623  0.00  0.00     0.129 H 
ATOM     87  H37 non d ame     -34.004  14.103  27.539  0.00  0.00     0.046 H 
BRANCH  83  88
ATOM     88  O6  non d ame     -33.241  16.498  28.824  0.00  0.00    -0.369 OA
ATOM     89  H45 non d ame     -33.341  16.186  29.726  0.00  0.00     0.212 HD
ENDBRANCH  83  88
ENDBRANCH  72  75
ENDBRANCH  47  72
ENDBRANCH  45  47
ENDBRANCH   1  43
BRANCH   1  90
ATOM     90  C16 non d ame     -33.541   9.753  27.681  0.00  0.00    -0.035 C 
ATOM     91  H21 non d ame     -33.385   8.675  27.657  0.00  0.00     0.037 H 
ATOM     92  H22 non d ame     -33.080  10.353  28.466  0.00  0.00     0.037 H 
BRANCH  90  93
ATOM     93  C17 non d ame     -35.083   9.971  27.807  0.00  0.00    -0.059 C 
ATOM     94  H23 non d ame     -35.280  10.367  28.803  0.00  0.00     0.038 H 
BRANCH  93  95
ATOM     95  C18 non d ame     -35.618  11.007  26.767  0.00  0.00    -0.073 C 
ATOM     96  H24 non d ame     -35.119  11.963  26.917  0.00  0.00     0.028 H 
ATOM     97  H25 non d ame     -35.417  10.646  25.759  0.00  0.00     0.028 H 
ATOM     98  H26 non d ame     -36.692  11.133  26.901  0.00  0.00     0.028 H 
ENDBRANCH  93  95
BRANCH  93  99
ATOM     99  C19 non d ame     -35.834   8.643  27.689  0.00  0.00    -0.073 C 
ATOM    100  H27 non d ame     -36.908   8.831  27.692  0.00  0.00     0.028 H 
ATOM    101  H28 non d ame     -35.555   8.148  26.759  0.00  0.00     0.028 H 
ATOM    102  H29 non d ame     -35.575   8.002  28.532  0.00  0.00     0.028 H 
ENDBRANCH  93  99
ENDBRANCH  90  93
ENDBRANCH   1  90
TORSDOF 26
ENDMDL
MODEL 2
REMARK VINA RESULT:      -7.3      3.106      9.212
REMARK  26 active torsions:
REMARK  status: ('A' for Active; 'I' for Inactive)
REMARK    1  A    between atoms: C2_2  and  C3_3 
REMARK    2  A    between atoms: C4_6  and  C5_7 
REMARK       I    between atoms: C5_7  and  N2_9 
REMARK    3  A    between atoms: N2_9  and  C6_10 
REMARK    4  A    between atoms: C6_10  and  C7_11 
REMARK    5  A    between atoms: C6_10  and  C8_13 
REMARK       I    between atoms: C7_11  and  N3_14 
REMARK    6  A    between atoms: N3_14  and  C9_15 
REMARK    7  A    between atoms: C9_15  and  C10_16 
REMARK    8  A    between atoms: C9_15  and  C11_18 
REMARK       I    between atoms: C10_16  and  N4_21 
REMARK    9  A    between atoms: C11_18  and  C12_19 
REMARK   10  A    between atoms: C11_18  and  C13_20 
REMARK   11  A    between atoms: N4_21  and  C14_22 
REMARK   12  A    between atoms: C14_22  and  C15_23 
REMARK   13  A    between atoms: C14_22  and  C16_25 
REMARK       I    between atoms: C15_23  and  N6_40 
REMARK   14  A    between atoms: C16_25  and  C17_26 
REMARK   15  A    between atoms: C17_26  and  C18_27 
REMARK   16  A    between atoms: C17_26  and  C19_28 
REMARK   17  A    between atoms: C20_29  and  C21_30 
REMARK   18  A    between atoms: C20_29  and  C24_33 
REMARK   19  A    between atoms: C20_29  and  N6_40 
REMARK   20  A    between atoms: C21_30  and  C22_31 
REMARK   21  A    between atoms: C22_31  and  C23_32 
REMARK   22  A    between atoms: C23_32  and  O8_43 
REMARK   23  A    between atoms: C24_33  and  C25_34 
REMARK   24  A    between atoms: C28_38  and  O6_39 
REMARK   25  A    between atoms: C29_42  and  O8_43 
REMARK   26  A    between atoms: C29_42  and  C35_49 
ROOT
ATOM      1  C14 non d ame     -37.608  13.888  25.135  0.00  0.00     0.089 C 
ATOM      2  H20 non d ame     -38.622  13.954  25.529  0.00  0.00     0.087 H 
ENDROOT
BRANCH   1   3
ATOM      3  N4  non d ame     -37.036  15.226  25.169  0.00  0.00    -0.346 N 
ATOM      4  C10 non d ame     -37.447  16.202  26.242  0.00  0.00     0.241 C 
ATOM      5  O4  non d ame     -38.242  15.890  27.066  0.00  0.00    -0.271 OA
ATOM      6  H19 non d ame     -36.363  15.473  24.457  0.00  0.00     0.163 HD
BRANCH   4   7
ATOM      7  C9  non d ame     -36.841  17.581  26.265  0.00  0.00     0.092 C 
ATOM      8  H11 non d ame     -37.265  18.145  27.095  0.00  0.00     0.088 H 
BRANCH   7   9
ATOM      9  N3  non d ame     -35.398  17.477  26.504  0.00  0.00    -0.346 N 
ATOM     10  C7  non d ame     -34.822  18.050  27.696  0.00  0.00     0.240 C 
ATOM     11  O3  non d ame     -35.505  18.600  28.472  0.00  0.00    -0.271 OA
ATOM     12  H10 non d ame     -34.796  17.008  25.843  0.00  0.00     0.163 HD
BRANCH  10  13
ATOM     13  C6  non d ame     -33.286  17.939  27.943  0.00  0.00     0.086 C 
ATOM     14  H6  non d ame     -32.972  18.417  28.871  0.00  0.00     0.086 H 
BRANCH  13  15
ATOM     15  N2  non d ame     -32.927  16.535  28.057  0.00  0.00    -0.343 N 
ATOM     16  C5  non d ame     -32.104  16.090  29.183  0.00  0.00     0.273 C 
ATOM     17  O2  non d ame     -31.734  16.869  29.991  0.00  0.00    -0.266 OA
ATOM     18  H5  non d ame     -33.245  15.877  27.360  0.00  0.00     0.163 HD
BRANCH  16  19
ATOM     19  C4  non d ame     -31.718  14.608  29.316  0.00  0.00     0.154 A 
ATOM     20  C1  non d ame     -32.512  13.555  29.871  0.00  0.00    -0.017 A 
ATOM     21  C2  non d ame     -31.710  12.397  29.759  0.00  0.00     0.077 A 
ATOM     22  H1  non d ame     -33.516  13.620  30.290  0.00  0.00     0.091 H 
ATOM     23  O1  non d ame     -30.589  12.755  29.202  0.00  0.00    -0.218 OA
ATOM     24  N1  non d ame     -30.571  14.041  28.935  0.00  0.00    -0.123 NA
BRANCH  21  25
ATOM     25  C3  non d ame     -32.087  10.991  30.205  0.00  0.00    -0.029 C 
ATOM     26  H2  non d ame     -33.170  10.922  30.310  0.00  0.00     0.036 H 
ATOM     27  H3  non d ame     -31.748  10.271  29.462  0.00  0.00     0.036 H 
ATOM     28  H4  non d ame     -31.615  10.775  31.163  0.00  0.00     0.036 H 
ENDBRANCH  21  25
ENDBRANCH  16  19
ENDBRANCH  13  15
BRANCH  13  29
ATOM     29  C8  non d ame     -32.542  18.571  26.795  0.00  0.00    -0.049 C 
ATOM     30  H7  non d ame     -32.110  19.519  27.119  0.00  0.00     0.030 H 
ATOM     31  H8  non d ame     -31.746  17.904  26.466  0.00  0.00     0.030 H 
ATOM     32  H9  non d ame     -33.231  18.750  25.969  0.00  0.00     0.030 H 
ENDBRANCH  13  29
ENDBRANCH  10  13
ENDBRANCH   7   9
BRANCH   7  33
ATOM     33  C11 non d ame     -37.088  18.279  24.896  0.00  0.00    -0.033 C 
ATOM     34  H12 non d ame     -36.598  17.680  24.128  0.00  0.00     0.042 H 
BRANCH  33  35
ATOM     35  C12 non d ame     -38.609  18.332  24.551  0.00  0.00    -0.071 C 
ATOM     36  H13 non d ame     -39.031  19.270  24.912  0.00  0.00     0.028 H 
ATOM     37  H14 non d ame     -38.739  18.267  23.471  0.00  0.00     0.028 H 
ATOM     38  H15 non d ame     -39.119  17.496  25.029  0.00  0.00     0.028 H 
ENDBRANCH  33  35
BRANCH  33  39
ATOM     39  C13 non d ame     -36.452  19.707  24.873  0.00  0.00    -0.071 C 
ATOM     40  H16 non d ame     -36.320  20.029  23.840  0.00  0.00     0.028 H 
ATOM     41  H17 non d ame     -37.109  20.406  25.391  0.00  0.00     0.028 H 
ATOM     42  H18 non d ame     -35.484  19.681  25.373  0.00  0.00     0.028 H 
ENDBRANCH  33  39
ENDBRANCH   7  33
ENDBRANCH   4   7
ENDBRANCH   1   3
BRANCH   1  43
ATOM     43  C15 non d ame     -36.709  12.943  25.982  0.00  0.00     0.240 C 
ATOM     44  O5  non d ame     -36.919  12.812  27.145  0.00  0.00    -0.271 OA
ATOM     45  N6  non d ame     -35.589  12.194  25.343  0.00  0.00    -0.355 N 
ATOM     46  H46 non d ame     -35.404  12.294  24.356  0.00  0.00     0.162 HD
BRANCH  45  47
ATOM     47  C20 non d ame     -34.744  11.299  26.163  0.00  0.00     0.013 C 
ATOM     48  H30 non d ame     -35.379  10.840  26.920  0.00  0.00     0.072 H 
BRANCH  47  49
ATOM     49  C21 non d ame     -33.653  12.110  26.825  0.00  0.00    -0.038 C 
ATOM     50  H31 non d ame     -34.166  12.886  27.392  0.00  0.00     0.036 H 
ATOM     51  H32 non d ame     -33.020  11.386  27.339  0.00  0.00     0.036 H 
BRANCH  49  52
ATOM     52  C22 non d ame     -32.747  12.838  25.808  0.00  0.00     0.018 C 
ATOM     53  H33 non d ame     -31.728  12.697  26.167  0.00  0.00     0.048 H 
ATOM     54  H34 non d ame     -33.037  12.457  24.829  0.00  0.00     0.048 H 
BRANCH  52  55
ATOM     55  C23 non d ame     -32.973  14.374  25.756  0.00  0.00     0.259 C 
ATOM     56  O7  non d ame     -34.067  14.826  25.857  0.00  0.00    -0.265 OA
BRANCH  55  57
ATOM     57  O8  non d ame     -31.857  15.237  25.572  0.00  0.00    -0.317 OA
BRANCH  57  58
ATOM     58  C29 non d ame     -30.677  14.572  25.110  0.00  0.00     0.052 C 
ATOM     59  H47 non d ame     -29.845  15.068  25.610  0.00  0.00     0.082 H 
ATOM     60  H48 non d ame     -30.855  13.510  25.272  0.00  0.00     0.082 H 
BRANCH  58  61
ATOM     61  C35 non d ame     -30.553  14.822  23.584  0.00  0.00    -0.034 A 
ATOM     62  C30 non d ame     -29.875  13.910  22.782  0.00  0.00    -0.075 A 
ATOM     63  C31 non d ame     -29.763  14.135  21.410  0.00  0.00    -0.082 A 
ATOM     64  H49 non d ame     -29.430  13.020  23.227  0.00  0.00     0.084 H 
ATOM     65  C32 non d ame     -30.331  15.278  20.842  0.00  0.00    -0.083 A 
ATOM     66  H50 non d ame     -29.232  13.417  20.784  0.00  0.00     0.083 H 
ATOM     67  C33 non d ame     -31.004  16.187  21.647  0.00  0.00    -0.082 A 
ATOM     68  H51 non d ame     -30.249  15.461  19.770  0.00  0.00     0.083 H 
ATOM     69  C34 non d ame     -31.120  15.966  23.017  0.00  0.00    -0.075 A 
ATOM     70  H52 non d ame     -31.444  17.079  21.200  0.00  0.00     0.083 H 
ATOM     71  H53 non d ame     -31.651  16.683  23.643  0.00  0.00     0.084 H 
ENDBRANCH  58  61
ENDBRANCH  57  58
ENDBRANCH  55  57
ENDBRANCH  52  55
ENDBRANCH  49  52
ENDBRANCH  47  49
BRANCH  47  72
ATOM     72  C24 non d ame     -34.116  10.226  25.275  0.00  0.00    -0.039 C 
ATOM     73  H35 non d ame     -34.763  10.158  24.400  0.00  0.00     0.036 H 
ATOM     74  H36 non d ame     -33.073  10.520  25.159  0.00  0.00     0.036 H 
BRANCH  72  75
ATOM     75  C25 non d ame     -34.127   8.790  25.984  0.00  0.00    -0.001 C 
ATOM     76  C26 non d ame     -34.933   8.877  27.414  0.00  0.00    -0.035 C 
ATOM     77  C27 non d ame     -34.155   8.345  28.387  0.00  0.00     0.085 C 
ATOM     78  H38 non d ame     -35.045   9.918  27.717  0.00  0.00     0.036 H 
ATOM     79  H39 non d ame     -35.802   8.219  27.394  0.00  0.00     0.036 H 
ATOM     80  N5  non d ame     -32.766   8.202  27.813  0.00  0.00    -0.049 N 
ATOM     81  H40 non d ame     -34.136   9.089  29.184  0.00  0.00     0.075 H 
ATOM     82  H41 non d ame     -34.564   7.354  28.577  0.00  0.00     0.075 H 
ATOM     83  C28 non d ame     -32.926   8.374  26.216  0.00  0.00     0.193 C 
ATOM     84  H42 non d ame     -32.229   8.980  28.168  0.00  0.00     0.280 HD
ATOM     85  H43 non d ame     -32.473   7.255  28.007  0.00  0.00     0.280 HD
ATOM     86  H44 non d ame     -32.887   7.505  25.559  0.00  0.00     0.129 H 
ATOM     87  H37 non d ame     -34.417   7.993  25.299  0.00  0.00     0.046 H 
BRANCH  83  88
ATOM     88  O6  non d ame     -31.937   9.276  25.715  0.00  0.00    -0.369 OA
ATOM     89  H45 non d ame     -31.396   9.593  26.442  0.00  0.00     0.212 HD
ENDBRANCH  83  88
ENDBRANCH  72  75
ENDBRANCH  47  72
ENDBRANCH  45  47
ENDBRANCH   1  43
BRANCH   1  90
ATOM     90  C16 non d ame     -37.646  13.401  23.695  0.00  0.00    -0.035 C 
ATOM     91  H21 non d ame     -36.604  13.261  23.410  0.00  0.00     0.037 H 
ATOM     92  H22 non d ame     -38.330  12.552  23.695  0.00  0.00     0.037 H 
BRANCH  90  93
ATOM     93  C17 non d ame     -38.239  14.445  22.696  0.00  0.00    -0.059 C 
ATOM     94  H23 non d ame     -37.816  15.418  22.945  0.00  0.00     0.038 H 
BRANCH  93  95
ATOM     95  C18 non d ame     -37.859  14.125  21.215  0.00  0.00    -0.073 C 
ATOM     96  H24 non d ame     -38.159  14.955  20.575  0.00  0.00     0.028 H 
ATOM     97  H25 non d ame     -36.782  13.980  21.139  0.00  0.00     0.028 H 
ATOM     98  H26 non d ame     -38.371  13.217  20.896  0.00  0.00     0.028 H 
ENDBRANCH  93  95
BRANCH  93  99
ATOM     99  C19 non d ame     -39.757  14.555  22.857  0.00  0.00    -0.073 C 
ATOM    100  H27 non d ame     -40.073  13.981  23.729  0.00  0.00     0.028 H 
ATOM    101  H28 non d ame     -40.034  15.601  22.991  0.00  0.00     0.028 H 
ATOM    102  H29 non d ame     -40.247  14.162  21.966  0.00  0.00     0.028 H 
ENDBRANCH  93  99
ENDBRANCH  90  93
ENDBRANCH   1  90
TORSDOF 26
ENDMDL
MODEL 3
REMARK VINA RESULT:      -7.2      3.526      9.104
REMARK  26 active torsions:
REMARK  status: ('A' for Active; 'I' for Inactive)
REMARK    1  A    between atoms: C2_2  and  C3_3 
REMARK    2  A    between atoms: C4_6  and  C5_7 
REMARK       I    between atoms: C5_7  and  N2_9 
REMARK    3  A    between atoms: N2_9  and  C6_10 
REMARK    4  A    between atoms: C6_10  and  C7_11 
REMARK    5  A    between atoms: C6_10  and  C8_13 
REMARK       I    between atoms: C7_11  and  N3_14 
REMARK    6  A    between atoms: N3_14  and  C9_15 
REMARK    7  A    between atoms: C9_15  and  C10_16 
REMARK    8  A    between atoms: C9_15  and  C11_18 
REMARK       I    between atoms: C10_16  and  N4_21 
REMARK    9  A    between atoms: C11_18  and  C12_19 
REMARK   10  A    between atoms: C11_18  and  C13_20 
REMARK   11  A    between atoms: N4_21  and  C14_22 
REMARK   12  A    between atoms: C14_22  and  C15_23 
REMARK   13  A    between atoms: C14_22  and  C16_25 
REMARK       I    between atoms: C15_23  and  N6_40 
REMARK   14  A    between atoms: C16_25  and  C17_26 
REMARK   15  A    between atoms: C17_26  and  C18_27 
REMARK   16  A    between atoms: C17_26  and  C19_28 
REMARK   17  A    between atoms: C20_29  and  C21_30 
REMARK   18  A    between atoms: C20_29  and  C24_33 
REMARK   19  A    between atoms: C20_29  and  N6_40 
REMARK   20  A    between atoms: C21_30  and  C22_31 
REMARK   21  A    between atoms: C22_31  and  C23_32 
REMARK   22  A    between atoms: C23_32  and  O8_43 
REMARK   23  A    between atoms: C24_33  and  C25_34 
REMARK   24  A    between atoms: C28_38  and  O6_39 
REMARK   25  A    between atoms: C29_42  and  O8_43 
REMARK   26  A    between atoms: C29_42  and  C35_49 
ROOT
ATOM      1  C14 non d ame     -36.562  16.116  26.521  0.00  0.00     0.089 C 
ATOM      2  H20 non d ame     -37.112  16.662  27.287  0.00  0.00     0.087 H 
ENDROOT
BRANCH   1   3
ATOM      3  N4  non d ame     -35.143  16.295  26.790  0.00  0.00    -0.346 N 
ATOM      4  C10 non d ame     -34.687  17.201  27.906  0.00  0.00     0.241 C 
ATOM      5  O4  non d ame     -35.482  17.777  28.573  0.00  0.00    -0.271 OA
ATOM      6  H19 non d ame     -34.482  15.797  26.209  0.00  0.00     0.163 HD
BRANCH   4   7
ATOM      7  C9  non d ame     -33.215  17.370  28.174  0.00  0.00     0.092 C 
ATOM      8  H11 non d ame     -33.081  17.933  29.098  0.00  0.00     0.088 H 
BRANCH   7   9
ATOM      9  N3  non d ame     -32.599  16.055  28.374  0.00  0.00    -0.346 N 
ATOM     10  C7  non d ame     -31.732  15.830  29.505  0.00  0.00     0.240 C 
ATOM     11  O3  non d ame     -31.518  16.696  30.262  0.00  0.00    -0.271 OA
ATOM     12  H10 non d ame     -32.774  15.298  27.729  0.00  0.00     0.163 HD
BRANCH  10  13
ATOM     13  C6  non d ame     -31.078  14.428  29.711  0.00  0.00     0.086 C 
ATOM     14  H6  non d ame     -30.450  14.383  30.601  0.00  0.00     0.086 H 
BRANCH  13  15
ATOM     15  N2  non d ame     -32.128  13.440  29.893  0.00  0.00    -0.343 N 
ATOM     16  C5  non d ame     -31.834  12.199  30.613  0.00  0.00     0.273 C 
ATOM     17  O2  non d ame     -30.749  12.004  31.040  0.00  0.00    -0.266 OA
ATOM     18  H5  non d ame     -33.052  13.613  29.522  0.00  0.00     0.163 HD
BRANCH  16  19
ATOM     19  C4  non d ame     -32.935  11.146  30.813  0.00  0.00     0.154 A 
ATOM     20  C1  non d ame     -33.308  10.102  29.908  0.00  0.00    -0.017 A 
ATOM     21  C2  non d ame     -34.360   9.417  30.557  0.00  0.00     0.077 A 
ATOM     22  H1  non d ame     -32.881   9.876  28.931  0.00  0.00     0.091 H 
ATOM     23  O1  non d ame     -34.558  10.006  31.700  0.00  0.00    -0.218 OA
ATOM     24  N1  non d ame     -33.739  11.018  31.872  0.00  0.00    -0.123 NA
BRANCH  21  25
ATOM     25  C3  non d ame     -35.119   8.213  30.018  0.00  0.00    -0.029 C 
ATOM     26  H2  non d ame     -35.918   7.947  30.710  0.00  0.00     0.036 H 
ATOM     27  H3  non d ame     -35.548   8.459  29.046  0.00  0.00     0.036 H 
ATOM     28  H4  non d ame     -34.436   7.371  29.910  0.00  0.00     0.036 H 
ENDBRANCH  21  25
ENDBRANCH  16  19
ENDBRANCH  13  15
BRANCH  13  29
ATOM     29  C8  non d ame     -30.242  14.079  28.506  0.00  0.00    -0.049 C 
ATOM     30  H7  non d ame     -30.506  13.080  28.158  0.00  0.00     0.030 H 
ATOM     31  H8  non d ame     -30.429  14.801  27.712  0.00  0.00     0.030 H 
ATOM     32  H9  non d ame     -29.186  14.102  28.777  0.00  0.00     0.030 H 
ENDBRANCH  13  29
ENDBRANCH  10  13
ENDBRANCH   7   9
BRANCH   7  33
ATOM     33  C11 non d ame     -32.544  18.073  26.957  0.00  0.00    -0.033 C 
ATOM     34  H12 non d ame     -31.512  18.290  27.231  0.00  0.00     0.042 H 
BRANCH  33  35
ATOM     35  C12 non d ame     -32.512  17.139  25.708  0.00  0.00    -0.071 C 
ATOM     36  H13 non d ame     -32.557  17.743  24.801  0.00  0.00     0.028 H 
ATOM     37  H14 non d ame     -31.591  16.558  25.712  0.00  0.00     0.028 H 
ATOM     38  H15 non d ame     -33.368  16.465  25.736  0.00  0.00     0.028 H 
ENDBRANCH  33  35
BRANCH  33  39
ATOM     39  C13 non d ame     -33.253  19.428  26.634  0.00  0.00    -0.071 C 
ATOM     40  H16 non d ame     -33.157  19.643  25.570  0.00  0.00     0.028 H 
ATOM     41  H17 non d ame     -34.308  19.358  26.898  0.00  0.00     0.028 H 
ATOM     42  H18 non d ame     -32.788  20.228  27.211  0.00  0.00     0.028 H 
ENDBRANCH  33  39
ENDBRANCH   7  33
ENDBRANCH   4   7
ENDBRANCH   1   3
BRANCH   1  43
ATOM     43  C15 non d ame     -36.881  14.593  26.542  0.00  0.00     0.240 C 
ATOM     44  O5  non d ame     -37.975  14.223  26.823  0.00  0.00    -0.271 OA
ATOM     45  N6  non d ame     -35.825  13.597  26.204  0.00  0.00    -0.355 N 
ATOM     46  H46 non d ame     -34.894  13.900  25.959  0.00  0.00     0.162 HD
BRANCH  45  47
ATOM     47  C20 non d ame     -36.145  12.153  26.227  0.00  0.00     0.013 C 
ATOM     48  H30 non d ame     -37.079  12.026  26.773  0.00  0.00     0.072 H 
BRANCH  47  49
ATOM     49  C21 non d ame     -35.032  11.406  26.925  0.00  0.00    -0.038 C 
ATOM     50  H31 non d ame     -34.736  12.035  27.765  0.00  0.00     0.036 H 
ATOM     51  H32 non d ame     -35.419  10.403  27.105  0.00  0.00     0.036 H 
BRANCH  49  52
ATOM     52  C22 non d ame     -33.777  11.238  26.042  0.00  0.00     0.018 C 
ATOM     53  H33 non d ame     -33.322  10.297  26.351  0.00  0.00     0.048 H 
ATOM     54  H34 non d ame     -34.119  11.366  25.014  0.00  0.00     0.048 H 
BRANCH  52  55
ATOM     55  C23 non d ame     -32.697  12.331  26.273  0.00  0.00     0.259 C 
ATOM     56  O7  non d ame     -32.961  13.322  26.872  0.00  0.00    -0.265 OA
BRANCH  55  57
ATOM     57  O8  non d ame     -31.389  12.140  25.747  0.00  0.00    -0.317 OA
BRANCH  57  58
ATOM     58  C29 non d ame     -31.361  11.832  24.351  0.00  0.00     0.052 C 
ATOM     59  H47 non d ame     -30.747  10.936  24.258  0.00  0.00     0.082 H 
ATOM     60  H48 non d ame     -32.403  11.814  24.032  0.00  0.00     0.082 H 
BRANCH  58  61
ATOM     61  C35 non d ame     -30.644  12.997  23.617  0.00  0.00    -0.034 A 
ATOM     62  C30 non d ame     -29.861  12.738  22.497  0.00  0.00    -0.075 A 
ATOM     63  C31 non d ame     -29.217  13.784  21.838  0.00  0.00    -0.082 A 
ATOM     64  H49 non d ame     -29.752  11.715  22.135  0.00  0.00     0.084 H 
ATOM     65  C32 non d ame     -29.355  15.094  22.306  0.00  0.00    -0.083 A 
ATOM     66  H50 non d ame     -28.605  13.578  20.959  0.00  0.00     0.083 H 
ATOM     67  C33 non d ame     -30.135  15.347  23.426  0.00  0.00    -0.082 A 
ATOM     68  H51 non d ame     -28.856  15.917  21.796  0.00  0.00     0.083 H 
ATOM     69  C34 non d ame     -30.783  14.305  24.086  0.00  0.00    -0.075 A 
ATOM     70  H52 non d ame     -30.239  16.370  23.790  0.00  0.00     0.083 H 
ATOM     71  H53 non d ame     -31.394  14.512  24.965  0.00  0.00     0.084 H 
ENDBRANCH  58  61
ENDBRANCH  57  58
ENDBRANCH  55  57
ENDBRANCH  52  55
ENDBRANCH  49  52
ENDBRANCH  47  49
BRANCH  47  72
ATOM     72  C24 non d ame     -36.291  11.634  24.798  0.00  0.00    -0.039 C 
ATOM     73  H35 non d ame     -35.726  12.330  24.177  0.00  0.00     0.036 H 
ATOM     74  H36 non d ame     -36.002  10.583  24.841  0.00  0.00     0.036 H 
BRANCH  72  75
ATOM     75  C25 non d ame     -37.813  11.685  24.301  0.00  0.00    -0.001 C 
ATOM     76  C26 non d ame     -38.237  10.237  23.647  0.00  0.00    -0.035 C 
ATOM     77  C27 non d ame     -38.781  10.453  22.425  0.00  0.00     0.085 C 
ATOM     78  H38 non d ame     -37.346   9.649  23.430  0.00  0.00     0.036 H 
ATOM     79  H39 non d ame     -39.056   9.796  24.216  0.00  0.00     0.036 H 
ATOM     80  N5  non d ame     -38.467  11.880  22.048  0.00  0.00    -0.049 N 
ATOM     81  H40 non d ame     -38.251   9.781  21.749  0.00  0.00     0.075 H 
ATOM     82  H41 non d ame     -39.856  10.350  22.562  0.00  0.00     0.075 H 
ATOM     83  C28 non d ame     -37.982  12.603  23.408  0.00  0.00     0.193 C 
ATOM     84  H42 non d ame     -37.686  11.843  21.408  0.00  0.00     0.280 HD
ATOM     85  H43 non d ame     -39.340  12.297  21.756  0.00  0.00     0.280 HD
ATOM     86  H44 non d ame     -38.648  13.279  23.943  0.00  0.00     0.129 H 
ATOM     87  H37 non d ame     -38.480  12.103  25.055  0.00  0.00     0.046 H 
BRANCH  83  88
ATOM     88  O6  non d ame     -36.788  13.350  23.171  0.00  0.00    -0.369 OA
ATOM     89  H45 non d ame     -36.137  13.135  23.843  0.00  0.00     0.212 HD
ENDBRANCH  83  88
ENDBRANCH  72  75
ENDBRANCH  47  72
ENDBRANCH  45  47
ENDBRANCH   1  43
BRANCH   1  90
ATOM     90  C16 non d ame     -36.883  16.686  25.149  0.00  0.00    -0.035 C 
ATOM     91  H21 non d ame     -35.919  16.813  24.657  0.00  0.00     0.037 H 
ATOM     92  H22 non d ame     -37.628  16.014  24.724  0.00  0.00     0.037 H 
BRANCH  90  93
ATOM     93  C17 non d ame     -37.542  18.101  25.198  0.00  0.00    -0.059 C 
ATOM     94  H23 non d ame     -38.262  18.159  24.382  0.00  0.00     0.038 H 
BRANCH  93  95
ATOM     95  C18 non d ame     -38.316  18.345  26.534  0.00  0.00    -0.073 C 
ATOM     96  H24 non d ame     -39.291  18.779  26.315  0.00  0.00     0.028 H 
ATOM     97  H25 non d ame     -38.449  17.398  27.055  0.00  0.00     0.028 H 
ATOM     98  H26 non d ame     -37.747  19.029  27.163  0.00  0.00     0.028 H 
ENDBRANCH  93  95
BRANCH  93  99
ATOM     99  C19 non d ame     -36.501  19.198  24.964  0.00  0.00    -0.073 C 
ATOM    100  H27 non d ame     -36.095  19.526  25.922  0.00  0.00     0.028 H 
ATOM    101  H28 non d ame     -35.694  18.808  24.343  0.00  0.00     0.028 H 
ATOM    102  H29 non d ame     -36.969  20.043  24.460  0.00  0.00     0.028 H 
ENDBRANCH  93  99
ENDBRANCH  90  93
ENDBRANCH   1  90
TORSDOF 26
ENDMDL
MODEL 4
REMARK VINA RESULT:      -7.1      2.440      8.046
REMARK  26 active torsions:
REMARK  status: ('A' for Active; 'I' for Inactive)
REMARK    1  A    between atoms: C2_2  and  C3_3 
REMARK    2  A    between atoms: C4_6  and  C5_7 
REMARK       I    between atoms: C5_7  and  N2_9 
REMARK    3  A    between atoms: N2_9  and  C6_10 
REMARK    4  A    between atoms: C6_10  and  C7_11 
REMARK    5  A    between atoms: C6_10  and  C8_13 
REMARK       I    between atoms: C7_11  and  N3_14 
REMARK    6  A    between atoms: N3_14  and  C9_15 
REMARK    7  A    between atoms: C9_15  and  C10_16 
REMARK    8  A    between atoms: C9_15  and  C11_18 
REMARK       I    between atoms: C10_16  and  N4_21 
REMARK    9  A    between atoms: C11_18  and  C12_19 
REMARK   10  A    between atoms: C11_18  and  C13_20 
REMARK   11  A    between atoms: N4_21  and  C14_22 
REMARK   12  A    between atoms: C14_22  and  C15_23 
REMARK   13  A    between atoms: C14_22  and  C16_25 
REMARK       I    between atoms: C15_23  and  N6_40 
REMARK   14  A    between atoms: C16_25  and  C17_26 
REMARK   15  A    between atoms: C17_26  and  C18_27 
REMARK   16  A    between atoms: C17_26  and  C19_28 
REMARK   17  A    between atoms: C20_29  and  C21_30 
REMARK   18  A    between atoms: C20_29  and  C24_33 
REMARK   19  A    between atoms: C20_29  and  N6_40 
REMARK   20  A    between atoms: C21_30  and  C22_31 
REMARK   21  A    between atoms: C22_31  and  C23_32 
REMARK   22  A    between atoms: C23_32  and  O8_43 
REMARK   23  A    between atoms: C24_33  and  C25_34 
REMARK   24  A    between atoms: C28_38  and  O6_39 
REMARK   25  A    between atoms: C29_42  and  O8_43 
REMARK   26  A    between atoms: C29_42  and  C35_49 
ROOT
ATOM      1  C14 non d ame     -33.896   7.069  27.837  0.00  0.00     0.089 C 
ATOM      2  H20 non d ame     -33.490   6.644  28.756  0.00  0.00     0.087 H 
ENDROOT
BRANCH   1   3
ATOM      3  N4  non d ame     -34.283   8.443  28.123  0.00  0.00    -0.346 N 
ATOM      4  C10 non d ame     -34.774   8.826  29.496  0.00  0.00     0.241 C 
ATOM      5  O4  non d ame     -34.852   8.010  30.355  0.00  0.00    -0.271 OA
ATOM      6  H19 non d ame     -34.211   9.121  27.378  0.00  0.00     0.163 HD
BRANCH   4   7
ATOM      7  C9  non d ame     -35.164  10.253  29.776  0.00  0.00     0.092 C 
ATOM      8  H11 non d ame     -35.320  10.379  30.848  0.00  0.00     0.088 H 
BRANCH   7   9
ATOM      9  N3  non d ame     -34.067  11.145  29.390  0.00  0.00    -0.346 N 
ATOM     10  C7  non d ame     -33.020  11.450  30.334  0.00  0.00     0.240 C 
ATOM     11  O3  non d ame     -33.045  10.987  31.409  0.00  0.00    -0.271 OA
ATOM     12  H10 non d ame     -34.032  11.553  28.467  0.00  0.00     0.163 HD
BRANCH  10  13
ATOM     13  C6  non d ame     -31.856  12.402  29.918  0.00  0.00     0.086 C 
ATOM     14  H6  non d ame     -31.314  12.048  29.041  0.00  0.00     0.086 H 
BRANCH  13  15
ATOM     15  N2  non d ame     -32.410  13.699  29.568  0.00  0.00    -0.343 N 
ATOM     16  C5  non d ame     -31.690  14.563  28.630  0.00  0.00     0.273 C 
ATOM     17  O2  non d ame     -30.664  14.206  28.165  0.00  0.00    -0.266 OA
ATOM     18  H5  non d ame     -33.287  13.997  29.973  0.00  0.00     0.163 HD
BRANCH  16  19
ATOM     19  C4  non d ame     -32.265  15.936  28.250  0.00  0.00     0.154 A 
ATOM     20  C1  non d ame     -32.564  16.414  26.935  0.00  0.00    -0.017 A 
ATOM     21  C2  non d ame     -33.066  17.721  27.129  0.00  0.00     0.077 A 
ATOM     22  H1  non d ame     -32.436  15.894  25.986  0.00  0.00     0.091 H 
ATOM     23  O1  non d ame     -33.054  17.954  28.409  0.00  0.00    -0.218 OA
ATOM     24  N1  non d ame     -32.591  16.928  29.084  0.00  0.00    -0.123 NA
BRANCH  21  25
ATOM     25  C3  non d ame     -33.535  18.677  26.040  0.00  0.00    -0.029 C 
ATOM     26  H2  non d ame     -34.291  19.348  26.447  0.00  0.00     0.036 H 
ATOM     27  H3  non d ame     -32.688  19.261  25.681  0.00  0.00     0.036 H 
ATOM     28  H4  non d ame     -33.960  18.108  25.214  0.00  0.00     0.036 H 
ENDBRANCH  21  25
ENDBRANCH  16  19
ENDBRANCH  13  15
BRANCH  13  29
ATOM     29  C8  non d ame     -30.887  12.546  31.064  0.00  0.00    -0.049 C 
ATOM     30  H7  non d ame     -31.293  13.244  31.797  0.00  0.00     0.030 H 
ATOM     31  H8  non d ame     -30.732  11.575  31.533  0.00  0.00     0.030 H 
ATOM     32  H9  non d ame     -29.936  12.925  30.690  0.00  0.00     0.030 H 
ENDBRANCH  13  29
ENDBRANCH  10  13
ENDBRANCH   7   9
BRANCH   7  33
ATOM     33  C11 non d ame     -36.436  10.614  28.954  0.00  0.00    -0.033 C 
ATOM     34  H12 non d ame     -36.959  11.406  29.488  0.00  0.00     0.042 H 
BRANCH  33  35
ATOM     35  C12 non d ame     -36.063  11.166  27.543  0.00  0.00    -0.071 C 
ATOM     36  H13 non d ame     -34.994  11.377  27.506  0.00  0.00     0.028 H 
ATOM     37  H14 non d ame     -36.313  10.425  26.784  0.00  0.00     0.028 H 
ATOM     38  H15 non d ame     -36.620  12.084  27.353  0.00  0.00     0.028 H 
ENDBRANCH  33  35
BRANCH  33  39
ATOM     39  C13 non d ame     -37.398   9.387  28.845  0.00  0.00    -0.071 C 
ATOM     40  H16 non d ame     -37.038   8.711  28.070  0.00  0.00     0.028 H 
ATOM     41  H17 non d ame     -37.428   8.863  29.801  0.00  0.00     0.028 H 
ATOM     42  H18 non d ame     -38.400   9.733  28.591  0.00  0.00     0.028 H 
ENDBRANCH  33  39
ENDBRANCH   7  33
ENDBRANCH   4   7
ENDBRANCH   1   3
BRANCH   1  43
ATOM     43  C15 non d ame     -32.853   7.078  26.683  0.00  0.00     0.240 C 
ATOM     44  O5  non d ame     -31.837   6.473  26.800  0.00  0.00    -0.271 OA
ATOM     45  N6  non d ame     -33.126   7.834  25.427  0.00  0.00    -0.355 N 
ATOM     46  H46 non d ame     -33.988   8.347  25.314  0.00  0.00     0.162 HD
BRANCH  45  47
ATOM     47  C20 non d ame     -32.126   7.831  24.338  0.00  0.00     0.013 C 
ATOM     48  H30 non d ame     -31.205   7.400  24.730  0.00  0.00     0.072 H 
BRANCH  47  49
ATOM     49  C21 non d ame     -31.879   9.251  23.883  0.00  0.00    -0.038 C 
ATOM     50  H31 non d ame     -30.833   9.457  24.113  0.00  0.00     0.036 H 
ATOM     51  H32 non d ame     -32.229   9.295  22.851  0.00  0.00     0.036 H 
BRANCH  49  52
ATOM     52  C22 non d ame     -32.711  10.286  24.670  0.00  0.00     0.018 C 
ATOM     53  H33 non d ame     -32.878  11.115  23.983  0.00  0.00     0.048 H 
ATOM     54  H34 non d ame     -33.560   9.735  25.077  0.00  0.00     0.048 H 
BRANCH  52  55
ATOM     55  C23 non d ame     -31.967  10.888  25.894  0.00  0.00     0.259 C 
ATOM     56  O7  non d ame     -32.136  10.442  26.983  0.00  0.00    -0.265 OA
BRANCH  55  57
ATOM     57  O8  non d ame     -31.088  11.990  25.702  0.00  0.00    -0.317 OA
BRANCH  57  58
ATOM     58  C29 non d ame     -31.717  13.146  25.141  0.00  0.00     0.052 C 
ATOM     59  H47 non d ame     -32.663  12.796  24.729  0.00  0.00     0.082 H 
ATOM     60  H48 non d ame     -31.711  13.897  25.931  0.00  0.00     0.082 H 
BRANCH  58  61
ATOM     61  C35 non d ame     -30.830  13.655  23.974  0.00  0.00    -0.034 A 
ATOM     62  C30 non d ame     -30.284  12.750  23.069  0.00  0.00    -0.075 A 
ATOM     63  C31 non d ame     -29.487  13.207  22.020  0.00  0.00    -0.082 A 
ATOM     64  H49 non d ame     -30.479  11.684  23.182  0.00  0.00     0.084 H 
ATOM     65  C32 non d ame     -29.236  14.574  21.879  0.00  0.00    -0.083 A 
ATOM     66  H50 non d ame     -29.062  12.496  21.311  0.00  0.00     0.083 H 
ATOM     67  C33 non d ame     -29.781  15.473  22.786  0.00  0.00    -0.082 A 
ATOM     68  H51 non d ame     -28.615  14.940  21.061  0.00  0.00     0.083 H 
ATOM     69  C34 non d ame     -30.579  15.021  23.834  0.00  0.00    -0.075 A 
ATOM     70  H52 non d ame     -29.581  16.539  22.674  0.00  0.00     0.083 H 
ATOM     71  H53 non d ame     -31.005  15.733  24.542  0.00  0.00     0.084 H 
ENDBRANCH  58  61
ENDBRANCH  57  58
ENDBRANCH  55  57
ENDBRANCH  52  55
ENDBRANCH  49  52
ENDBRANCH  47  49
BRANCH  47  72
ATOM     72  C24 non d ame     -32.642   7.002  23.164  0.00  0.00    -0.039 C 
ATOM     73  H35 non d ame     -31.868   6.258  22.971  0.00  0.00     0.036 H 
ATOM     74  H36 non d ame     -33.644   6.683  23.453  0.00  0.00     0.036 H 
BRANCH  72  75
ATOM     75  C25 non d ame     -32.791   7.884  21.835  0.00  0.00    -0.001 C 
ATOM     76  C26 non d ame     -34.383   8.124  21.498  0.00  0.00    -0.035 C 
ATOM     77  C27 non d ame     -34.612   7.780  20.208  0.00  0.00     0.085 C 
ATOM     78  H38 non d ame     -34.994   7.419  22.061  0.00  0.00     0.036 H 
ATOM     79  H39 non d ame     -34.615   9.189  21.523  0.00  0.00     0.036 H 
ATOM     80  N5  non d ame     -33.397   7.022  19.731  0.00  0.00    -0.049 N 
ATOM     81  H40 non d ame     -35.466   7.104  20.234  0.00  0.00     0.075 H 
ATOM     82  H41 non d ame     -34.679   8.722  19.664  0.00  0.00     0.075 H 
ATOM     83  C28 non d ame     -32.242   7.301  20.823  0.00  0.00     0.193 C 
ATOM     84  H42 non d ame     -33.640   6.042  19.763  0.00  0.00     0.280 HD
ATOM     85  H43 non d ame     -33.122   7.445  18.856  0.00  0.00     0.280 HD
ATOM     86  H44 non d ame     -31.433   8.000  20.607  0.00  0.00     0.129 H 
ATOM     87  H37 non d ame     -32.150   8.765  21.851  0.00  0.00     0.046 H 
BRANCH  83  88
ATOM     88  O6  non d ame     -31.602   6.077  21.188  0.00  0.00    -0.369 OA
ATOM     89  H45 non d ame     -31.603   5.988  22.144  0.00  0.00     0.212 HD
ENDBRANCH  83  88
ENDBRANCH  72  75
ENDBRANCH  47  72
ENDBRANCH  45  47
ENDBRANCH   1  43
BRANCH   1  90
ATOM     90  C16 non d ame     -35.127   6.286  27.409  0.00  0.00    -0.035 C 
ATOM     91  H21 non d ame     -35.969   6.957  27.577  0.00  0.00     0.037 H 
ATOM     92  H22 non d ame     -34.906   5.930  26.402  0.00  0.00     0.037 H 
BRANCH  90  93
ATOM     93  C17 non d ame     -35.396   5.016  28.278  0.00  0.00    -0.059 C 
ATOM     94  H23 non d ame     -35.369   4.151  27.616  0.00  0.00     0.038 H 
BRANCH  93  95
ATOM     95  C18 non d ame     -34.302   4.811  29.375  0.00  0.00    -0.073 C 
ATOM     96  H24 non d ame     -34.749   4.336  30.248  0.00  0.00     0.028 H 
ATOM     97  H25 non d ame     -33.509   4.175  28.983  0.00  0.00     0.028 H 
ATOM     98  H26 non d ame     -33.887   5.777  29.659  0.00  0.00     0.028 H 
ENDBRANCH  93  95
BRANCH  93  99
ATOM     99  C19 non d ame     -36.792   5.067  28.903  0.00  0.00    -0.073 C 
ATOM    100  H27 non d ame     -36.746   5.601  29.853  0.00  0.00     0.028 H 
ATOM    101  H28 non d ame     -37.474   5.585  28.228  0.00  0.00     0.028 H 
ATOM    102  H29 non d ame     -37.151   4.053  29.073  0.00  0.00     0.028 H 
ENDBRANCH  93  99
ENDBRANCH  90  93
ENDBRANCH   1  90
TORSDOF 26
ENDMDL
MODEL 5
REMARK VINA RESULT:      -7.0      3.020      7.132
REMARK  26 active torsions:
REMARK  status: ('A' for Active; 'I' for Inactive)
REMARK    1  A    between atoms: C2_2  and  C3_3 
REMARK    2  A    between atoms: C4_6  and  C5_7 
REMARK       I    between atoms: C5_7  and  N2_9 
REMARK    3  A    between atoms: N2_9  and  C6_10 
REMARK    4  A    between atoms: C6_10  and  C7_11 
REMARK    5  A    between atoms: C6_10  and  C8_13 
REMARK       I    between atoms: C7_11  and  N3_14 
REMARK    6  A    between atoms: N3_14  and  C9_15 
REMARK    7  A    between atoms: C9_15  and  C10_16 
REMARK    8  A    between atoms: C9_15  and  C11_18 
REMARK       I    between atoms: C10_16  and  N4_21 
REMARK    9  A    between atoms: C11_18  and  C12_19 
REMARK   10  A    between atoms: C11_18  and  C13_20 
REMARK   11  A    between atoms: N4_21  and  C14_22 
REMARK   12  A    between atoms: C14_22  and  C15_23 
REMARK   13  A    between atoms: C14_22  and  C16_25 
REMARK       I    between atoms: C15_23  and  N6_40 
REMARK   14  A    between atoms: C16_25  and  C17_26 
REMARK   15  A    between atoms: C17_26  and  C18_27 
REMARK   16  A    between atoms: C17_26  and  C19_28 
REMARK   17  A    between atoms: C20_29  and  C21_30 
REMARK   18  A    between atoms: C20_29  and  C24_33 
REMARK   19  A    between atoms: C20_29  and  N6_40 
REMARK   20  A    between atoms: C21_30  and  C22_31 
REMARK   21  A    between atoms: C22_31  and  C23_32 
REMARK   22  A    between atoms: C23_32  and  O8_43 
REMARK   23  A    between atoms: C24_33  and  C25_34 
REMARK   24  A    between atoms: C28_38  and  O6_39 
REMARK   25  A    between atoms: C29_42  and  O8_43 
REMARK   26  A    between atoms: C29_42  and  C35_49 
ROOT
ATOM      1  C14 non d ame     -30.951  14.201  24.014  0.00  0.00     0.089 C 
ATOM      2  H20 non d ame     -29.912  14.282  24.334  0.00  0.00     0.087 H 
ENDROOT
BRANCH   1   3
ATOM      3  N4  non d ame     -31.360  12.817  24.198  0.00  0.00    -0.346 N 
ATOM      4  C10 non d ame     -30.660  11.710  23.450  0.00  0.00     0.241 C 
ATOM      5  O4  non d ame     -29.772  11.959  22.703  0.00  0.00    -0.271 OA
ATOM      6  H19 non d ame     -32.119  12.626  24.836  0.00  0.00     0.163 HD
BRANCH   4   7
ATOM      7  C9  non d ame     -31.092  10.282  23.656  0.00  0.00     0.092 C 
ATOM      8  H11 non d ame     -30.652   9.904  24.579  0.00  0.00     0.088 H 
BRANCH   7   9
ATOM      9  N3  non d ame     -32.548  10.231  23.819  0.00  0.00    -0.346 N 
ATOM     10  C7  non d ame     -33.120   9.673  25.020  0.00  0.00     0.240 C 
ATOM     11  O3  non d ame     -32.423   9.259  25.865  0.00  0.00    -0.271 OA
ATOM     12  H10 non d ame     -33.162  10.582  23.098  0.00  0.00     0.163 HD
BRANCH  10  13
ATOM     13  C6  non d ame     -34.670   9.618  25.186  0.00  0.00     0.086 C 
ATOM     14  H6  non d ame     -34.977   9.217  26.152  0.00  0.00     0.086 H 
BRANCH  13  15
ATOM     15  N2  non d ame     -35.201  10.969  25.109  0.00  0.00    -0.343 N 
ATOM     16  C5  non d ame     -35.445  11.719  26.343  0.00  0.00     0.273 C 
ATOM     17  O2  non d ame     -35.215  11.226  27.392  0.00  0.00    -0.266 OA
ATOM     18  H5  non d ame     -35.397  11.382  24.208  0.00  0.00     0.163 HD
BRANCH  16  19
ATOM     19  C4  non d ame     -36.004  13.149  26.276  0.00  0.00     0.154 A 
ATOM     20  C1  non d ame     -35.467  14.254  25.542  0.00  0.00    -0.017 A 
ATOM     21  C2  non d ame     -36.343  15.329  25.812  0.00  0.00     0.077 A 
ATOM     22  H1  non d ame     -34.579  14.273  24.910  0.00  0.00     0.091 H 
ATOM     23  O1  non d ame     -37.271  14.883  26.608  0.00  0.00    -0.218 OA
ATOM     24  N1  non d ame     -37.094  13.614  26.893  0.00  0.00    -0.123 NA
BRANCH  21  25
ATOM     25  C3  non d ame     -36.223  16.748  25.271  0.00  0.00    -0.029 C 
ATOM     26  H2  non d ame     -35.624  16.740  24.360  0.00  0.00     0.036 H 
ATOM     27  H3  non d ame     -37.216  17.137  25.049  0.00  0.00     0.036 H 
ATOM     28  H4  non d ame     -35.742  17.382  26.016  0.00  0.00     0.036 H 
ENDBRANCH  21  25
ENDBRANCH  16  19
ENDBRANCH  13  15
BRANCH  13  29
ATOM     29  C8  non d ame     -35.266   8.766  24.094  0.00  0.00    -0.049 C 
ATOM     30  H7  non d ame     -34.956   9.152  23.123  0.00  0.00     0.030 H 
ATOM     31  H8  non d ame     -34.919   7.739  24.205  0.00  0.00     0.030 H 
ATOM     32  H9  non d ame     -36.353   8.792  24.165  0.00  0.00     0.030 H 
ENDBRANCH  13  29
ENDBRANCH  10  13
ENDBRANCH   7   9
BRANCH   7  33
ATOM     33  C11 non d ame     -30.681   9.431  22.419  0.00  0.00    -0.033 C 
ATOM     34  H12 non d ame     -30.538  10.116  21.583  0.00  0.00     0.042 H 
BRANCH  33  35
ATOM     35  C12 non d ame     -29.327   8.695  22.661  0.00  0.00    -0.071 C 
ATOM     36  H13 non d ame     -29.490   7.617  22.640  0.00  0.00     0.028 H 
ATOM     37  H14 non d ame     -28.619   8.970  21.879  0.00  0.00     0.028 H 
ATOM     38  H15 non d ame     -28.925   8.982  23.632  0.00  0.00     0.028 H 
ENDBRANCH  33  35
BRANCH  33  39
ATOM     39  C13 non d ame     -31.812   8.425  22.031  0.00  0.00    -0.071 C 
ATOM     40  H16 non d ame     -31.394   7.421  21.953  0.00  0.00     0.028 H 
ATOM     41  H17 non d ame     -32.588   8.438  22.797  0.00  0.00     0.028 H 
ATOM     42  H18 non d ame     -32.244   8.715  21.074  0.00  0.00     0.028 H 
ENDBRANCH  33  39
ENDBRANCH   7  33
ENDBRANCH   4   7
ENDBRANCH   1   3
BRANCH   1  43
ATOM     43  C15 non d ame     -31.895  15.112  24.850  0.00  0.00     0.240 C 
ATOM     44  O5  non d ame     -32.700  15.792  24.300  0.00  0.00    -0.271 OA
ATOM     45  N6  non d ame     -31.802  15.129  26.338  0.00  0.00    -0.355 N 
ATOM     46  H46 non d ame     -31.126  14.551  26.816  0.00  0.00     0.162 HD
BRANCH  45  47
ATOM     47  C20 non d ame     -32.708  15.999  27.119  0.00  0.00     0.013 C 
ATOM     48  H30 non d ame     -33.698  15.943  26.667  0.00  0.00     0.072 H 
BRANCH  47  49
ATOM     49  C21 non d ame     -32.198  17.421  27.072  0.00  0.00    -0.038 C 
ATOM     50  H31 non d ame     -31.345  17.451  27.750  0.00  0.00     0.036 H 
ATOM     51  H32 non d ame     -32.062  17.650  26.015  0.00  0.00     0.036 H 
BRANCH  49  52
ATOM     52  C22 non d ame     -33.222  18.443  27.612  0.00  0.00     0.018 C 
ATOM     53  H33 non d ame     -34.072  17.856  27.955  0.00  0.00     0.048 H 
ATOM     54  H34 non d ame     -32.671  19.069  28.315  0.00  0.00     0.048 H 
BRANCH  52  55
ATOM     55  C23 non d ame     -33.777  19.406  26.526  0.00  0.00     0.259 C 
ATOM     56  O7  non d ame     -33.475  19.268  25.385  0.00  0.00    -0.265 OA
BRANCH  55  57
ATOM     57  O8  non d ame     -34.644  20.466  26.912  0.00  0.00    -0.317 OA
BRANCH  57  58
ATOM     58  C29 non d ame     -36.025  20.220  26.631  0.00  0.00     0.052 C 
ATOM     59  H47 non d ame     -36.446  21.186  26.354  0.00  0.00     0.082 H 
ATOM     60  H48 non d ame     -36.039  19.395  25.920  0.00  0.00     0.082 H 
BRANCH  58  61
ATOM     61  C35 non d ame     -36.704  19.747  27.944  0.00  0.00    -0.034 A 
ATOM     62  C30 non d ame     -37.567  18.656  27.929  0.00  0.00    -0.075 A 
ATOM     63  C31 non d ame     -38.177  18.231  29.108  0.00  0.00    -0.082 A 
ATOM     64  H49 non d ame     -37.765  18.133  26.992  0.00  0.00     0.084 H 
ATOM     65  C32 non d ame     -37.924  18.904  30.306  0.00  0.00    -0.083 A 
ATOM     66  H50 non d ame     -38.852  17.374  29.092  0.00  0.00     0.083 H 
ATOM     67  C33 non d ame     -37.065  19.994  30.316  0.00  0.00    -0.082 A 
ATOM     68  H51 non d ame     -38.396  18.578  31.233  0.00  0.00     0.083 H 
ATOM     69  C34 non d ame     -36.451  20.421  29.141  0.00  0.00    -0.075 A 
ATOM     70  H52 non d ame     -36.871  20.518  31.253  0.00  0.00     0.083 H 
ATOM     71  H53 non d ame     -35.777  21.277  29.157  0.00  0.00     0.084 H 
ENDBRANCH  58  61
ENDBRANCH  57  58
ENDBRANCH  55  57
ENDBRANCH  52  55
ENDBRANCH  49  52
ENDBRANCH  47  49
BRANCH  47  72
ATOM     72  C24 non d ame     -32.758  15.523  28.569  0.00  0.00    -0.039 C 
ATOM     73  H35 non d ame     -32.504  16.396  29.170  0.00  0.00     0.036 H 
ATOM     74  H36 non d ame     -33.732  15.046  28.685  0.00  0.00     0.036 H 
BRANCH  72  75
ATOM     75  C25 non d ame     -31.648  14.406  28.865  0.00  0.00    -0.001 C 
ATOM     76  C26 non d ame     -32.374  12.981  29.245  0.00  0.00    -0.035 C 
ATOM     77  C27 non d ame     -31.847  12.518  30.404  0.00  0.00     0.085 C 
ATOM     78  H38 non d ame     -33.422  13.150  29.491  0.00  0.00     0.036 H 
ATOM     79  H39 non d ame     -32.101  12.216  28.518  0.00  0.00     0.036 H 
ATOM     80  N5  non d ame     -31.064  13.653  31.018  0.00  0.00    -0.049 N 
ATOM     81  H40 non d ame     -32.701  12.289  31.041  0.00  0.00     0.075 H 
ATOM     82  H41 non d ame     -31.157  11.727  30.114  0.00  0.00     0.075 H 
ATOM     83  C28 non d ame     -30.887  14.753  29.850  0.00  0.00     0.193 C 
ATOM     84  H42 non d ame     -31.649  14.045  31.742  0.00  0.00     0.280 HD
ATOM     85  H43 non d ame     -30.155  13.280  31.250  0.00  0.00     0.280 HD
ATOM     86  H44 non d ame     -29.933  14.864  29.333  0.00  0.00     0.129 H 
ATOM     87  H37 non d ame     -30.874  14.380  28.098  0.00  0.00     0.046 H 
BRANCH  83  88
ATOM     88  O6  non d ame     -31.207  16.054  30.345  0.00  0.00    -0.369 OA
ATOM     89  H45 non d ame     -30.980  16.713  29.684  0.00  0.00     0.212 HD
ENDBRANCH  83  88
ENDBRANCH  72  75
ENDBRANCH  47  72
ENDBRANCH  45  47
ENDBRANCH   1  43
BRANCH   1  90
ATOM     90  C16 non d ame     -31.066  14.561  22.541  0.00  0.00    -0.035 C 
ATOM     91  H21 non d ame     -30.853  13.639  22.001  0.00  0.00     0.037 H 
ATOM     92  H22 non d ame     -32.039  15.041  22.437  0.00  0.00     0.037 H 
BRANCH  90  93
ATOM     93  C17 non d ame     -30.006  15.605  22.067  0.00  0.00    -0.059 C 
ATOM     94  H23 non d ame     -30.194  16.535  22.604  0.00  0.00     0.038 H 
BRANCH  93  95
ATOM     95  C18 non d ame     -28.546  15.153  22.393  0.00  0.00    -0.073 C 
ATOM     96  H24 non d ame     -28.153  14.566  21.563  0.00  0.00     0.028 H 
ATOM     97  H25 non d ame     -27.919  16.031  22.545  0.00  0.00     0.028 H 
ATOM     98  H26 non d ame     -28.548  14.546  23.298  0.00  0.00     0.028 H 
ENDBRANCH  93  95
BRANCH  93  99
ATOM     99  C19 non d ame     -30.162  15.903  20.573  0.00  0.00    -0.073 C 
ATOM    100  H27 non d ame     -29.276  15.561  20.039  0.00  0.00     0.028 H 
ATOM    101  H28 non d ame     -31.041  15.384  20.189  0.00  0.00     0.028 H 
ATOM    102  H29 non d ame     -30.283  16.976  20.427  0.00  0.00     0.028 H 
ENDBRANCH  93  99
ENDBRANCH  90  93
ENDBRANCH   1  90
TORSDOF 26
ENDMDL
MODEL 6
REMARK VINA RESULT:      -7.0      2.716      5.770
REMARK  26 active torsions:
REMARK  status: ('A' for Active; 'I' for Inactive)
REMARK    1  A    between atoms: C2_2  and  C3_3 
REMARK    2  A    between atoms: C4_6  and  C5_7 
REMARK       I    between atoms: C5_7  and  N2_9 
REMARK    3  A    between atoms: N2_9  and  C6_10 
REMARK    4  A    between atoms: C6_10  and  C7_11 
REMARK    5  A    between atoms: C6_10  and  C8_13 
REMARK       I    between atoms: C7_11  and  N3_14 
REMARK    6  A    between atoms: N3_14  and  C9_15 
REMARK    7  A    between atoms: C9_15  and  C10_16 
REMARK    8  A    between atoms: C9_15  and  C11_18 
REMARK       I    between atoms: C10_16  and  N4_21 
REMARK    9  A    between atoms: C11_18  and  C12_19 
REMARK   10  A    between atoms: C11_18  and  C13_20 
REMARK   11  A    between atoms: N4_21  and  C14_22 
REMARK   12  A    between atoms: C14_22  and  C15_23 
REMARK   13  A    between atoms: C14_22  and  C16_25 
REMARK       I    between atoms: C15_23  and  N6_40 
REMARK   14  A    between atoms: C16_25  and  C17_26 
REMARK   15  A    between atoms: C17_26  and  C18_27 
REMARK   16  A    between atoms: C17_26  and  C19_28 
REMARK   17  A    between atoms: C20_29  and  C21_30 
REMARK   18  A    between atoms: C20_29  and  C24_33 
REMARK   19  A    between atoms: C20_29  and  N6_40 
REMARK   20  A    between atoms: C21_30  and  C22_31 
REMARK   21  A    between atoms: C22_31  and  C23_32 
REMARK   22  A    between atoms: C23_32  and  O8_43 
REMARK   23  A    between atoms: C24_33  and  C25_34 
REMARK   24  A    between atoms: C28_38  and  O6_39 
REMARK   25  A    between atoms: C29_42  and  O8_43 
REMARK   26  A    between atoms: C29_42  and  C35_49 
ROOT
ATOM      1  C14 non d ame     -33.215   9.843  24.788  0.00  0.00     0.089 C 
ATOM      2  H20 non d ame     -33.611   9.069  24.129  0.00  0.00     0.087 H 
ENDROOT
BRANCH   1   3
ATOM      3  N4  non d ame     -34.202  10.910  24.852  0.00  0.00    -0.346 N 
ATOM      4  C10 non d ame     -35.672  10.597  24.729  0.00  0.00     0.241 C 
ATOM      5  O4  non d ame     -36.036   9.478  24.575  0.00  0.00    -0.271 OA
ATOM      6  H19 non d ame     -33.872  11.856  24.981  0.00  0.00     0.163 HD
BRANCH   4   7
ATOM      7  C9  non d ame     -36.680  11.713  24.803  0.00  0.00     0.092 C 
ATOM      8  H11 non d ame     -37.192  11.670  25.765  0.00  0.00     0.088 H 
BRANCH   7   9
ATOM      9  N3  non d ame     -35.987  13.004  24.739  0.00  0.00    -0.346 N 
ATOM     10  C7  non d ame     -35.989  13.881  25.884  0.00  0.00     0.240 C 
ATOM     11  O3  non d ame     -36.545  13.564  26.865  0.00  0.00    -0.271 OA
ATOM     12  H10 non d ame     -35.505  13.291  23.900  0.00  0.00     0.163 HD
BRANCH  10  13
ATOM     13  C6  non d ame     -35.253  15.254  25.809  0.00  0.00     0.086 C 
ATOM     14  H6  non d ame     -34.806  15.545  26.759  0.00  0.00     0.086 H 
BRANCH  13  15
ATOM     15  N2  non d ame     -34.164  15.152  24.851  0.00  0.00    -0.343 N 
ATOM     16  C5  non d ame     -32.779  15.203  25.325  0.00  0.00     0.273 C 
ATOM     17  O2  non d ame     -32.552  15.329  26.479  0.00  0.00    -0.266 OA
ATOM     18  H5  non d ame     -34.367  15.048  23.867  0.00  0.00     0.163 HD
BRANCH  16  19
ATOM     19  C4  non d ame     -31.618  15.096  24.325  0.00  0.00     0.154 A 
ATOM     20  C1  non d ame     -31.115  13.906  23.709  0.00  0.00    -0.017 A 
ATOM     21  C2  non d ame     -30.057  14.345  22.882  0.00  0.00     0.077 A 
ATOM     22  H1  non d ame     -31.463  12.882  23.842  0.00  0.00     0.091 H 
ATOM     23  O1  non d ame     -29.972  15.636  23.013  0.00  0.00    -0.218 OA
ATOM     24  N1  non d ame     -30.872  16.098  23.850  0.00  0.00    -0.123 NA
BRANCH  21  25
ATOM     25  C3  non d ame     -29.179  13.467  21.999  0.00  0.00    -0.029 C 
ATOM     26  H2  non d ame     -29.303  12.423  22.286  0.00  0.00     0.036 H 
ATOM     27  H3  non d ame     -29.472  13.593  20.957  0.00  0.00     0.036 H 
ATOM     28  H4  non d ame     -28.136  13.757  22.121  0.00  0.00     0.036 H 
ENDBRANCH  21  25
ENDBRANCH  16  19
ENDBRANCH  13  15
BRANCH  13  29
ATOM     29  C8  non d ame     -36.222  16.324  25.377  0.00  0.00    -0.049 C 
ATOM     30  H7  non d ame     -37.041  15.869  24.820  0.00  0.00     0.030 H 
ATOM     31  H8  non d ame     -36.618  16.831  26.256  0.00  0.00     0.030 H 
ATOM     32  H9  non d ame     -35.708  17.046  24.742  0.00  0.00     0.030 H 
ENDBRANCH  13  29
ENDBRANCH  10  13
ENDBRANCH   7   9
BRANCH   7  33
ATOM     33  C11 non d ame     -37.670  11.599  23.607  0.00  0.00    -0.033 C 
ATOM     34  H12 non d ame     -37.278  10.843  22.927  0.00  0.00     0.042 H 
BRANCH  33  35
ATOM     35  C12 non d ame     -39.079  11.120  24.079  0.00  0.00    -0.071 C 
ATOM     36  H13 non d ame     -39.393  10.267  23.477  0.00  0.00     0.028 H 
ATOM     37  H14 non d ame     -39.031  10.828  25.127  0.00  0.00     0.028 H 
ATOM     38  H15 non d ame     -39.797  11.932  23.960  0.00  0.00     0.028 H 
ENDBRANCH  33  35
BRANCH  33  39
ATOM     39  C13 non d ame     -37.763  12.950  22.827  0.00  0.00    -0.071 C 
ATOM     40  H16 non d ame     -37.905  13.768  23.533  0.00  0.00     0.028 H 
ATOM     41  H17 non d ame     -36.841  13.110  22.266  0.00  0.00     0.028 H 
ATOM     42  H18 non d ame     -38.606  12.914  22.137  0.00  0.00     0.028 H 
ENDBRANCH  33  39
ENDBRANCH   7  33
ENDBRANCH   4   7
ENDBRANCH   1   3
BRANCH   1  43
ATOM     43  C15 non d ame     -32.962   9.314  26.229  0.00  0.00     0.240 C 
ATOM     44  O5  non d ame     -32.488   8.236  26.388  0.00  0.00    -0.271 OA
ATOM     45  N6  non d ame     -33.303  10.157  27.411  0.00  0.00    -0.355 N 
ATOM     46  H46 non d ame     -33.701  11.076  27.288  0.00  0.00     0.162 HD
BRANCH  45  47
ATOM     47  C20 non d ame     -33.055   9.640  28.774  0.00  0.00     0.013 C 
ATOM     48  H30 non d ame     -32.312   8.846  28.702  0.00  0.00     0.072 H 
BRANCH  47  49
ATOM     49  C21 non d ame     -34.344   9.092  29.343  0.00  0.00    -0.038 C 
ATOM     50  H31 non d ame     -35.143   9.634  28.837  0.00  0.00     0.036 H 
ATOM     51  H32 non d ame     -34.272   8.009  29.245  0.00  0.00     0.036 H 
BRANCH  49  52
ATOM     52  C22 non d ame     -34.505   9.384  30.851  0.00  0.00     0.018 C 
ATOM     53  H33 non d ame     -33.537   9.164  31.300  0.00  0.00     0.048 H 
ATOM     54  H34 non d ame     -34.919  10.391  30.914  0.00  0.00     0.048 H 
BRANCH  52  55
ATOM     55  C23 non d ame     -35.527   8.455  31.563  0.00  0.00     0.259 C 
ATOM     56  O7  non d ame     -36.646   8.813  31.740  0.00  0.00    -0.265 OA
BRANCH  55  57
ATOM     57  O8  non d ame     -35.107   7.173  32.013  0.00  0.00    -0.317 OA
BRANCH  57  58
ATOM     58  C29 non d ame     -35.632   6.085  31.246  0.00  0.00     0.052 C 
ATOM     59  H47 non d ame     -36.288   5.537  31.922  0.00  0.00     0.082 H 
ATOM     60  H48 non d ame     -36.036   6.533  30.338  0.00  0.00     0.082 H 
BRANCH  58  61
ATOM     61  C35 non d ame     -34.448   5.161  30.853  0.00  0.00    -0.034 A 
ATOM     62  C30 non d ame     -33.756   4.460  31.835  0.00  0.00    -0.075 A 
ATOM     63  C31 non d ame     -32.693   3.630  31.482  0.00  0.00    -0.082 A 
ATOM     64  H49 non d ame     -34.047   4.560  32.881  0.00  0.00     0.084 H 
ATOM     65  C32 non d ame     -32.321   3.505  30.141  0.00  0.00    -0.083 A 
ATOM     66  H50 non d ame     -32.154   3.080  32.254  0.00  0.00     0.083 H 
ATOM     67  C33 non d ame     -33.012   4.210  29.165  0.00  0.00    -0.082 A 
ATOM     68  H51 non d ame     -31.491   2.858  29.856  0.00  0.00     0.083 H 
ATOM     69  C34 non d ame     -34.077   5.039  29.512  0.00  0.00    -0.075 A 
ATOM     70  H52 non d ame     -32.717   4.112  28.119  0.00  0.00     0.083 H 
ATOM     71  H53 non d ame     -34.615   5.588  28.740  0.00  0.00     0.084 H 
ENDBRANCH  58  61
ENDBRANCH  57  58
ENDBRANCH  55  57
ENDBRANCH  52  55
ENDBRANCH  49  52
ENDBRANCH  47  49
BRANCH  47  72
ATOM     72  C24 non d ame     -32.541  10.767  29.668  0.00  0.00    -0.039 C 
ATOM     73  H35 non d ame     -33.292  10.882  30.450  0.00  0.00     0.036 H 
ATOM     74  H36 non d ame     -31.520  10.488  29.929  0.00  0.00     0.036 H 
BRANCH  72  75
ATOM     75  C25 non d ame     -32.463  12.160  28.880  0.00  0.00    -0.001 C 
ATOM     76  C26 non d ame     -30.908  12.471  28.444  0.00  0.00    -0.035 C 
ATOM     77  C27 non d ame     -30.582  13.721  28.852  0.00  0.00     0.085 C 
ATOM     78  H38 non d ame     -30.228  11.834  29.009  0.00  0.00     0.036 H 
ATOM     79  H39 non d ame     -30.827  12.527  27.359  0.00  0.00     0.036 H 
ATOM     80  N5  non d ame     -31.660  14.168  29.809  0.00  0.00    -0.049 N 
ATOM     81  H40 non d ame     -29.644  13.614  29.396  0.00  0.00     0.075 H 
ATOM     82  H41 non d ame     -30.625  14.339  27.956  0.00  0.00     0.075 H 
ATOM     83  C28 non d ame     -32.886  13.136  29.612  0.00  0.00     0.193 C 
ATOM     84  H42 non d ame     -31.285  14.047  30.739  0.00  0.00     0.280 HD
ATOM     85  H43 non d ame     -31.956  15.082  29.499  0.00  0.00     0.280 HD
ATOM     86  H44 non d ame     -33.774  13.432  29.054  0.00  0.00     0.129 H 
ATOM     87  H37 non d ame     -33.221  12.236  28.100  0.00  0.00     0.046 H 
BRANCH  83  88
ATOM     88  O6  non d ame     -33.364  12.689  30.882  0.00  0.00    -0.369 OA
ATOM     89  H45 non d ame     -34.310  12.843  30.940  0.00  0.00     0.212 HD
ENDBRANCH  83  88
ENDBRANCH  72  75
ENDBRANCH  47  72
ENDBRANCH  45  47
ENDBRANCH   1  43
BRANCH   1  90
ATOM     90  C16 non d ame     -31.922  10.398  24.212  0.00  0.00    -0.035 C 
ATOM     91  H21 non d ame     -32.124  11.449  24.009  0.00  0.00     0.037 H 
ATOM     92  H22 non d ame     -31.146  10.120  24.925  0.00  0.00     0.037 H 
BRANCH  90  93
ATOM     93  C17 non d ame     -31.517   9.755  22.847  0.00  0.00    -0.059 C 
ATOM     94  H23 non d ame     -31.845  10.428  22.055  0.00  0.00     0.038 H 
BRANCH  93  95
ATOM     95  C18 non d ame     -29.971   9.580  22.714  0.00  0.00    -0.073 C 
ATOM     96  H24 non d ame     -29.661   9.843  21.703  0.00  0.00     0.028 H 
ATOM     97  H25 non d ame     -29.468  10.231  23.428  0.00  0.00     0.028 H 
ATOM     98  H26 non d ame     -29.704   8.543  22.917  0.00  0.00     0.028 H 
ENDBRANCH  93  95
BRANCH  93  99
ATOM     99  C19 non d ame     -32.237   8.420  22.637  0.00  0.00    -0.073 C 
ATOM    100  H27 non d ame     -33.264   8.607  22.323  0.00  0.00     0.028 H 
ATOM    101  H28 non d ame     -31.721   7.846  21.867  0.00  0.00     0.028 H 
ATOM    102  H29 non d ame     -32.238   7.857  23.569  0.00  0.00     0.028 H 
ENDBRANCH  93  99
ENDBRANCH  90  93
ENDBRANCH   1  90
TORSDOF 26
ENDMDL
MODEL 7
REMARK VINA RESULT:      -7.0      2.784      7.729
REMARK  26 active torsions:
REMARK  status: ('A' for Active; 'I' for Inactive)
REMARK    1  A    between atoms: C2_2  and  C3_3 
REMARK    2  A    between atoms: C4_6  and  C5_7 
REMARK       I    between atoms: C5_7  and  N2_9 
REMARK    3  A    between atoms: N2_9  and  C6_10 
REMARK    4  A    between atoms: C6_10  and  C7_11 
REMARK    5  A    between atoms: C6_10  and  C8_13 
REMARK       I    between atoms: C7_11  and  N3_14 
REMARK    6  A    between atoms: N3_14  and  C9_15 
REMARK    7  A    between atoms: C9_15  and  C10_16 
REMARK    8  A    between atoms: C9_15  and  C11_18 
REMARK       I    between atoms: C10_16  and  N4_21 
REMARK    9  A    between atoms: C11_18  and  C12_19 
REMARK   10  A    between atoms: C11_18  and  C13_20 
REMARK   11  A    between atoms: N4_21  and  C14_22 
REMARK   12  A    between atoms: C14_22  and  C15_23 
REMARK   13  A    between atoms: C14_22  and  C16_25 
REMARK       I    between atoms: C15_23  and  N6_40 
REMARK   14  A    between atoms: C16_25  and  C17_26 
REMARK   15  A    between atoms: C17_26  and  C18_27 
REMARK   16  A    between atoms: C17_26  and  C19_28 
REMARK   17  A    between atoms: C20_29  and  C21_30 
REMARK   18  A    between atoms: C20_29  and  C24_33 
REMARK   19  A    between atoms: C20_29  and  N6_40 
REMARK   20  A    between atoms: C21_30  and  C22_31 
REMARK   21  A    between atoms: C22_31  and  C23_32 
REMARK   22  A    between atoms: C23_32  and  O8_43 
REMARK   23  A    between atoms: C24_33  and  C25_34 
REMARK   24  A    between atoms: C28_38  and  O6_39 
REMARK   25  A    between atoms: C29_42  and  O8_43 
REMARK   26  A    between atoms: C29_42  and  C35_49 
ROOT
ATOM      1  C14 non d ame     -32.944  10.388  25.483  0.00  0.00     0.089 C 
ATOM      2  H20 non d ame     -33.645  10.461  24.651  0.00  0.00     0.087 H 
ENDROOT
BRANCH   1   3
ATOM      3  N4  non d ame     -32.381   9.046  25.465  0.00  0.00    -0.346 N 
ATOM      4  C10 non d ame     -33.139   7.910  24.825  0.00  0.00     0.241 C 
ATOM      5  O4  non d ame     -34.202   8.100  24.333  0.00  0.00    -0.271 OA
ATOM      6  H19 non d ame     -31.476   8.905  25.892  0.00  0.00     0.163 HD
BRANCH   4   7
ATOM      7  C9  non d ame     -32.539   6.529  24.811  0.00  0.00     0.092 C 
ATOM      8  H11 non d ame     -31.473   6.599  25.031  0.00  0.00     0.088 H 
BRANCH   7   9
ATOM      9  N3  non d ame     -33.148   5.720  25.871  0.00  0.00    -0.346 N 
ATOM     10  C7  non d ame     -32.674   5.836  27.228  0.00  0.00     0.240 C 
ATOM     11  O3  non d ame     -31.802   6.575  27.485  0.00  0.00    -0.271 OA
ATOM     12  H10 non d ame     -33.899   5.078  25.665  0.00  0.00     0.163 HD
BRANCH  10  13
ATOM     13  C6  non d ame     -33.324   4.971  28.352  0.00  0.00     0.086 C 
ATOM     14  H6  non d ame     -32.692   4.882  29.235  0.00  0.00     0.086 H 
BRANCH  13  15
ATOM     15  N2  non d ame     -34.556   5.608  28.785  0.00  0.00    -0.343 N 
ATOM     16  C5  non d ame     -34.934   5.562  30.199  0.00  0.00     0.273 C 
ATOM     17  O2  non d ame     -34.242   5.007  30.980  0.00  0.00    -0.266 OA
ATOM     18  H5  non d ame     -35.144   6.078  28.110  0.00  0.00     0.163 HD
BRANCH  16  19
ATOM     19  C4  non d ame     -36.234   6.233  30.671  0.00  0.00     0.154 A 
ATOM     20  C1  non d ame     -36.518   7.635  30.710  0.00  0.00    -0.017 A 
ATOM     21  C2  non d ame     -37.834   7.725  31.217  0.00  0.00     0.077 A 
ATOM     22  H1  non d ame     -35.869   8.460  30.415  0.00  0.00     0.091 H 
ATOM     23  O1  non d ame     -38.247   6.512  31.438  0.00  0.00    -0.218 OA
ATOM     24  N1  non d ame     -37.331   5.624  31.128  0.00  0.00    -0.123 NA
BRANCH  21  25
ATOM     25  C3  non d ame     -38.621   9.006  31.458  0.00  0.00    -0.029 C 
ATOM     26  H2  non d ame     -38.174   9.821  30.889  0.00  0.00     0.036 H 
ATOM     27  H3  non d ame     -39.653   8.864  31.138  0.00  0.00     0.036 H 
ATOM     28  H4  non d ame     -38.601   9.251  32.520  0.00  0.00     0.036 H 
ENDBRANCH  21  25
ENDBRANCH  16  19
ENDBRANCH  13  15
BRANCH  13  29
ATOM     29  C8  non d ame     -33.616   3.590  27.821  0.00  0.00    -0.049 C 
ATOM     30  H7  non d ame     -33.982   2.959  28.631  0.00  0.00     0.030 H 
ATOM     31  H8  non d ame     -34.372   3.654  27.040  0.00  0.00     0.030 H 
ATOM     32  H9  non d ame     -32.703   3.159  27.409  0.00  0.00     0.030 H 
ENDBRANCH  13  29
ENDBRANCH  10  13
ENDBRANCH   7   9
BRANCH   7  33
ATOM     33  C11 non d ame     -32.809   5.860  23.432  0.00  0.00    -0.033 C 
ATOM     34  H12 non d ame     -33.668   6.362  22.986  0.00  0.00     0.042 H 
BRANCH  33  35
ATOM     35  C12 non d ame     -31.601   6.048  22.462  0.00  0.00    -0.071 C 
ATOM     36  H13 non d ame     -31.849   6.804  21.715  0.00  0.00     0.028 H 
ATOM     37  H14 non d ame     -30.728   6.370  23.028  0.00  0.00     0.028 H 
ATOM     38  H15 non d ame     -31.385   5.104  21.963  0.00  0.00     0.028 H 
ENDBRANCH  33  35
BRANCH  33  39
ATOM     39  C13 non d ame     -33.167   4.349  23.603  0.00  0.00    -0.071 C 
ATOM     40  H16 non d ame     -32.548   3.751  22.935  0.00  0.00     0.028 H 
ATOM     41  H17 non d ame     -32.985   4.047  24.635  0.00  0.00     0.028 H 
ATOM     42  H18 non d ame     -34.219   4.195  23.361  0.00  0.00     0.028 H 
ENDBRANCH  33  39
ENDBRANCH   7  33
ENDBRANCH   4   7
ENDBRANCH   1   3
BRANCH   1  43
ATOM     43  C15 non d ame     -31.781  11.414  25.363  0.00  0.00     0.240 C 
ATOM     44  O5  non d ame     -30.676  11.093  25.658  0.00  0.00    -0.271 OA
ATOM     45  N6  non d ame     -32.045  12.797  24.872  0.00  0.00    -0.355 N 
ATOM     46  H46 non d ame     -32.979  13.081  24.614  0.00  0.00     0.162 HD
BRANCH  45  47
ATOM     47  C20 non d ame     -30.928  13.761  24.763  0.00  0.00     0.013 C 
ATOM     48  H30 non d ame     -30.119  13.411  25.403  0.00  0.00     0.072 H 
BRANCH  47  49
ATOM     49  C21 non d ame     -31.398  15.123  25.221  0.00  0.00    -0.038 C 
ATOM     50  H31 non d ame     -30.618  15.495  25.887  0.00  0.00     0.036 H 
ATOM     51  H32 non d ame     -31.644  15.671  24.312  0.00  0.00     0.036 H 
BRANCH  49  52
ATOM     52  C22 non d ame     -32.694  15.060  26.058  0.00  0.00     0.018 C 
ATOM     53  H33 non d ame     -33.367  15.793  25.615  0.00  0.00     0.048 H 
ATOM     54  H34 non d ame     -32.976  14.008  26.087  0.00  0.00     0.048 H 
BRANCH  52  55
ATOM     55  C23 non d ame     -32.505  15.493  27.539  0.00  0.00     0.259 C 
ATOM     56  O7  non d ame     -31.718  14.937  28.234  0.00  0.00    -0.265 OA
BRANCH  55  57
ATOM     57  O8  non d ame     -33.293  16.556  28.060  0.00  0.00    -0.317 OA
BRANCH  57  58
ATOM     58  C29 non d ame     -32.852  17.858  27.662  0.00  0.00     0.052 C 
ATOM     59  H47 non d ame     -32.566  18.366  28.583  0.00  0.00     0.082 H 
ATOM     60  H48 non d ame     -32.112  17.692  26.879  0.00  0.00     0.082 H 
BRANCH  58  61
ATOM     61  C35 non d ame     -34.062  18.605  27.043  0.00  0.00    -0.034 A 
ATOM     62  C30 non d ame     -34.750  18.049  25.969  0.00  0.00    -0.075 A 
ATOM     63  C31 non d ame     -35.837  18.721  25.412  0.00  0.00    -0.082 A 
ATOM     64  H49 non d ame     -34.436  17.087  25.563  0.00  0.00     0.084 H 
ATOM     65  C32 non d ame     -36.235  19.955  25.933  0.00  0.00    -0.083 A 
ATOM     66  H50 non d ame     -36.375  18.281  24.572  0.00  0.00     0.083 H 
ATOM     67  C33 non d ame     -35.544  20.508  27.002  0.00  0.00    -0.082 A 
ATOM     68  H51 non d ame     -37.085  20.487  25.504  0.00  0.00     0.083 H 
ATOM     69  C34 non d ame     -34.458  19.839  27.563  0.00  0.00    -0.075 A 
ATOM     70  H52 non d ame     -35.856  21.472  27.404  0.00  0.00     0.083 H 
ATOM     71  H53 non d ame     -33.921  20.279  28.404  0.00  0.00     0.084 H 
ENDBRANCH  58  61
ENDBRANCH  57  58
ENDBRANCH  55  57
ENDBRANCH  52  55
ENDBRANCH  49  52
ENDBRANCH  47  49
BRANCH  47  72
ATOM     72  C24 non d ame     -30.459  13.845  23.312  0.00  0.00    -0.039 C 
ATOM     73  H35 non d ame     -29.505  13.318  23.285  0.00  0.00     0.036 H 
ATOM     74  H36 non d ame     -31.297  13.485  22.715  0.00  0.00     0.036 H 
BRANCH  72  75
ATOM     75  C25 non d ame     -30.176  15.358  22.867  0.00  0.00    -0.001 C 
ATOM     76  C26 non d ame     -31.281  15.826  21.743  0.00  0.00    -0.035 C 
ATOM     77  C27 non d ame     -30.626  16.346  20.677  0.00  0.00     0.085 C 
ATOM     78  H38 non d ame     -31.787  14.954  21.330  0.00  0.00     0.036 H 
ATOM     79  H39 non d ame     -31.864  16.668  22.119  0.00  0.00     0.036 H 
ATOM     80  N5  non d ame     -29.170  15.976  20.831  0.00  0.00    -0.049 N 
ATOM     81  H40 non d ame     -31.033  15.833  19.806  0.00  0.00     0.075 H 
ATOM     82  H41 non d ame     -30.729  17.427  20.771  0.00  0.00     0.075 H 
ATOM     83  C28 non d ame     -28.996  15.483  22.358  0.00  0.00     0.193 C 
ATOM     84  H42 non d ame     -29.008  15.190  20.218  0.00  0.00     0.280 HD
ATOM     85  H43 non d ame     -28.644  16.830  20.707  0.00  0.00     0.280 HD
ATOM     86  H44 non d ame     -28.528  16.131  23.100  0.00  0.00     0.129 H 
ATOM     87  H37 non d ame     -30.027  16.019  23.721  0.00  0.00     0.046 H 
BRANCH  83  88
ATOM     88  O6  non d ame     -28.259  14.260  22.400  0.00  0.00    -0.369 OA
ATOM     89  H45 non d ame     -28.730  13.620  22.939  0.00  0.00     0.212 HD
ENDBRANCH  83  88
ENDBRANCH  72  75
ENDBRANCH  47  72
ENDBRANCH  45  47
ENDBRANCH   1  43
BRANCH   1  90
ATOM     90  C16 non d ame     -33.680  10.600  26.796  0.00  0.00    -0.035 C 
ATOM     91  H21 non d ame     -33.800  11.679  26.889  0.00  0.00     0.037 H 
ATOM     92  H22 non d ame     -34.558   9.956  26.742  0.00  0.00     0.037 H 
BRANCH  90  93
ATOM     93  C17 non d ame     -32.871  10.138  28.050  0.00  0.00    -0.059 C 
ATOM     94  H23 non d ame     -31.987   9.607  27.696  0.00  0.00     0.038 H 
BRANCH  93  95
ATOM     95  C18 non d ame     -32.387  11.345  28.916  0.00  0.00    -0.073 C 
ATOM     96  H24 non d ame     -31.318  11.251  29.104  0.00  0.00     0.028 H 
ATOM     97  H25 non d ame     -32.581  12.275  28.384  0.00  0.00     0.028 H 
ATOM     98  H26 non d ame     -32.924  11.349  29.865  0.00  0.00     0.028 H 
ENDBRANCH  93  95
BRANCH  93  99
ATOM     99  C19 non d ame     -33.685   9.153  28.893  0.00  0.00    -0.073 C 
ATOM    100  H27 non d ame     -34.274   9.704  29.627  0.00  0.00     0.028 H 
ATOM    101  H28 non d ame     -34.351   8.583  28.245  0.00  0.00     0.028 H 
ATOM    102  H29 non d ame     -33.009   8.471  29.408  0.00  0.00     0.028 H 
ENDBRANCH  93  99
ENDBRANCH  90  93
ENDBRANCH   1  90
TORSDOF 26
ENDMDL
MODEL 8
REMARK VINA RESULT:      -7.0      2.670      6.577
REMARK  26 active torsions:
REMARK  status: ('A' for Active; 'I' for Inactive)
REMARK    1  A    between atoms: C2_2  and  C3_3 
REMARK    2  A    between atoms: C4_6  and  C5_7 
REMARK       I    between atoms: C5_7  and  N2_9 
REMARK    3  A    between atoms: N2_9  and  C6_10 
REMARK    4  A    between atoms: C6_10  and  C7_11 
REMARK    5  A    between atoms: C6_10  and  C8_13 
REMARK       I    between atoms: C7_11  and  N3_14 
REMARK    6  A    between atoms: N3_14  and  C9_15 
REMARK    7  A    between atoms: C9_15  and  C10_16 
REMARK    8  A    between atoms: C9_15  and  C11_18 
REMARK       I    between atoms: C10_16  and  N4_21 
REMARK    9  A    between atoms: C11_18  and  C12_19 
REMARK   10  A    between atoms: C11_18  and  C13_20 
REMARK   11  A    between atoms: N4_21  and  C14_22 
REMARK   12  A    between atoms: C14_22  and  C15_23 
REMARK   13  A    between atoms: C14_22  and  C16_25 
REMARK       I    between atoms: C15_23  and  N6_40 
REMARK   14  A    between atoms: C16_25  and  C17_26 
REMARK   15  A    between atoms: C17_26  and  C18_27 
REMARK   16  A    between atoms: C17_26  and  C19_28 
REMARK   17  A    between atoms: C20_29  and  C21_30 
REMARK   18  A    between atoms: C20_29  and  C24_33 
REMARK   19  A    between atoms: C20_29  and  N6_40 
REMARK   20  A    between atoms: C21_30  and  C22_31 
REMARK   21  A    between atoms: C22_31  and  C23_32 
REMARK   22  A    between atoms: C23_32  and  O8_43 
REMARK   23  A    between atoms: C24_33  and  C25_34 
REMARK   24  A    between atoms: C28_38  and  O6_39 
REMARK   25  A    between atoms: C29_42  and  O8_43 
REMARK   26  A    between atoms: C29_42  and  C35_49 
ROOT
ATOM      1  C14 non d ame     -32.490   9.865  24.580  0.00  0.00     0.089 C 
ATOM      2  H20 non d ame     -32.271   9.014  25.226  0.00  0.00     0.087 H 
ENDROOT
BRANCH   1   3
ATOM      3  N4  non d ame     -33.858  10.281  24.852  0.00  0.00    -0.346 N 
ATOM      4  C10 non d ame     -34.500   9.965  26.180  0.00  0.00     0.241 C 
ATOM      5  O4  non d ame     -33.897   9.373  27.013  0.00  0.00    -0.271 OA
ATOM      6  H19 non d ame     -34.355  10.782  24.130  0.00  0.00     0.163 HD
BRANCH   4   7
ATOM      7  C9  non d ame     -35.915  10.409  26.447  0.00  0.00     0.092 C 
ATOM      8  H11 non d ame     -36.025  10.639  27.506  0.00  0.00     0.088 H 
BRANCH   7   9
ATOM      9  N3  non d ame     -36.189  11.643  25.704  0.00  0.00    -0.346 N 
ATOM     10  C7  non d ame     -36.984  12.685  26.307  0.00  0.00     0.240 C 
ATOM     11  O3  non d ame     -37.411  12.546  27.388  0.00  0.00    -0.271 OA
ATOM     12  H10 non d ame     -35.828  11.776  24.770  0.00  0.00     0.163 HD
BRANCH  10  13
ATOM     13  C6  non d ame     -37.274  13.995  25.511  0.00  0.00     0.086 C 
ATOM     14  H6  non d ame     -38.252  14.419  25.740  0.00  0.00     0.086 H 
BRANCH  13  15
ATOM     15  N2  non d ame     -36.289  14.998  25.879  0.00  0.00    -0.343 N 
ATOM     16  C5  non d ame     -36.642  16.033  26.853  0.00  0.00     0.273 C 
ATOM     17  O2  non d ame     -37.722  16.050  27.334  0.00  0.00    -0.266 OA
ATOM     18  H5  non d ame     -35.370  14.977  25.461  0.00  0.00     0.163 HD
BRANCH  16  19
ATOM     19  C4  non d ame     -35.610  17.099  27.252  0.00  0.00     0.154 A 
ATOM     20  C1  non d ame     -34.558  17.630  26.441  0.00  0.00    -0.017 A 
ATOM     21  C2  non d ame     -33.901  18.570  27.266  0.00  0.00     0.077 A 
ATOM     22  H1  non d ame     -34.309  17.373  25.411  0.00  0.00     0.091 H 
ATOM     23  O1  non d ame     -34.513  18.571  28.414  0.00  0.00    -0.218 OA
ATOM     24  N1  non d ame     -35.514  17.721  28.431  0.00  0.00    -0.123 NA
BRANCH  21  25
ATOM     25  C3  non d ame     -32.700  19.424  26.882  0.00  0.00    -0.029 C 
ATOM     26  H2  non d ame     -31.857  18.777  26.642  0.00  0.00     0.036 H 
ATOM     27  H3  non d ame     -32.950  20.032  26.013  0.00  0.00     0.036 H 
ATOM     28  H4  non d ame     -32.434  20.073  27.716  0.00  0.00     0.036 H 
ENDBRANCH  21  25
ENDBRANCH  16  19
ENDBRANCH  13  15
BRANCH  13  29
ATOM     29  C8  non d ame     -37.199  13.714  24.032  0.00  0.00    -0.049 C 
ATOM     30  H7  non d ame     -36.264  14.110  23.634  0.00  0.00     0.030 H 
ATOM     31  H8  non d ame     -37.239  12.638  23.864  0.00  0.00     0.030 H 
ATOM     32  H9  non d ame     -38.039  14.192  23.528  0.00  0.00     0.030 H 
ENDBRANCH  13  29
ENDBRANCH  10  13
ENDBRANCH   7   9
BRANCH   7  33
ATOM     33  C11 non d ame     -36.903   9.298  25.983  0.00  0.00    -0.033 C 
ATOM     34  H12 non d ame     -36.349   8.359  25.950  0.00  0.00     0.042 H 
BRANCH  33  35
ATOM     35  C12 non d ame     -38.072   9.116  27.000  0.00  0.00    -0.071 C 
ATOM     36  H13 non d ame     -38.952   9.649  26.641  0.00  0.00     0.028 H 
ATOM     37  H14 non d ame     -38.305   8.057  27.101  0.00  0.00     0.028 H 
ATOM     38  H15 non d ame     -37.776   9.518  27.969  0.00  0.00     0.028 H 
ENDBRANCH  33  35
BRANCH  33  39
ATOM     39  C13 non d ame     -37.442   9.593  24.547  0.00  0.00    -0.071 C 
ATOM     40  H16 non d ame     -37.296  10.647  24.313  0.00  0.00     0.028 H 
ATOM     41  H17 non d ame     -36.901   8.982  23.823  0.00  0.00     0.028 H 
ATOM     42  H18 non d ame     -38.504   9.353  24.501  0.00  0.00     0.028 H 
ENDBRANCH  33  39
ENDBRANCH   7  33
ENDBRANCH   4   7
ENDBRANCH   1   3
BRANCH   1  43
ATOM     43  C15 non d ame     -31.543  11.068  24.853  0.00  0.00     0.240 C 
ATOM     44  O5  non d ame     -30.822  11.051  25.797  0.00  0.00    -0.271 OA
ATOM     45  N6  non d ame     -31.528  12.239  23.930  0.00  0.00    -0.355 N 
ATOM     46  H46 non d ame     -32.132  12.263  23.121  0.00  0.00     0.162 HD
BRANCH  45  47
ATOM     47  C20 non d ame     -30.621  13.374  24.202  0.00  0.00     0.013 C 
ATOM     48  H30 non d ame     -29.930  13.071  24.988  0.00  0.00     0.072 H 
BRANCH  47  49
ATOM     49  C21 non d ame     -31.433  14.565  24.659  0.00  0.00    -0.038 C 
ATOM     50  H31 non d ame     -30.806  15.437  24.477  0.00  0.00     0.036 H 
ATOM     51  H32 non d ame     -32.398  14.472  24.159  0.00  0.00     0.036 H 
BRANCH  49  52
ATOM     52  C22 non d ame     -31.724  14.545  26.176  0.00  0.00     0.018 C 
ATOM     53  H33 non d ame     -31.027  13.823  26.600  0.00  0.00     0.048 H 
ATOM     54  H34 non d ame     -31.693  15.587  26.496  0.00  0.00     0.048 H 
BRANCH  52  55
ATOM     55  C23 non d ame     -33.146  14.029  26.534  0.00  0.00     0.259 C 
ATOM     56  O7  non d ame     -33.738  13.323  25.784  0.00  0.00    -0.265 OA
BRANCH  55  57
ATOM     57  O8  non d ame     -33.739  14.422  27.765  0.00  0.00    -0.317 OA
BRANCH  57  58
ATOM     58  C29 non d ame     -32.802  14.883  28.743  0.00  0.00     0.052 C 
ATOM     59  H47 non d ame     -31.964  15.291  28.178  0.00  0.00     0.082 H 
ATOM     60  H48 non d ame     -33.369  15.525  29.416  0.00  0.00     0.082 H 
BRANCH  58  61
ATOM     61  C35 non d ame     -32.302  13.652  29.545  0.00  0.00    -0.034 A 
ATOM     62  C30 non d ame     -33.191  12.641  29.896  0.00  0.00    -0.075 A 
ATOM     63  C31 non d ame     -32.742  11.535  30.616  0.00  0.00    -0.082 A 
ATOM     64  H49 non d ame     -34.239  12.715  29.607  0.00  0.00     0.084 H 
ATOM     65  C32 non d ame     -31.397  11.444  30.988  0.00  0.00    -0.083 A 
ATOM     66  H50 non d ame     -33.440  10.744  30.888  0.00  0.00     0.083 H 
ATOM     67  C33 non d ame     -30.515  12.457  30.638  0.00  0.00    -0.082 A 
ATOM     68  H51 non d ame     -31.038  10.582  31.551  0.00  0.00     0.083 H 
ATOM     69  C34 non d ame     -30.959  13.563  29.917  0.00  0.00    -0.075 A 
ATOM     70  H52 non d ame     -29.467  12.383  30.932  0.00  0.00     0.083 H 
ATOM     71  H53 non d ame     -30.259  14.354  29.645  0.00  0.00     0.084 H 
ENDBRANCH  58  61
ENDBRANCH  57  58
ENDBRANCH  55  57
ENDBRANCH  52  55
ENDBRANCH  49  52
ENDBRANCH  47  49
BRANCH  47  72
ATOM     72  C24 non d ame     -29.854  13.738  22.932  0.00  0.00    -0.039 C 
ATOM     73  H35 non d ame     -28.826  13.912  23.254  0.00  0.00     0.036 H 
ATOM     74  H36 non d ame     -30.074  12.942  22.222  0.00  0.00     0.036 H 
BRANCH  72  75
ATOM     75  C25 non d ame     -30.386  15.106  22.290  0.00  0.00    -0.001 C 
ATOM     76  C26 non d ame     -31.086  14.805  20.833  0.00  0.00    -0.035 C 
ATOM     77  C27 non d ame     -30.548  15.637  19.909  0.00  0.00     0.085 C 
ATOM     78  H38 non d ame     -30.802  13.814  20.479  0.00  0.00     0.036 H 
ATOM     79  H39 non d ame     -32.137  15.095  20.856  0.00  0.00     0.036 H 
ATOM     80  N5  non d ame     -29.317  16.250  20.532  0.00  0.00    -0.049 N 
ATOM     81  H40 non d ame     -30.246  14.996  19.081  0.00  0.00     0.075 H 
ATOM     82  H41 non d ame     -31.292  16.417  19.752  0.00  0.00     0.075 H 
ATOM     83  C28 non d ame     -29.421  15.946  22.114  0.00  0.00     0.193 C 
ATOM     84  H42 non d ame     -28.526  15.745  20.159  0.00  0.00     0.280 HD
ATOM     85  H43 non d ame     -29.392  17.247  20.390  0.00  0.00     0.280 HD
ATOM     86  H44 non d ame     -29.713  16.732  22.811  0.00  0.00     0.129 H 
ATOM     87  H37 non d ame     -30.958  15.701  23.001  0.00  0.00     0.046 H 
BRANCH  83  88
ATOM     88  O6  non d ame     -28.175  15.446  22.603  0.00  0.00    -0.369 OA
ATOM     89  H45 non d ame     -27.551  16.171  22.688  0.00  0.00     0.212 HD
ENDBRANCH  83  88
ENDBRANCH  72  75
ENDBRANCH  47  72
ENDBRANCH  45  47
ENDBRANCH   1  43
BRANCH   1  90
ATOM     90  C16 non d ame     -32.380   9.446  23.123  0.00  0.00    -0.035 C 
ATOM     91  H21 non d ame     -33.210   9.939  22.617  0.00  0.00     0.037 H 
ATOM     92  H22 non d ame     -31.353   9.674  22.834  0.00  0.00     0.037 H 
BRANCH  90  93
ATOM     93  C17 non d ame     -32.573   7.913  22.894  0.00  0.00    -0.059 C 
ATOM     94  H23 non d ame     -33.644   7.712  22.890  0.00  0.00     0.038 H 
BRANCH  93  95
ATOM     95  C18 non d ame     -31.994   7.445  21.521  0.00  0.00    -0.073 C 
ATOM     96  H24 non d ame     -32.808   7.315  20.809  0.00  0.00     0.028 H 
ATOM     97  H25 non d ame     -31.299   8.195  21.144  0.00  0.00     0.028 H 
ATOM     98  H26 non d ame     -31.470   6.498  21.652  0.00  0.00     0.028 H 
ENDBRANCH  93  95
BRANCH  93  99
ATOM     99  C19 non d ame     -31.964   7.108  24.045  0.00  0.00    -0.073 C 
ATOM    100  H27 non d ame     -32.195   6.051  23.912  0.00  0.00     0.028 H 
ATOM    101  H28 non d ame     -30.882   7.245  24.053  0.00  0.00     0.028 H 
ATOM    102  H29 non d ame     -32.379   7.455  24.991  0.00  0.00     0.028 H 
ENDBRANCH  93  99
ENDBRANCH  90  93
ENDBRANCH   1  90
TORSDOF 26
ENDMDL
MODEL 9
REMARK VINA RESULT:      -6.9      2.489      7.275
REMARK  26 active torsions:
REMARK  status: ('A' for Active; 'I' for Inactive)
REMARK    1  A    between atoms: C2_2  and  C3_3 
REMARK    2  A    between atoms: C4_6  and  C5_7 
REMARK       I    between atoms: C5_7  and  N2_9 
REMARK    3  A    between atoms: N2_9  and  C6_10 
REMARK    4  A    between atoms: C6_10  and  C7_11 
REMARK    5  A    between atoms: C6_10  and  C8_13 
REMARK       I    between atoms: C7_11  and  N3_14 
REMARK    6  A    between atoms: N3_14  and  C9_15 
REMARK    7  A    between atoms: C9_15  and  C10_16 
REMARK    8  A    between atoms: C9_15  and  C11_18 
REMARK       I    between atoms: C10_16  and  N4_21 
REMARK    9  A    between atoms: C11_18  and  C12_19 
REMARK   10  A    between atoms: C11_18  and  C13_20 
REMARK   11  A    between atoms: N4_21  and  C14_22 
REMARK   12  A    between atoms: C14_22  and  C15_23 
REMARK   13  A    between atoms: C14_22  and  C16_25 
REMARK       I    between atoms: C15_23  and  N6_40 
REMARK   14  A    between atoms: C16_25  and  C17_26 
REMARK   15  A    between atoms: C17_26  and  C18_27 
REMARK   16  A    between atoms: C17_26  and  C19_28 
REMARK   17  A    between atoms: C20_29  and  C21_30 
REMARK   18  A    between atoms: C20_29  and  C24_33 
REMARK   19  A    between atoms: C20_29  and  N6_40 
REMARK   20  A    between atoms: C21_30  and  C22_31 
REMARK   21  A    between atoms: C22_31  and  C23_32 
REMARK   22  A    between atoms: C23_32  and  O8_43 
REMARK   23  A    between atoms: C24_33  and  C25_34 
REMARK   24  A    between atoms: C28_38  and  O6_39 
REMARK   25  A    between atoms: C29_42  and  O8_43 
REMARK   26  A    between atoms: C29_42  and  C35_49 
ROOT
ATOM      1  C14 non d ame     -32.499   9.535  25.508  0.00  0.00     0.089 C 
ATOM      2  H20 non d ame     -31.841   8.681  25.667  0.00  0.00     0.087 H 
ENDROOT
BRANCH   1   3
ATOM      3  N4  non d ame     -33.513   9.508  26.551  0.00  0.00    -0.346 N 
ATOM      4  C10 non d ame     -33.528   8.397  27.571  0.00  0.00     0.241 C 
ATOM      5  O4  non d ame     -32.715   7.534  27.529  0.00  0.00    -0.271 OA
ATOM      6  H19 non d ame     -34.198  10.251  26.568  0.00  0.00     0.163 HD
BRANCH   4   7
ATOM      7  C9  non d ame     -34.581   8.389  28.647  0.00  0.00     0.092 C 
ATOM      8  H11 non d ame     -34.436   7.516  29.284  0.00  0.00     0.088 H 
BRANCH   7   9
ATOM      9  N3  non d ame     -34.425   9.575  29.495  0.00  0.00    -0.346 N 
ATOM     10  C7  non d ame     -34.287   9.427  30.923  0.00  0.00     0.240 C 
ATOM     11  O3  non d ame     -34.301   8.361  31.407  0.00  0.00    -0.271 OA
ATOM     12  H10 non d ame     -34.412  10.501  29.092  0.00  0.00     0.163 HD
BRANCH  10  13
ATOM     13  C6  non d ame     -34.123  10.693  31.820  0.00  0.00     0.086 C 
ATOM     14  H6  non d ame     -33.349  10.575  32.578  0.00  0.00     0.086 H 
BRANCH  13  15
ATOM     15  N2  non d ame     -33.722  11.813  30.985  0.00  0.00    -0.343 N 
ATOM     16  C5  non d ame     -32.308  11.989  30.644  0.00  0.00     0.273 C 
ATOM     17  O2  non d ame     -31.502  11.225  31.049  0.00  0.00    -0.266 OA
ATOM     18  H5  non d ame     -34.417  12.462  30.646  0.00  0.00     0.163 HD
BRANCH  16  19
ATOM     19  C4  non d ame     -31.870  13.168  29.762  0.00  0.00     0.154 A 
ATOM     20  C1  non d ame     -32.617  14.353  29.468  0.00  0.00    -0.017 A 
ATOM     21  C2  non d ame     -31.777  15.111  28.622  0.00  0.00     0.077 A 
ATOM     22  H1  non d ame     -33.614  14.621  29.816  0.00  0.00     0.091 H 
ATOM     23  O1  non d ame     -30.679  14.433  28.457  0.00  0.00    -0.218 OA
ATOM     24  N1  non d ame     -30.710  13.295  29.112  0.00  0.00    -0.123 NA
BRANCH  21  25
ATOM     25  C3  non d ame     -32.098  16.471  28.018  0.00  0.00    -0.029 C 
ATOM     26  H2  non d ame     -31.203  16.883  27.553  0.00  0.00     0.036 H 
ATOM     27  H3  non d ame     -32.879  16.359  27.265  0.00  0.00     0.036 H 
ATOM     28  H4  non d ame     -32.444  17.145  28.801  0.00  0.00     0.036 H 
ENDBRANCH  21  25
ENDBRANCH  16  19
ENDBRANCH  13  15
BRANCH  13  29
ATOM     29  C8  non d ame     -35.432  11.000  32.503  0.00  0.00    -0.049 C 
ATOM     30  H7  non d ame     -36.210  10.349  32.106  0.00  0.00     0.030 H 
ATOM     31  H8  non d ame     -35.329  10.833  33.575  0.00  0.00     0.030 H 
ATOM     32  H9  non d ame     -35.701  12.041  32.321  0.00  0.00     0.030 H 
ENDBRANCH  13  29
ENDBRANCH  10  13
ENDBRANCH   7   9
BRANCH   7  33
ATOM     33  C11 non d ame     -35.993   8.406  27.991  0.00  0.00    -0.033 C 
ATOM     34  H12 non d ame     -36.042   9.278  27.339  0.00  0.00     0.042 H 
BRANCH  33  35
ATOM     35  C12 non d ame     -36.223   7.143  27.104  0.00  0.00    -0.071 C 
ATOM     36  H13 non d ame     -37.291   6.933  27.041  0.00  0.00     0.028 H 
ATOM     37  H14 non d ame     -35.829   7.325  26.104  0.00  0.00     0.028 H 
ATOM     38  H15 non d ame     -35.711   6.290  27.547  0.00  0.00     0.028 H 
ENDBRANCH  33  35
BRANCH  33  39
ATOM     39  C13 non d ame     -37.111   8.549  29.074  0.00  0.00    -0.071 C 
ATOM     40  H16 non d ame     -37.141   7.647  29.686  0.00  0.00     0.028 H 
ATOM     41  H17 non d ame     -36.897   9.411  29.706  0.00  0.00     0.028 H 
ATOM     42  H18 non d ame     -38.075   8.689  28.584  0.00  0.00     0.028 H 
ENDBRANCH  33  39
ENDBRANCH   7  33
ENDBRANCH   4   7
ENDBRANCH   1   3
BRANCH   1  43
ATOM     43  C15 non d ame     -31.736  10.888  25.593  0.00  0.00     0.240 C 
ATOM     44  O5  non d ame     -30.934  11.061  26.453  0.00  0.00    -0.271 OA
ATOM     45  N6  non d ame     -31.999  11.966  24.597  0.00  0.00    -0.355 N 
ATOM     46  H46 non d ame     -32.675  11.829  23.860  0.00  0.00     0.162 HD
BRANCH  45  47
ATOM     47  C20 non d ame     -31.264  13.246  24.691  0.00  0.00     0.013 C 
ATOM     48  H30 non d ame     -30.572  13.174  25.530  0.00  0.00     0.072 H 
BRANCH  47  49
ATOM     49  C21 non d ame     -32.248  14.370  24.927  0.00  0.00    -0.038 C 
ATOM     50  H31 non d ame     -31.718  15.101  25.538  0.00  0.00     0.036 H 
ATOM     51  H32 non d ame     -32.617  14.649  23.940  0.00  0.00     0.036 H 
BRANCH  49  52
ATOM     52  C22 non d ame     -33.480  13.927  25.745  0.00  0.00     0.018 C 
ATOM     53  H33 non d ame     -33.772  12.960  25.338  0.00  0.00     0.048 H 
ATOM     54  H34 non d ame     -33.185  14.012  26.792  0.00  0.00     0.048 H 
BRANCH  52  55
ATOM     55  C23 non d ame     -34.714  14.856  25.571  0.00  0.00     0.259 C 
ATOM     56  O7  non d ame     -35.247  14.958  24.514  0.00  0.00    -0.265 OA
BRANCH  55  57
ATOM     57  O8  non d ame     -35.193  15.594  26.688  0.00  0.00    -0.317 OA
BRANCH  57  58
ATOM     58  C29 non d ame     -35.910  16.781  26.338  0.00  0.00     0.052 C 
ATOM     59  H47 non d ame     -36.097  16.707  25.266  0.00  0.00     0.082 H 
ATOM     60  H48 non d ame     -36.746  16.838  27.034  0.00  0.00     0.082 H 
BRANCH  58  61
ATOM     61  C35 non d ame     -34.978  17.996  26.591  0.00  0.00    -0.034 A 
ATOM     62  C30 non d ame     -35.018  18.663  27.811  0.00  0.00    -0.075 A 
ATOM     63  C31 non d ame     -34.181  19.754  28.038  0.00  0.00    -0.082 A 
ATOM     64  H49 non d ame     -35.706  18.331  28.589  0.00  0.00     0.084 H 
ATOM     65  C32 non d ame     -33.302  20.180  27.039  0.00  0.00    -0.083 A 
ATOM     66  H50 non d ame     -34.214  20.274  28.996  0.00  0.00     0.083 H 
ATOM     67  C33 non d ame     -33.268  19.513  25.822  0.00  0.00    -0.082 A 
ATOM     68  H51 non d ame     -32.644  21.031  27.208  0.00  0.00     0.083 H 
ATOM     69  C34 non d ame     -34.101  18.420  25.591  0.00  0.00    -0.075 A 
ATOM     70  H52 non d ame     -32.582  19.849  25.043  0.00  0.00     0.083 H 
ATOM     71  H53 non d ame     -34.067  17.901  24.632  0.00  0.00     0.084 H 
ENDBRANCH  58  61
ENDBRANCH  57  58
ENDBRANCH  55  57
ENDBRANCH  52  55
ENDBRANCH  49  52
ENDBRANCH  47  49
BRANCH  47  72
ATOM     72  C24 non d ame     -30.501  13.499  23.393  0.00  0.00    -0.039 C 
ATOM     73  H35 non d ame     -29.468  13.220  23.605  0.00  0.00     0.036 H 
ATOM     74  H36 non d ame     -31.060  12.972  22.620  0.00  0.00     0.036 H 
BRANCH  72  75
ATOM     75  C25 non d ame     -30.499  15.052  23.000  0.00  0.00    -0.001 C 
ATOM     76  C26 non d ame     -31.300  15.271  21.581  0.00  0.00    -0.035 C 
ATOM     77  C27 non d ame     -30.514  15.989  20.743  0.00  0.00     0.085 C 
ATOM     78  H38 non d ame     -31.416  14.318  21.066  0.00  0.00     0.036 H 
ATOM     79  H39 non d ame     -32.164  15.917  21.735  0.00  0.00     0.036 H 
ATOM     80  N5  non d ame     -29.127  15.999  21.339  0.00  0.00    -0.049 N 
ATOM     81  H40 non d ame     -30.496  15.428  19.809  0.00  0.00     0.075 H 
ATOM     82  H41 non d ame     -30.916  17.002  20.763  0.00  0.00     0.075 H 
ATOM     83  C28 non d ame     -29.295  15.499  22.864  0.00  0.00     0.193 C 
ATOM     84  H42 non d ame     -28.592  15.309  20.831  0.00  0.00     0.280 HD
ATOM     85  H43 non d ame     -28.827  16.964  21.348  0.00  0.00     0.280 HD
ATOM     86  H44 non d ame     -29.254  16.211  23.688  0.00  0.00     0.129 H 
ATOM     87  H37 non d ame     -30.788  15.690  23.836  0.00  0.00     0.046 H 
BRANCH  83  88
ATOM     88  O6  non d ame     -28.314  14.506  23.168  0.00  0.00    -0.369 OA
ATOM     89  H45 non d ame     -27.522  14.669  22.652  0.00  0.00     0.212 HD
ENDBRANCH  83  88
ENDBRANCH  72  75
ENDBRANCH  47  72
ENDBRANCH  45  47
ENDBRANCH   1  43
BRANCH   1  90
ATOM     90  C16 non d ame     -33.178   9.416  24.153  0.00  0.00    -0.035 C 
ATOM     91  H21 non d ame     -33.644  10.385  23.977  0.00  0.00     0.037 H 
ATOM     92  H22 non d ame     -32.407   9.051  23.474  0.00  0.00     0.037 H 
BRANCH  90  93
ATOM     93  C17 non d ame     -34.330   8.361  24.120  0.00  0.00    -0.059 C 
ATOM     94  H23 non d ame     -34.852   8.411  25.075  0.00  0.00     0.038 H 
BRANCH  93  95
ATOM     95  C18 non d ame     -35.370   8.659  22.992  0.00  0.00    -0.073 C 
ATOM     96  H24 non d ame     -35.614   7.735  22.469  0.00  0.00     0.028 H 
ATOM     97  H25 non d ame     -36.275   9.076  23.434  0.00  0.00     0.028 H 
ATOM     98  H26 non d ame     -34.947   9.375  22.288  0.00  0.00     0.028 H 
ENDBRANCH  93  95
BRANCH  93  99
ATOM     99  C19 non d ame     -33.769   6.944  23.982  0.00  0.00    -0.073 C 
ATOM    100  H27 non d ame     -33.619   6.514  24.973  0.00  0.00     0.028 H 
ATOM    101  H28 non d ame     -34.471   6.327  23.421  0.00  0.00     0.028 H 
ATOM    102  H29 non d ame     -32.816   6.979  23.454  0.00  0.00     0.028 H 
ENDBRANCH  93  99
ENDBRANCH  90  93
ENDBRANCH   1  90
TORSDOF 26
ENDMDL
MODEL 10
REMARK VINA RESULT:      -6.8      2.424      6.801
REMARK  26 active torsions:
REMARK  status: ('A' for Active; 'I' for Inactive)
REMARK    1  A    between atoms: C2_2  and  C3_3 
REMARK    2  A    between atoms: C4_6  and  C5_7 
REMARK       I    between atoms: C5_7  and  N2_9 
REMARK    3  A    between atoms: N2_9  and  C6_10 
REMARK    4  A    between atoms: C6_10  and  C7_11 
REMARK    5  A    between atoms: C6_10  and  C8_13 
REMARK       I    between atoms: C7_11  and  N3_14 
REMARK    6  A    between atoms: N3_14  and  C9_15 
REMARK    7  A    between atoms: C9_15  and  C10_16 
REMARK    8  A    between atoms: C9_15  and  C11_18 
REMARK       I    between atoms: C10_16  and  N4_21 
REMARK    9  A    between atoms: C11_18  and  C12_19 
REMARK   10  A    between atoms: C11_18  and  C13_20 
REMARK   11  A    between atoms: N4_21  and  C14_22 
REMARK   12  A    between atoms: C14_22  and  C15_23 
REMARK   13  A    between atoms: C14_22  and  C16_25 
REMARK       I    between atoms: C15_23  and  N6_40 
REMARK   14  A    between atoms: C16_25  and  C17_26 
REMARK   15  A    between atoms: C17_26  and  C18_27 
REMARK   16  A    between atoms: C17_26  and  C19_28 
REMARK   17  A    between atoms: C20_29  and  C21_30 
REMARK   18  A    between atoms: C20_29  and  C24_33 
REMARK   19  A    between atoms: C20_29  and  N6_40 
REMARK   20  A    between atoms: C21_30  and  C22_31 
REMARK   21  A    between atoms: C22_31  and  C23_32 
REMARK   22  A    between atoms: C23_32  and  O8_43 
REMARK   23  A    between atoms: C24_33  and  C25_34 
REMARK   24  A    between atoms: C28_38  and  O6_39 
REMARK   25  A    between atoms: C29_42  and  O8_43 
REMARK   26  A    between atoms: C29_42  and  C35_49 
ROOT
ATOM      1  C14 non d ame     -33.094  11.837  28.442  0.00  0.00     0.089 C 
ATOM      2  H20 non d ame     -33.298  12.190  29.453  0.00  0.00     0.087 H 
ENDROOT
BRANCH   1   3
ATOM      3  N4  non d ame     -33.676  10.509  28.316  0.00  0.00    -0.346 N 
ATOM      4  C10 non d ame     -34.222   9.799  29.528  0.00  0.00     0.241 C 
ATOM      5  O4  non d ame     -34.180  10.314  30.596  0.00  0.00    -0.271 OA
ATOM      6  H19 non d ame     -33.700  10.087  27.398  0.00  0.00     0.163 HD
BRANCH   4   7
ATOM      7  C9  non d ame     -34.826   8.427  29.378  0.00  0.00     0.092 C 
ATOM      8  H11 non d ame     -35.728   8.497  28.770  0.00  0.00     0.088 H 
BRANCH   7   9
ATOM      9  N3  non d ame     -33.888   7.556  28.663  0.00  0.00    -0.346 N 
ATOM     10  C7  non d ame     -34.144   7.195  27.290  0.00  0.00     0.240 C 
ATOM     11  O3  non d ame     -35.100   7.596  26.746  0.00  0.00    -0.271 OA
ATOM     12  H10 non d ame     -33.060   7.201  29.119  0.00  0.00     0.163 HD
BRANCH  10  13
ATOM     13  C6  non d ame     -33.144   6.265  26.535  0.00  0.00     0.086 C 
ATOM     14  H6  non d ame     -33.639   5.600  25.828  0.00  0.00     0.086 H 
BRANCH  13  15
ATOM     15  N2  non d ame     -32.228   7.086  25.762  0.00  0.00    -0.343 N 
ATOM     16  C5  non d ame     -32.545   7.404  24.368  0.00  0.00     0.273 C 
ATOM     17  O2  non d ame     -33.538   6.992  23.877  0.00  0.00    -0.266 OA
ATOM     18  H5  non d ame     -31.380   7.432  26.189  0.00  0.00     0.163 HD
BRANCH  16  19
ATOM     19  C4  non d ame     -31.586   8.273  23.539  0.00  0.00     0.154 A 
ATOM     20  C1  non d ame     -31.384   9.686  23.650  0.00  0.00    -0.017 A 
ATOM     21  C2  non d ame     -30.409   9.991  22.675  0.00  0.00     0.077 A 
ATOM     22  H1  non d ame     -31.870  10.382  24.334  0.00  0.00     0.091 H 
ATOM     23  O1  non d ame     -30.093   8.878  22.080  0.00  0.00    -0.218 OA
ATOM     24  N1  non d ame     -30.767   7.862  22.567  0.00  0.00    -0.123 NA
BRANCH  21  25
ATOM     25  C3  non d ame     -29.833  11.369  22.376  0.00  0.00    -0.029 C 
ATOM     26  H2  non d ame     -30.043  11.634  21.340  0.00  0.00     0.036 H 
ATOM     27  H3  non d ame     -30.291  12.105  23.038  0.00  0.00     0.036 H 
ATOM     28  H4  non d ame     -28.756  11.356  22.537  0.00  0.00     0.036 H 
ENDBRANCH  21  25
ENDBRANCH  16  19
ENDBRANCH  13  15
BRANCH  13  29
ATOM     29  C8  non d ame     -32.377   5.433  27.531  0.00  0.00    -0.049 C 
ATOM     30  H7  non d ame     -31.400   5.883  27.705  0.00  0.00     0.030 H 
ATOM     31  H8  non d ame     -32.929   5.390  28.470  0.00  0.00     0.030 H 
ATOM     32  H9  non d ame     -32.248   4.424  27.139  0.00  0.00     0.030 H 
ENDBRANCH  13  29
ENDBRANCH  10  13
ENDBRANCH   7   9
BRANCH   7  33
ATOM     33  C11 non d ame     -35.113   7.830  30.786  0.00  0.00    -0.033 C 
ATOM     34  H12 non d ame     -34.394   8.264  31.481  0.00  0.00     0.042 H 
BRANCH  33  35
ATOM     35  C12 non d ame     -36.540   8.216  31.287  0.00  0.00    -0.071 C 
ATOM     36  H13 non d ame     -37.262   8.054  30.486  0.00  0.00     0.028 H 
ATOM     37  H14 non d ame     -36.804   7.597  32.144  0.00  0.00     0.028 H 
ATOM     38  H15 non d ame     -36.551   9.266  31.579  0.00  0.00     0.028 H 
ENDBRANCH  33  35
BRANCH  33  39
ATOM     39  C13 non d ame     -34.912   6.280  30.789  0.00  0.00    -0.071 C 
ATOM     40  H16 non d ame     -35.788   5.799  30.353  0.00  0.00     0.028 H 
ATOM     41  H17 non d ame     -34.029   6.027  30.201  0.00  0.00     0.028 H 
ATOM     42  H18 non d ame     -34.778   5.933  31.813  0.00  0.00     0.028 H 
ENDBRANCH  33  39
ENDBRANCH   7  33
ENDBRANCH   4   7
ENDBRANCH   1   3
BRANCH   1  43
ATOM     43  C15 non d ame     -33.724  12.760  27.360  0.00  0.00     0.240 C 
ATOM     44  O5  non d ame     -33.694  12.436  26.217  0.00  0.00    -0.271 OA
ATOM     45  N6  non d ame     -34.374  14.044  27.749  0.00  0.00    -0.355 N 
ATOM     46  H46 non d ame     -34.410  14.327  28.718  0.00  0.00     0.162 HD
BRANCH  45  47
ATOM     47  C20 non d ame     -34.970  14.909  26.708  0.00  0.00     0.013 C 
ATOM     48  H30 non d ame     -34.550  14.615  25.747  0.00  0.00     0.072 H 
BRANCH  47  49
ATOM     49  C21 non d ame     -34.628  16.352  27.002  0.00  0.00    -0.038 C 
ATOM     50  H31 non d ame     -34.810  16.893  26.073  0.00  0.00     0.036 H 
ATOM     51  H32 non d ame     -35.187  16.609  27.902  0.00  0.00     0.036 H 
BRANCH  49  52
ATOM     52  C22 non d ame     -33.135  16.557  27.341  0.00  0.00     0.018 C 
ATOM     53  H33 non d ame     -33.119  17.061  28.307  0.00  0.00     0.048 H 
ATOM     54  H34 non d ame     -32.670  15.577  27.230  0.00  0.00     0.048 H 
BRANCH  52  55
ATOM     55  C23 non d ame     -32.392  17.499  26.353  0.00  0.00     0.259 C 
ATOM     56  O7  non d ame     -32.109  18.607  26.675  0.00  0.00    -0.265 OA
BRANCH  55  57
ATOM     57  O8  non d ame     -32.065  17.026  25.052  0.00  0.00    -0.317 OA
BRANCH  57  58
ATOM     58  C29 non d ame     -31.219  15.872  25.048  0.00  0.00     0.052 C 
ATOM     59  H47 non d ame     -30.389  16.113  25.714  0.00  0.00     0.082 H 
ATOM     60  H48 non d ame     -31.870  15.028  25.272  0.00  0.00     0.082 H 
BRANCH  58  61
ATOM     61  C35 non d ame     -30.660  15.693  23.612  0.00  0.00    -0.034 A 
ATOM     62  C30 non d ame     -31.399  16.131  22.517  0.00  0.00    -0.075 A 
ATOM     63  C31 non d ame     -30.898  15.970  21.226  0.00  0.00    -0.082 A 
ATOM     64  H49 non d ame     -32.372  16.599  22.670  0.00  0.00     0.084 H 
ATOM     65  C32 non d ame     -29.652  15.366  21.032  0.00  0.00    -0.083 A 
ATOM     66  H50 non d ame     -31.479  16.315  20.371  0.00  0.00     0.083 H 
ATOM     67  C33 non d ame     -28.920  14.928  22.127  0.00  0.00    -0.082 A 
ATOM     68  H51 non d ame     -29.253  15.237  20.026  0.00  0.00     0.083 H 
ATOM     69  C34 non d ame     -29.416  15.089  23.419  0.00  0.00    -0.075 A 
ATOM     70  H52 non d ame     -27.950  14.455  21.972  0.00  0.00     0.083 H 
ATOM     71  H53 non d ame     -28.835  14.743  24.274  0.00  0.00     0.084 H 
ENDBRANCH  58  61
ENDBRANCH  57  58
ENDBRANCH  55  57
ENDBRANCH  52  55
ENDBRANCH  49  52
ENDBRANCH  47  49
BRANCH  47  72
ATOM     72  C24 non d ame     -36.487  14.736  26.700  0.00  0.00    -0.039 C 
ATOM     73  H35 non d ame     -36.732  14.270  27.655  0.00  0.00     0.036 H 
ATOM     74  H36 non d ame     -36.890  15.719  26.455  0.00  0.00     0.036 H 
BRANCH  72  75
ATOM     75  C25 non d ame     -36.963  13.729  25.548  0.00  0.00    -0.001 C 
ATOM     76  C26 non d ame     -38.213  14.389  24.708  0.00  0.00    -0.035 C 
ATOM     77  C27 non d ame     -39.226  13.491  24.656  0.00  0.00     0.085 C 
ATOM     78  H38 non d ame     -38.640  15.222  25.267  0.00  0.00     0.036 H 
ATOM     79  H39 non d ame     -37.934  14.520  23.663  0.00  0.00     0.036 H 
ATOM     80  N5  non d ame     -38.908  12.408  25.659  0.00  0.00    -0.049 N 
ATOM     81  H40 non d ame     -40.112  14.033  24.987  0.00  0.00     0.075 H 
ATOM     82  H41 non d ame     -39.188  13.068  23.653  0.00  0.00     0.075 H 
ATOM     83  C28 non d ame     -37.352  12.602  26.043  0.00  0.00     0.193 C 
ATOM     84  H42 non d ame     -39.467  12.602  26.477  0.00  0.00     0.280 HD
ATOM     85  H43 non d ame     -39.012  11.529  25.172  0.00  0.00     0.280 HD
ATOM     86  H44 non d ame     -36.593  11.934  25.635  0.00  0.00     0.129 H 
ATOM     87  H37 non d ame     -36.125  13.342  24.967  0.00  0.00     0.046 H 
BRANCH  83  88
ATOM     88  O6  non d ame     -37.184  12.550  27.461  0.00  0.00    -0.369 OA
ATOM     89  H45 non d ame     -37.970  12.896  27.889  0.00  0.00     0.212 HD
ENDBRANCH  83  88
ENDBRANCH  72  75
ENDBRANCH  47  72
ENDBRANCH  45  47
ENDBRANCH   1  43
BRANCH   1  90
ATOM     90  C16 non d ame     -31.592  11.744  28.223  0.00  0.00    -0.035 C 
ATOM     91  H21 non d ame     -31.339  10.700  28.403  0.00  0.00     0.037 H 
ATOM     92  H22 non d ame     -31.416  12.187  27.242  0.00  0.00     0.037 H 
BRANCH  90  93
ATOM     93  C17 non d ame     -30.757  12.582  29.242  0.00  0.00    -0.059 C 
ATOM     94  H23 non d ame     -29.792  12.090  29.363  0.00  0.00     0.038 H 
BRANCH  93  95
ATOM     95  C18 non d ame     -30.490  14.035  28.733  0.00  0.00    -0.073 C 
ATOM     96  H24 non d ame     -30.253  14.679  29.578  0.00  0.00     0.028 H 
ATOM     97  H25 non d ame     -29.652  14.027  28.036  0.00  0.00     0.028 H 
ATOM     98  H26 non d ame     -31.379  14.411  28.227  0.00  0.00     0.028 H 
ENDBRANCH  93  95
BRANCH  93  99
ATOM     99  C19 non d ame     -31.432  12.603  30.616  0.00  0.00    -0.073 C 
ATOM    100  H27 non d ame     -31.093  13.476  31.175  0.00  0.00     0.028 H 
ATOM    101  H28 non d ame     -32.514  12.650  30.489  0.00  0.00     0.028 H 
ATOM    102  H29 non d ame     -31.171  11.697  31.163  0.00  0.00     0.028 H 
ENDBRANCH  93  99
ENDBRANCH  90  93
ENDBRANCH   1  90
TORSDOF 26
ENDMDL
MODEL 11
REMARK VINA RESULT:      -6.8      2.329      7.107
REMARK  26 active torsions:
REMARK  status: ('A' for Active; 'I' for Inactive)
REMARK    1  A    between atoms: C2_2  and  C3_3 
REMARK    2  A    between atoms: C4_6  and  C5_7 
REMARK       I    between atoms: C5_7  and  N2_9 
REMARK    3  A    between atoms: N2_9  and  C6_10 
REMARK    4  A    between atoms: C6_10  and  C7_11 
REMARK    5  A    between atoms: C6_10  and  C8_13 
REMARK       I    between atoms: C7_11  and  N3_14 
REMARK    6  A    between atoms: N3_14  and  C9_15 
REMARK    7  A    between atoms: C9_15  and  C10_16 
REMARK    8  A    between atoms: C9_15  and  C11_18 
REMARK       I    between atoms: C10_16  and  N4_21 
REMARK    9  A    between atoms: C11_18  and  C12_19 
REMARK   10  A    between atoms: C11_18  and  C13_20 
REMARK   11  A    between atoms: N4_21  and  C14_22 
REMARK   12  A    between atoms: C14_22  and  C15_23 
REMARK   13  A    between atoms: C14_22  and  C16_25 
REMARK       I    between atoms: C15_23  and  N6_40 
REMARK   14  A    between atoms: C16_25  and  C17_26 
REMARK   15  A    between atoms: C17_26  and  C18_27 
REMARK   16  A    between atoms: C17_26  and  C19_28 
REMARK   17  A    between atoms: C20_29  and  C21_30 
REMARK   18  A    between atoms: C20_29  and  C24_33 
REMARK   19  A    between atoms: C20_29  and  N6_40 
REMARK   20  A    between atoms: C21_30  and  C22_31 
REMARK   21  A    between atoms: C22_31  and  C23_32 
REMARK   22  A    between atoms: C23_32  and  O8_43 
REMARK   23  A    between atoms: C24_33  and  C25_34 
REMARK   24  A    between atoms: C28_38  and  O6_39 
REMARK   25  A    between atoms: C29_42  and  O8_43 
REMARK   26  A    between atoms: C29_42  and  C35_49 
ROOT
ATOM      1  C14 non d ame     -32.035   9.826  24.924  0.00  0.00     0.089 C 
ATOM      2  H20 non d ame     -31.506   8.928  25.244  0.00  0.00     0.087 H 
ENDROOT
BRANCH   1   3
ATOM      3  N4  non d ame     -33.436   9.660  25.279  0.00  0.00    -0.346 N 
ATOM      4  C10 non d ame     -34.041   8.282  25.370  0.00  0.00     0.241 C 
ATOM      5  O4  non d ame     -33.380   7.321  25.150  0.00  0.00    -0.271 OA
ATOM      6  H19 non d ame     -33.982  10.491  25.460  0.00  0.00     0.163 HD
BRANCH   4   7
ATOM      7  C9  non d ame     -35.492   8.128  25.743  0.00  0.00     0.092 C 
ATOM      8  H11 non d ame     -35.649   7.137  26.169  0.00  0.00     0.088 H 
BRANCH   7   9
ATOM      9  N3  non d ame     -35.835   9.105  26.781  0.00  0.00    -0.346 N 
ATOM     10  C7  non d ame     -35.683   8.761  28.173  0.00  0.00     0.240 C 
ATOM     11  O3  non d ame     -35.286   7.703  28.477  0.00  0.00    -0.271 OA
ATOM     12  H10 non d ame     -36.181  10.022  26.534  0.00  0.00     0.163 HD
BRANCH  10  13
ATOM     13  C6  non d ame     -36.053   9.805  29.273  0.00  0.00     0.086 C 
ATOM     14  H6  non d ame     -36.158   9.357  30.261  0.00  0.00     0.086 H 
BRANCH  13  15
ATOM     15  N2  non d ame     -34.985  10.785  29.372  0.00  0.00    -0.343 N 
ATOM     16  C5  non d ame     -33.860  10.537  30.277  0.00  0.00     0.273 C 
ATOM     17  O2  non d ame     -33.826   9.548  30.922  0.00  0.00    -0.266 OA
ATOM     18  H5  non d ame     -35.023  11.629  28.818  0.00  0.00     0.163 HD
BRANCH  16  19
ATOM     19  C4  non d ame     -32.723  11.564  30.390  0.00  0.00     0.154 A 
ATOM     20  C1  non d ame     -32.632  12.831  29.730  0.00  0.00    -0.017 A 
ATOM     21  C2  non d ame     -31.407  13.381  30.167  0.00  0.00     0.077 A 
ATOM     22  H1  non d ame     -33.346  13.281  29.041  0.00  0.00     0.091 H 
ATOM     23  O1  non d ame     -30.866  12.524  30.983  0.00  0.00    -0.218 OA
ATOM     24  N1  non d ame     -31.614  11.456  31.128  0.00  0.00    -0.123 NA
BRANCH  21  25
ATOM     25  C3  non d ame     -30.828  14.730  29.759  0.00  0.00    -0.029 C 
ATOM     26  H2  non d ame     -29.856  14.866  30.232  0.00  0.00     0.036 H 
ATOM     27  H3  non d ame     -30.712  14.762  28.676  0.00  0.00     0.036 H 
ATOM     28  H4  non d ame     -31.501  15.525  30.076  0.00  0.00     0.036 H 
ENDBRANCH  21  25
ENDBRANCH  16  19
ENDBRANCH  13  15
BRANCH  13  29
ATOM     29  C8  non d ame     -37.347  10.486  28.907  0.00  0.00    -0.049 C 
ATOM     30  H7  non d ame     -37.374  10.661  27.832  0.00  0.00     0.030 H 
ATOM     31  H8  non d ame     -38.185   9.851  29.193  0.00  0.00     0.030 H 
ATOM     32  H9  non d ame     -37.417  11.439  29.432  0.00  0.00     0.030 H 
ENDBRANCH  13  29
ENDBRANCH  10  13
ENDBRANCH   7   9
BRANCH   7  33
ATOM     33  C11 non d ame     -36.379   8.374  24.488  0.00  0.00    -0.033 C 
ATOM     34  H12 non d ame     -35.724   8.380  23.618  0.00  0.00     0.042 H 
BRANCH  33  35
ATOM     35  C12 non d ame     -37.413   7.222  24.289  0.00  0.00    -0.071 C 
ATOM     36  H13 non d ame     -38.419   7.601  24.466  0.00  0.00     0.028 H 
ATOM     37  H14 non d ame     -37.342   6.843  23.269  0.00  0.00     0.028 H 
ATOM     38  H15 non d ame     -37.200   6.417  24.992  0.00  0.00     0.028 H 
ENDBRANCH  33  35
BRANCH  33  39
ATOM     39  C13 non d ame     -37.089   9.764  24.569  0.00  0.00    -0.071 C 
ATOM     40  H16 non d ame     -36.625  10.450  23.861  0.00  0.00     0.028 H 
ATOM     41  H17 non d ame     -38.145   9.647  24.324  0.00  0.00     0.028 H 
ATOM     42  H18 non d ame     -36.993  10.163  25.579  0.00  0.00     0.028 H 
ENDBRANCH  33  39
ENDBRANCH   7  33
ENDBRANCH   4   7
ENDBRANCH   1   3
BRANCH   1  43
ATOM     43  C15 non d ame     -31.495  11.106  25.625  0.00  0.00     0.240 C 
ATOM     44  O5  non d ame     -31.001  11.025  26.703  0.00  0.00    -0.271 OA
ATOM     45  N6  non d ame     -31.585  12.431  24.948  0.00  0.00    -0.355 N 
ATOM     46  H46 non d ame     -31.997  12.511  24.030  0.00  0.00     0.162 HD
BRANCH  45  47
ATOM     47  C20 non d ame     -31.065  13.637  25.627  0.00  0.00     0.013 C 
ATOM     48  H30 non d ame     -30.290  13.322  26.325  0.00  0.00     0.072 H 
BRANCH  47  49
ATOM     49  C21 non d ame     -32.191  14.313  26.376  0.00  0.00    -0.038 C 
ATOM     50  H31 non d ame     -32.173  13.889  27.381  0.00  0.00     0.036 H 
ATOM     51  H32 non d ame     -32.040  15.383  26.233  0.00  0.00     0.036 H 
BRANCH  49  52
ATOM     52  C22 non d ame     -33.582  13.986  25.790  0.00  0.00     0.018 C 
ATOM     53  H33 non d ame     -33.770  14.746  25.033  0.00  0.00     0.048 H 
ATOM     54  H34 non d ame     -33.544  12.933  25.508  0.00  0.00     0.048 H 
BRANCH  52  55
ATOM     55  C23 non d ame     -34.740  14.111  26.819  0.00  0.00     0.259 C 
ATOM     56  O7  non d ame     -35.298  13.142  27.220  0.00  0.00    -0.265 OA
BRANCH  55  57
ATOM     57  O8  non d ame     -35.137  15.401  27.268  0.00  0.00    -0.317 OA
BRANCH  57  58
ATOM     58  C29 non d ame     -35.191  16.387  26.232  0.00  0.00     0.052 C 
ATOM     59  H47 non d ame     -34.813  15.894  25.336  0.00  0.00     0.082 H 
ATOM     60  H48 non d ame     -36.208  16.778  26.251  0.00  0.00     0.082 H 
BRANCH  58  61
ATOM     61  C35 non d ame     -34.217  17.534  26.611  0.00  0.00    -0.034 A 
ATOM     62  C30 non d ame     -34.046  18.614  25.752  0.00  0.00    -0.075 A 
ATOM     63  C31 non d ame     -33.170  19.645  26.091  0.00  0.00    -0.082 A 
ATOM     64  H49 non d ame     -34.597  18.654  24.812  0.00  0.00     0.084 H 
ATOM     65  C32 non d ame     -32.462  19.591  27.295  0.00  0.00    -0.083 A 
ATOM     66  H50 non d ame     -33.039  20.491  25.416  0.00  0.00     0.083 H 
ATOM     67  C33 non d ame     -32.634  18.509  28.148  0.00  0.00    -0.082 A 
ATOM     68  H51 non d ame     -31.776  20.392  27.568  0.00  0.00     0.083 H 
ATOM     69  C34 non d ame     -33.510  17.478  27.813  0.00  0.00    -0.075 A 
ATOM     70  H52 non d ame     -32.079  18.468  29.085  0.00  0.00     0.083 H 
ATOM     71  H53 non d ame     -33.640  16.632  28.489  0.00  0.00     0.084 H 
ENDBRANCH  58  61
ENDBRANCH  57  58
ENDBRANCH  55  57
ENDBRANCH  52  55
ENDBRANCH  49  52
ENDBRANCH  47  49
BRANCH  47  72
ATOM     72  C24 non d ame     -30.489  14.604  24.594  0.00  0.00    -0.039 C 
ATOM     73  H35 non d ame     -30.835  15.592  24.897  0.00  0.00     0.036 H 
ATOM     74  H36 non d ame     -29.421  14.388  24.559  0.00  0.00     0.036 H 
BRANCH  72  75
ATOM     75  C25 non d ame     -31.076  14.326  23.130  0.00  0.00    -0.001 C 
ATOM     76  C26 non d ame     -29.850  13.969  22.093  0.00  0.00    -0.035 C 
ATOM     77  C27 non d ame     -29.960  14.761  21.000  0.00  0.00     0.085 C 
ATOM     78  H38 non d ame     -28.896  14.265  22.527  0.00  0.00     0.036 H 
ATOM     79  H39 non d ame     -29.979  12.964  21.693  0.00  0.00     0.036 H 
ATOM     80  N5  non d ame     -30.951  15.848  21.339  0.00  0.00    -0.049 N 
ATOM     81  H40 non d ame     -28.975  15.208  20.864  0.00  0.00     0.075 H 
ATOM     82  H41 non d ame     -30.381  14.126  20.221  0.00  0.00     0.075 H 
ATOM     83  C28 non d ame     -31.709  15.356  22.676  0.00  0.00     0.193 C 
ATOM     84  H42 non d ame     -30.409  16.671  21.560  0.00  0.00     0.280 HD
ATOM     85  H43 non d ame     -31.619  15.872  20.581  0.00  0.00     0.280 HD
ATOM     86  H44 non d ame     -32.723  14.958  22.624  0.00  0.00     0.129 H 
ATOM     87  H37 non d ame     -31.924  13.641  23.148  0.00  0.00     0.046 H 
BRANCH  83  88
ATOM     88  O6  non d ame     -31.764  16.418  23.631  0.00  0.00    -0.369 OA
ATOM     89  H45 non d ame     -32.581  16.908  23.517  0.00  0.00     0.212 HD
ENDBRANCH  83  88
ENDBRANCH  72  75
ENDBRANCH  47  72
ENDBRANCH  45  47
ENDBRANCH   1  43
BRANCH   1  90
ATOM     90  C16 non d ame     -31.920   9.982  23.416  0.00  0.00    -0.035 C 
ATOM     91  H21 non d ame     -32.939   9.908  23.040  0.00  0.00     0.037 H 
ATOM     92  H22 non d ame     -31.348  10.898  23.264  0.00  0.00     0.037 H 
BRANCH  90  93
ATOM     93  C17 non d ame     -31.111   8.837  22.728  0.00  0.00    -0.059 C 
ATOM     94  H23 non d ame     -30.825   8.123  23.500  0.00  0.00     0.038 H 
BRANCH  93  95
ATOM     95  C18 non d ame     -31.962   8.072  21.664  0.00  0.00    -0.073 C 
ATOM     96  H24 non d ame     -31.498   8.176  20.684  0.00  0.00     0.028 H 
ATOM     97  H25 non d ame     -32.014   7.017  21.931  0.00  0.00     0.028 H 
ATOM     98  H26 non d ame     -32.969   8.489  21.636  0.00  0.00     0.028 H 
ENDBRANCH  93  95
BRANCH  93  99
ATOM     99  C19 non d ame     -29.820   9.376  22.106  0.00  0.00    -0.073 C 
ATOM    100  H27 non d ame     -29.593  10.355  22.531  0.00  0.00     0.028 H 
ATOM    101  H28 non d ame     -29.000   8.690  22.318  0.00  0.00     0.028 H 
ATOM    102  H29 non d ame     -29.947   9.468  21.028  0.00  0.00     0.028 H 
ENDBRANCH  93  99
ENDBRANCH  90  93
ENDBRANCH   1  90
TORSDOF 26
ENDMDL
MODEL 12
REMARK VINA RESULT:      -6.8      2.829      8.060
REMARK  26 active torsions:
REMARK  status: ('A' for Active; 'I' for Inactive)
REMARK    1  A    between atoms: C2_2  and  C3_3 
REMARK    2  A    between atoms: C4_6  and  C5_7 
REMARK       I    between atoms: C5_7  and  N2_9 
REMARK    3  A    between atoms: N2_9  and  C6_10 
REMARK    4  A    between atoms: C6_10  and  C7_11 
REMARK    5  A    between atoms: C6_10  and  C8_13 
REMARK       I    between atoms: C7_11  and  N3_14 
REMARK    6  A    between atoms: N3_14  and  C9_15 
REMARK    7  A    between atoms: C9_15  and  C10_16 
REMARK    8  A    between atoms: C9_15  and  C11_18 
REMARK       I    between atoms: C10_16  and  N4_21 
REMARK    9  A    between atoms: C11_18  and  C12_19 
REMARK   10  A    between atoms: C11_18  and  C13_20 
REMARK   11  A    between atoms: N4_21  and  C14_22 
REMARK   12  A    between atoms: C14_22  and  C15_23 
REMARK   13  A    between atoms: C14_22  and  C16_25 
REMARK       I    between atoms: C15_23  and  N6_40 
REMARK   14  A    between atoms: C16_25  and  C17_26 
REMARK   15  A    between atoms: C17_26  and  C18_27 
REMARK   16  A    between atoms: C17_26  and  C19_28 
REMARK   17  A    between atoms: C20_29  and  C21_30 
REMARK   18  A    between atoms: C20_29  and  C24_33 
REMARK   19  A    between atoms: C20_29  and  N6_40 
REMARK   20  A    between atoms: C21_30  and  C22_31 
REMARK   21  A    between atoms: C22_31  and  C23_32 
REMARK   22  A    between atoms: C23_32  and  O8_43 
REMARK   23  A    between atoms: C24_33  and  C25_34 
REMARK   24  A    between atoms: C28_38  and  O6_39 
REMARK   25  A    between atoms: C29_42  and  O8_43 
REMARK   26  A    between atoms: C29_42  and  C35_49 
ROOT
ATOM      1  C14 non d ame     -36.628  13.798  26.333  0.00  0.00     0.089 C 
ATOM      2  H20 non d ame     -37.247  13.829  27.231  0.00  0.00     0.087 H 
ENDROOT
BRANCH   1   3
ATOM      3  N4  non d ame     -36.291  15.170  25.986  0.00  0.00    -0.346 N 
ATOM      4  C10 non d ame     -36.965  16.321  26.690  0.00  0.00     0.241 C 
ATOM      5  O4  non d ame     -37.778  16.118  27.530  0.00  0.00    -0.271 OA
ATOM      6  H19 non d ame     -35.598  15.322  25.267  0.00  0.00     0.163 HD
BRANCH   4   7
ATOM      7  C9  non d ame     -36.600  17.736  26.322  0.00  0.00     0.092 C 
ATOM      8  H11 non d ame     -36.952  18.411  27.101  0.00  0.00     0.088 H 
BRANCH   7   9
ATOM      9  N3  non d ame     -35.140  17.865  26.265  0.00  0.00    -0.346 N 
ATOM     10  C7  non d ame     -34.369  17.872  27.484  0.00  0.00     0.240 C 
ATOM     11  O3  non d ame     -34.907  17.776  28.519  0.00  0.00    -0.271 OA
ATOM     12  H10 non d ame     -34.663  17.950  25.379  0.00  0.00     0.163 HD
BRANCH  10  13
ATOM     13  C6  non d ame     -32.817  18.012  27.416  0.00  0.00     0.086 C 
ATOM     14  H6  non d ame     -32.304  17.361  28.123  0.00  0.00     0.086 H 
BRANCH  13  15
ATOM     15  N2  non d ame     -32.366  17.626  26.090  0.00  0.00    -0.343 N 
ATOM     16  C5  non d ame     -31.874  16.265  25.864  0.00  0.00     0.273 C 
ATOM     17  O2  non d ame     -31.842  15.490  26.756  0.00  0.00    -0.266 OA
ATOM     18  H5  non d ame     -32.393  18.295  25.334  0.00  0.00     0.163 HD
BRANCH  16  19
ATOM     19  C4  non d ame     -31.395  15.842  24.466  0.00  0.00     0.154 A 
ATOM     20  C1  non d ame     -30.568  14.721  24.138  0.00  0.00    -0.017 A 
ATOM     21  C2  non d ame     -30.422  14.775  22.734  0.00  0.00     0.077 A 
ATOM     22  H1  non d ame     -30.139  13.981  24.815  0.00  0.00     0.091 H 
ATOM     23  O1  non d ame     -31.092  15.808  22.315  0.00  0.00    -0.218 OA
ATOM     24  N1  non d ame     -31.668  16.447  23.307  0.00  0.00    -0.123 NA
BRANCH  21  25
ATOM     25  C3  non d ame     -29.629  13.802  21.872  0.00  0.00    -0.029 C 
ATOM     26  H2  non d ame     -28.570  14.054  21.920  0.00  0.00     0.036 H 
ATOM     27  H3  non d ame     -29.778  12.787  22.239  0.00  0.00     0.036 H 
ATOM     28  H4  non d ame     -29.972  13.869  20.839  0.00  0.00     0.036 H 
ENDBRANCH  21  25
ENDBRANCH  16  19
ENDBRANCH  13  15
BRANCH  13  29
ATOM     29  C8  non d ame     -32.426  19.441  27.699  0.00  0.00    -0.049 C 
ATOM     30  H7  non d ame     -31.958  19.871  26.814  0.00  0.00     0.030 H 
ATOM     31  H8  non d ame     -33.315  20.016  27.955  0.00  0.00     0.030 H 
ATOM     32  H9  non d ame     -31.723  19.468  28.531  0.00  0.00     0.030 H 
ENDBRANCH  13  29
ENDBRANCH  10  13
ENDBRANCH   7   9
BRANCH   7  33
ATOM     33  C11 non d ame     -37.203  18.082  24.929  0.00  0.00    -0.033 C 
ATOM     34  H12 non d ame     -36.832  17.345  24.218  0.00  0.00     0.042 H 
BRANCH  33  35
ATOM     35  C12 non d ame     -38.760  17.977  24.943  0.00  0.00    -0.071 C 
ATOM     36  H13 non d ame     -39.136  18.276  25.921  0.00  0.00     0.028 H 
ATOM     37  H14 non d ame     -39.175  18.633  24.178  0.00  0.00     0.028 H 
ATOM     38  H15 non d ame     -39.057  16.948  24.739  0.00  0.00     0.028 H 
ENDBRANCH  33  35
BRANCH  33  39
ATOM     39  C13 non d ame     -36.734  19.494  24.452  0.00  0.00    -0.071 C 
ATOM     40  H16 non d ame     -36.481  19.453  23.392  0.00  0.00     0.028 H 
ATOM     41  H17 non d ame     -37.538  20.215  24.607  0.00  0.00     0.028 H 
ATOM     42  H18 non d ame     -35.858  19.799  25.024  0.00  0.00     0.028 H 
ENDBRANCH  33  39
ENDBRANCH   7  33
ENDBRANCH   4   7
ENDBRANCH   1   3
BRANCH   1  43
ATOM     43  C15 non d ame     -35.308  13.005  26.556  0.00  0.00     0.240 C 
ATOM     44  O5  non d ame     -34.345  13.268  25.912  0.00  0.00    -0.271 OA
ATOM     45  N6  non d ame     -35.244  11.923  27.579  0.00  0.00    -0.355 N 
ATOM     46  H46 non d ame     -36.055  11.693  28.136  0.00  0.00     0.162 HD
BRANCH  45  47
ATOM     47  C20 non d ame     -33.981  11.179  27.780  0.00  0.00     0.013 C 
ATOM     48  H30 non d ame     -33.179  11.748  27.312  0.00  0.00     0.072 H 
BRANCH  47  49
ATOM     49  C21 non d ame     -34.095   9.817  27.133  0.00  0.00    -0.038 C 
ATOM     50  H31 non d ame     -35.015   9.381  27.523  0.00  0.00     0.036 H 
ATOM     51  H32 non d ame     -33.984   9.990  26.062  0.00  0.00     0.036 H 
BRANCH  49  52
ATOM     52  C22 non d ame     -32.953   8.862  27.542  0.00  0.00     0.018 C 
ATOM     53  H33 non d ame     -32.039   9.313  27.156  0.00  0.00     0.048 H 
ATOM     54  H34 non d ame     -33.071   8.701  28.613  0.00  0.00     0.048 H 
BRANCH  52  55
ATOM     55  C23 non d ame     -33.047   7.457  26.885  0.00  0.00     0.259 C 
ATOM     56  O7  non d ame     -33.763   6.625  27.340  0.00  0.00    -0.265 OA
BRANCH  55  57
ATOM     57  O8  non d ame     -32.255   7.169  25.739  0.00  0.00    -0.317 OA
BRANCH  57  58
ATOM     58  C29 non d ame     -32.842   7.591  24.505  0.00  0.00     0.052 C 
ATOM     59  H47 non d ame     -32.941   6.689  23.901  0.00  0.00     0.082 H 
ATOM     60  H48 non d ame     -33.728   8.162  24.780  0.00  0.00     0.082 H 
BRANCH  58  61
ATOM     61  C35 non d ame     -31.842   8.546  23.800  0.00  0.00    -0.034 A 
ATOM     62  C30 non d ame     -31.803   9.893  24.146  0.00  0.00    -0.075 A 
ATOM     63  C31 non d ame     -30.905  10.751  23.513  0.00  0.00    -0.082 A 
ATOM     64  H49 non d ame     -32.477  10.277  24.912  0.00  0.00     0.084 H 
ATOM     65  C32 non d ame     -30.045  10.257  22.528  0.00  0.00    -0.083 A 
ATOM     66  H50 non d ame     -30.876  11.805  23.787  0.00  0.00     0.083 H 
ATOM     67  C33 non d ame     -30.089   8.913  22.184  0.00  0.00    -0.082 A 
ATOM     68  H51 non d ame     -29.339  10.921  22.029  0.00  0.00     0.083 H 
ATOM     69  C34 non d ame     -30.984   8.052  22.816  0.00  0.00    -0.075 A 
ATOM     70  H52 non d ame     -29.418   8.532  21.414  0.00  0.00     0.083 H 
ATOM     71  H53 non d ame     -31.012   6.997  22.541  0.00  0.00     0.084 H 
ENDBRANCH  58  61
ENDBRANCH  57  58
ENDBRANCH  55  57
ENDBRANCH  52  55
ENDBRANCH  49  52
ENDBRANCH  47  49
BRANCH  47  72
ATOM     72  C24 non d ame     -33.712  11.012  29.275  0.00  0.00    -0.039 C 
ATOM     73  H35 non d ame     -34.691  11.060  29.753  0.00  0.00     0.036 H 
ATOM     74  H36 non d ame     -33.107  10.110  29.362  0.00  0.00     0.036 H 
BRANCH  72  75
ATOM     75  C25 non d ame     -32.842  12.224  29.859  0.00  0.00    -0.001 C 
ATOM     76  C26 non d ame     -31.616  12.582  28.823  0.00  0.00    -0.035 C 
ATOM     77  C27 non d ame     -30.452  12.605  29.516  0.00  0.00     0.085 C 
ATOM     78  H38 non d ame     -31.474  11.767  28.114  0.00  0.00     0.036 H 
ATOM     79  H39 non d ame     -31.718  13.606  28.463  0.00  0.00     0.036 H 
ATOM     80  N5  non d ame     -30.726  11.975  30.860  0.00  0.00    -0.049 N 
ATOM     81  H40 non d ame     -29.768  11.967  28.957  0.00  0.00     0.075 H 
ATOM     82  H41 non d ame     -30.219  13.660  29.659  0.00  0.00     0.075 H 
ATOM     83  C28 non d ame     -32.333  11.923  31.007  0.00  0.00     0.193 C 
ATOM     84  H42 non d ame     -30.377  11.029  30.809  0.00  0.00     0.280 HD
ATOM     85  H43 non d ame     -30.360  12.612  31.554  0.00  0.00     0.280 HD
ATOM     86  H44 non d ame     -32.854  12.635  31.647  0.00  0.00     0.129 H 
ATOM     87  H37 non d ame     -33.463  13.053  30.198  0.00  0.00     0.046 H 
BRANCH  83  88
ATOM     88  O6  non d ame     -32.745  10.631  31.457  0.00  0.00    -0.369 OA
ATOM     89  H45 non d ame     -31.991  10.166  31.828  0.00  0.00     0.212 HD
ENDBRANCH  83  88
ENDBRANCH  72  75
ENDBRANCH  47  72
ENDBRANCH  45  47
ENDBRANCH   1  43
BRANCH   1  90
ATOM     90  C16 non d ame     -37.412  13.175  25.189  0.00  0.00    -0.035 C 
ATOM     91  H21 non d ame     -36.707  12.517  24.681  0.00  0.00     0.037 H 
ATOM     92  H22 non d ame     -38.311  12.762  25.646  0.00  0.00     0.037 H 
BRANCH  90  93
ATOM     93  C17 non d ame     -37.894  14.210  24.123  0.00  0.00    -0.059 C 
ATOM     94  H23 non d ame     -37.453  15.175  24.376  0.00  0.00     0.038 H 
BRANCH  93  95
ATOM     95  C18 non d ame     -37.423  13.835  22.682  0.00  0.00    -0.073 C 
ATOM     96  H24 non d ame     -38.068  14.320  21.950  0.00  0.00     0.028 H 
ATOM     97  H25 non d ame     -36.395  14.169  22.536  0.00  0.00     0.028 H 
ATOM     98  H26 non d ame     -37.475  12.754  22.552  0.00  0.00     0.028 H 
ENDBRANCH  93  95
BRANCH  93  99
ATOM     99  C19 non d ame     -39.414  14.378  24.173  0.00  0.00    -0.073 C 
ATOM    100  H27 non d ame     -39.662  15.438  24.226  0.00  0.00     0.028 H 
ATOM    101  H28 non d ame     -39.858  13.947  23.275  0.00  0.00     0.028 H 
ATOM    102  H29 non d ame     -39.808  13.868  25.052  0.00  0.00     0.028 H 
ENDBRANCH  93  99
ENDBRANCH  90  93
ENDBRANCH   1  90
TORSDOF 26
ENDMDL
MODEL 13
REMARK VINA RESULT:      -6.7      2.354      6.004
REMARK  26 active torsions:
REMARK  status: ('A' for Active; 'I' for Inactive)
REMARK    1  A    between atoms: C2_2  and  C3_3 
REMARK    2  A    between atoms: C4_6  and  C5_7 
REMARK       I    between atoms: C5_7  and  N2_9 
REMARK    3  A    between atoms: N2_9  and  C6_10 
REMARK    4  A    between atoms: C6_10  and  C7_11 
REMARK    5  A    between atoms: C6_10  and  C8_13 
REMARK       I    between atoms: C7_11  and  N3_14 
REMARK    6  A    between atoms: N3_14  and  C9_15 
REMARK    7  A    between atoms: C9_15  and  C10_16 
REMARK    8  A    between atoms: C9_15  and  C11_18 
REMARK       I    between atoms: C10_16  and  N4_21 
REMARK    9  A    between atoms: C11_18  and  C12_19 
REMARK   10  A    between atoms: C11_18  and  C13_20 
REMARK   11  A    between atoms: N4_21  and  C14_22 
REMARK   12  A    between atoms: C14_22  and  C15_23 
REMARK   13  A    between atoms: C14_22  and  C16_25 
REMARK       I    between atoms: C15_23  and  N6_40 
REMARK   14  A    between atoms: C16_25  and  C17_26 
REMARK   15  A    between atoms: C17_26  and  C18_27 
REMARK   16  A    between atoms: C17_26  and  C19_28 
REMARK   17  A    between atoms: C20_29  and  C21_30 
REMARK   18  A    between atoms: C20_29  and  C24_33 
REMARK   19  A    between atoms: C20_29  and  N6_40 
REMARK   20  A    between atoms: C21_30  and  C22_31 
REMARK   21  A    between atoms: C22_31  and  C23_32 
REMARK   22  A    between atoms: C23_32  and  O8_43 
REMARK   23  A    between atoms: C24_33  and  C25_34 
REMARK   24  A    between atoms: C28_38  and  O6_39 
REMARK   25  A    between atoms: C29_42  and  O8_43 
REMARK   26  A    between atoms: C29_42  and  C35_49 
ROOT
ATOM      1  C14 non d ame     -32.619  10.100  24.781  0.00  0.00     0.089 C 
ATOM      2  H20 non d ame     -32.576   9.169  25.346  0.00  0.00     0.087 H 
ENDROOT
BRANCH   1   3
ATOM      3  N4  non d ame     -33.998  10.562  24.801  0.00  0.00    -0.346 N 
ATOM      4  C10 non d ame     -34.991   9.956  25.761  0.00  0.00     0.241 C 
ATOM      5  O4  non d ame     -34.656   9.096  26.507  0.00  0.00    -0.271 OA
ATOM      6  H19 non d ame     -34.264  11.294  24.157  0.00  0.00     0.163 HD
BRANCH   4   7
ATOM      7  C9  non d ame     -36.414  10.451  25.772  0.00  0.00     0.092 C 
ATOM      8  H11 non d ame     -36.759  10.528  26.803  0.00  0.00     0.088 H 
BRANCH   7   9
ATOM      9  N3  non d ame     -36.468  11.797  25.194  0.00  0.00    -0.346 N 
ATOM     10  C7  non d ame     -36.966  12.899  25.981  0.00  0.00     0.240 C 
ATOM     11  O3  non d ame     -37.327  12.719  27.080  0.00  0.00    -0.271 OA
ATOM     12  H10 non d ame     -36.161  11.967  24.247  0.00  0.00     0.163 HD
BRANCH  10  13
ATOM     13  C6  non d ame     -37.024  14.329  25.360  0.00  0.00     0.086 C 
ATOM     14  H6  non d ame     -37.910  14.885  25.665  0.00  0.00     0.086 H 
BRANCH  13  15
ATOM     15  N2  non d ame     -35.876  15.091  25.823  0.00  0.00    -0.343 N 
ATOM     16  C5  non d ame     -36.021  15.989  26.971  0.00  0.00     0.273 C 
ATOM     17  O2  non d ame     -37.067  16.093  27.514  0.00  0.00    -0.266 OA
ATOM     18  H5  non d ame     -34.987  14.998  25.352  0.00  0.00     0.163 HD
BRANCH  16  19
ATOM     19  C4  non d ame     -34.816  16.799  27.472  0.00  0.00     0.154 A 
ATOM     20  C1  non d ame     -34.351  18.056  26.971  0.00  0.00    -0.017 A 
ATOM     21  C2  non d ame     -33.225  18.370  27.765  0.00  0.00     0.077 A 
ATOM     22  H1  non d ame     -34.766  18.649  26.156  0.00  0.00     0.091 H 
ATOM     23  O1  non d ame     -33.072  17.401  28.620  0.00  0.00    -0.218 OA
ATOM     24  N1  non d ame     -33.988  16.473  28.468  0.00  0.00    -0.123 NA
BRANCH  21  25
ATOM     25  C3  non d ame     -32.354  19.613  27.643  0.00  0.00    -0.029 C 
ATOM     26  H2  non d ame     -32.523  20.261  28.503  0.00  0.00     0.036 H 
ATOM     27  H3  non d ame     -31.305  19.320  27.611  0.00  0.00     0.036 H 
ATOM     28  H4  non d ame     -32.610  20.148  26.729  0.00  0.00     0.036 H 
ENDBRANCH  21  25
ENDBRANCH  16  19
ENDBRANCH  13  15
BRANCH  13  29
ATOM     29  C8  non d ame     -37.005  14.228  23.856  0.00  0.00    -0.049 C 
ATOM     30  H7  non d ame     -37.760  14.893  23.438  0.00  0.00     0.030 H 
ATOM     31  H8  non d ame     -36.022  14.517  23.486  0.00  0.00     0.030 H 
ATOM     32  H9  non d ame     -37.218  13.201  23.558  0.00  0.00     0.030 H 
ENDBRANCH  13  29
ENDBRANCH  10  13
ENDBRANCH   7   9
BRANCH   7  33
ATOM     33  C11 non d ame     -37.302   9.491  24.927  0.00  0.00    -0.033 C 
ATOM     34  H12 non d ame     -36.754   8.556  24.807  0.00  0.00     0.042 H 
BRANCH  33  35
ATOM     35  C12 non d ame     -38.639   9.160  25.662  0.00  0.00    -0.071 C 
ATOM     36  H13 non d ame     -38.460   9.108  26.736  0.00  0.00     0.028 H 
ATOM     37  H14 non d ame     -39.371   9.939  25.452  0.00  0.00     0.028 H 
ATOM     38  H15 non d ame     -39.018   8.200  25.311  0.00  0.00     0.028 H 
ENDBRANCH  33  35
BRANCH  33  39
ATOM     39  C13 non d ame     -37.569  10.081  23.505  0.00  0.00    -0.071 C 
ATOM     40  H16 non d ame     -38.610   9.911  23.230  0.00  0.00     0.028 H 
ATOM     41  H17 non d ame     -37.365  11.153  23.513  0.00  0.00     0.028 H 
ATOM     42  H18 non d ame     -36.916   9.594  22.781  0.00  0.00     0.028 H 
ENDBRANCH  33  39
ENDBRANCH   7  33
ENDBRANCH   4   7
ENDBRANCH   1   3
BRANCH   1  43
ATOM     43  C15 non d ame     -31.717  11.206  25.403  0.00  0.00     0.240 C 
ATOM     44  O5  non d ame     -30.893  10.913  26.207  0.00  0.00    -0.271 OA
ATOM     45  N6  non d ame     -31.877  12.629  24.988  0.00  0.00    -0.355 N 
ATOM     46  H46 non d ame     -32.570  12.889  24.302  0.00  0.00     0.162 HD
BRANCH  45  47
ATOM     47  C20 non d ame     -31.011  13.668  25.587  0.00  0.00     0.013 C 
ATOM     48  H30 non d ame     -30.044  13.214  25.804  0.00  0.00     0.072 H 
BRANCH  47  49
ATOM     49  C21 non d ame     -31.645  14.170  26.865  0.00  0.00    -0.038 C 
ATOM     50  H31 non d ame     -31.975  15.187  26.650  0.00  0.00     0.036 H 
ATOM     51  H32 non d ame     -32.371  13.410  27.152  0.00  0.00     0.036 H 
BRANCH  49  52
ATOM     52  C22 non d ame     -30.639  14.275  28.032  0.00  0.00     0.018 C 
ATOM     53  H33 non d ame     -29.925  13.466  27.880  0.00  0.00     0.048 H 
ATOM     54  H34 non d ame     -30.296  15.310  28.035  0.00  0.00     0.048 H 
BRANCH  52  55
ATOM     55  C23 non d ame     -31.273  14.030  29.429  0.00  0.00     0.259 C 
ATOM     56  O7  non d ame     -30.842  14.578  30.391  0.00  0.00    -0.265 OA
BRANCH  55  57
ATOM     57  O8  non d ame     -32.369  13.131  29.549  0.00  0.00    -0.317 OA
BRANCH  57  58
ATOM     58  C29 non d ame     -31.993  11.751  29.545  0.00  0.00     0.052 C 
ATOM     59  H47 non d ame     -31.974  11.454  28.496  0.00  0.00     0.082 H 
ATOM     60  H48 non d ame     -31.086  11.690  30.145  0.00  0.00     0.082 H 
BRANCH  58  61
ATOM     61  C35 non d ame     -33.111  10.948  30.262  0.00  0.00    -0.034 A 
ATOM     62  C30 non d ame     -33.692  11.447  31.423  0.00  0.00    -0.075 A 
ATOM     63  C31 non d ame     -34.696  10.726  32.068  0.00  0.00    -0.082 A 
ATOM     64  H49 non d ame     -33.360  12.403  31.829  0.00  0.00     0.084 H 
ATOM     65  C32 non d ame     -35.118   9.499  31.547  0.00  0.00    -0.083 A 
ATOM     66  H50 non d ame     -35.150  11.121  32.977  0.00  0.00     0.083 H 
ATOM     67  C33 non d ame     -34.533   9.004  30.390  0.00  0.00    -0.082 A 
ATOM     68  H51 non d ame     -35.902   8.929  32.045  0.00  0.00     0.083 H 
ATOM     69  C34 non d ame     -33.531   9.722  29.741  0.00  0.00    -0.075 A 
ATOM     70  H52 non d ame     -34.863   8.045  29.988  0.00  0.00     0.083 H 
ATOM     71  H53 non d ame     -33.077   9.327  28.832  0.00  0.00     0.084 H 
ENDBRANCH  58  61
ENDBRANCH  57  58
ENDBRANCH  55  57
ENDBRANCH  52  55
ENDBRANCH  49  52
ENDBRANCH  47  49
BRANCH  47  72
ATOM     72  C24 non d ame     -30.845  14.829  24.609  0.00  0.00    -0.039 C 
ATOM     73  H35 non d ame     -31.855  15.191  24.416  0.00  0.00     0.036 H 
ATOM     74  H36 non d ame     -30.108  15.489  25.065  0.00  0.00     0.036 H 
BRANCH  72  75
ATOM     75  C25 non d ame     -30.241  14.342  23.208  0.00  0.00    -0.001 C 
ATOM     76  C26 non d ame     -28.865  15.177  22.870  0.00  0.00    -0.035 C 
ATOM     77  C27 non d ame     -28.961  15.688  21.620  0.00  0.00     0.085 C 
ATOM     78  H38 non d ame     -28.800  16.061  23.503  0.00  0.00     0.036 H 
ATOM     79  H39 non d ame     -28.020  14.492  22.801  0.00  0.00     0.036 H 
ATOM     80  N5  non d ame     -30.405  15.556  21.198  0.00  0.00    -0.049 N 
ATOM     81  H40 non d ame     -28.715  16.746  21.718  0.00  0.00     0.075 H 
ATOM     82  H41 non d ame     -28.348  15.042  20.993  0.00  0.00     0.075 H 
ATOM     83  C28 non d ame     -31.081  14.531  22.245  0.00  0.00     0.193 C 
ATOM     84  H42 non d ame     -30.824  16.467  21.323  0.00  0.00     0.280 HD
ATOM     85  H43 non d ame     -30.397  15.125  20.285  0.00  0.00     0.280 HD
ATOM     86  H44 non d ame     -31.287  13.500  21.957  0.00  0.00     0.129 H 
ATOM     87  H37 non d ame     -30.192  13.255  23.135  0.00  0.00     0.046 H 
BRANCH  83  88
ATOM     88  O6  non d ame     -32.327  15.053  22.712  0.00  0.00    -0.369 OA
ATOM     89  H45 non d ame     -33.001  14.918  22.042  0.00  0.00     0.212 HD
ENDBRANCH  83  88
ENDBRANCH  72  75
ENDBRANCH  47  72
ENDBRANCH  45  47
ENDBRANCH   1  43
BRANCH   1  90
ATOM     90  C16 non d ame     -32.200   9.849  23.342  0.00  0.00    -0.035 C 
ATOM     91  H21 non d ame     -32.767   8.974  23.025  0.00  0.00     0.037 H 
ATOM     92  H22 non d ame     -32.337  10.802  22.830  0.00  0.00     0.037 H 
BRANCH  90  93
ATOM     93  C17 non d ame     -30.691   9.477  23.184  0.00  0.00    -0.059 C 
ATOM     94  H23 non d ame     -30.267   9.386  24.183  0.00  0.00     0.038 H 
BRANCH  93  95
ATOM     95  C18 non d ame     -30.495   8.108  22.457  0.00  0.00    -0.073 C 
ATOM     96  H24 non d ame     -31.303   7.957  21.741  0.00  0.00     0.028 H 
ATOM     97  H25 non d ame     -29.540   8.109  21.931  0.00  0.00     0.028 H 
ATOM     98  H26 non d ame     -30.505   7.302  23.190  0.00  0.00     0.028 H 
ENDBRANCH  93  95
BRANCH  93  99
ATOM     99  C19 non d ame     -29.926  10.590  22.464  0.00  0.00    -0.073 C 
ATOM    100  H27 non d ame     -29.010  10.814  23.011  0.00  0.00     0.028 H 
ATOM    101  H28 non d ame     -29.675  10.265  21.454  0.00  0.00     0.028 H 
ATOM    102  H29 non d ame     -30.547  11.484  22.413  0.00  0.00     0.028 H 
ENDBRANCH  93  99
ENDBRANCH  90  93
ENDBRANCH   1  90
TORSDOF 26
ENDMDL
MODEL 14
REMARK VINA RESULT:      -6.7      2.338      6.802
REMARK  26 active torsions:
REMARK  status: ('A' for Active; 'I' for Inactive)
REMARK    1  A    between atoms: C2_2  and  C3_3 
REMARK    2  A    between atoms: C4_6  and  C5_7 
REMARK       I    between atoms: C5_7  and  N2_9 
REMARK    3  A    between atoms: N2_9  and  C6_10 
REMARK    4  A    between atoms: C6_10  and  C7_11 
REMARK    5  A    between atoms: C6_10  and  C8_13 
REMARK       I    between atoms: C7_11  and  N3_14 
REMARK    6  A    between atoms: N3_14  and  C9_15 
REMARK    7  A    between atoms: C9_15  and  C10_16 
REMARK    8  A    between atoms: C9_15  and  C11_18 
REMARK       I    between atoms: C10_16  and  N4_21 
REMARK    9  A    between atoms: C11_18  and  C12_19 
REMARK   10  A    between atoms: C11_18  and  C13_20 
REMARK   11  A    between atoms: N4_21  and  C14_22 
REMARK   12  A    between atoms: C14_22  and  C15_23 
REMARK   13  A    between atoms: C14_22  and  C16_25 
REMARK       I    between atoms: C15_23  and  N6_40 
REMARK   14  A    between atoms: C16_25  and  C17_26 
REMARK   15  A    between atoms: C17_26  and  C18_27 
REMARK   16  A    between atoms: C17_26  and  C19_28 
REMARK   17  A    between atoms: C20_29  and  C21_30 
REMARK   18  A    between atoms: C20_29  and  C24_33 
REMARK   19  A    between atoms: C20_29  and  N6_40 
REMARK   20  A    between atoms: C21_30  and  C22_31 
REMARK   21  A    between atoms: C22_31  and  C23_32 
REMARK   22  A    between atoms: C23_32  and  O8_43 
REMARK   23  A    between atoms: C24_33  and  C25_34 
REMARK   24  A    between atoms: C28_38  and  O6_39 
REMARK   25  A    between atoms: C29_42  and  O8_43 
REMARK   26  A    between atoms: C29_42  and  C35_49 
ROOT
ATOM      1  C14 non d ame     -36.177  10.335  26.444  0.00  0.00     0.089 C 
ATOM      2  H20 non d ame     -37.211  10.114  26.709  0.00  0.00     0.087 H 
ENDROOT
BRANCH   1   3
ATOM      3  N4  non d ame     -35.372  10.174  27.646  0.00  0.00    -0.346 N 
ATOM      4  C10 non d ame     -36.008  10.286  29.009  0.00  0.00     0.241 C 
ATOM      5  O4  non d ame     -37.169  10.510  29.113  0.00  0.00    -0.271 OA
ATOM      6  H19 non d ame     -34.386   9.987  27.536  0.00  0.00     0.163 HD
BRANCH   4   7
ATOM      7  C9  non d ame     -35.161  10.111  30.242  0.00  0.00     0.092 C 
ATOM      8  H11 non d ame     -34.672   9.138  30.206  0.00  0.00     0.088 H 
BRANCH   7   9
ATOM      9  N3  non d ame     -34.104  11.128  30.258  0.00  0.00    -0.346 N 
ATOM     10  C7  non d ame     -32.863  10.886  29.564  0.00  0.00     0.240 C 
ATOM     11  O3  non d ame     -32.697   9.880  28.990  0.00  0.00    -0.271 OA
ATOM     12  H10 non d ame     -34.232  12.000  30.750  0.00  0.00     0.163 HD
BRANCH  10  13
ATOM     13  C6  non d ame     -31.740  11.970  29.587  0.00  0.00     0.086 C 
ATOM     14  H6  non d ame     -30.985  11.811  28.819  0.00  0.00     0.086 H 
BRANCH  13  15
ATOM     15  N2  non d ame     -32.335  13.270  29.323  0.00  0.00    -0.343 N 
ATOM     16  C5  non d ame     -31.620  14.232  28.482  0.00  0.00     0.273 C 
ATOM     17  O2  non d ame     -30.567  13.952  28.025  0.00  0.00    -0.266 OA
ATOM     18  H5  non d ame     -33.235  13.502  29.720  0.00  0.00     0.163 HD
BRANCH  16  19
ATOM     19  C4  non d ame     -32.238  15.610  28.193  0.00  0.00     0.154 A 
ATOM     20  C1  non d ame     -32.435  16.217  26.912  0.00  0.00    -0.017 A 
ATOM     21  C2  non d ame     -33.031  17.467  27.191  0.00  0.00     0.077 A 
ATOM     22  H1  non d ame     -32.183  15.813  25.931  0.00  0.00     0.091 H 
ATOM     23  O1  non d ame     -33.159  17.556  28.482  0.00  0.00    -0.218 OA
ATOM     24  N1  non d ame     -32.702  16.485  29.089  0.00  0.00    -0.123 NA
BRANCH  21  25
ATOM     25  C3  non d ame     -33.448  18.515  26.168  0.00  0.00    -0.029 C 
ATOM     26  H2  non d ame     -34.535  18.587  26.143  0.00  0.00     0.036 H 
ATOM     27  H3  non d ame     -33.027  19.482  26.446  0.00  0.00     0.036 H 
ATOM     28  H4  non d ame     -33.080  18.229  25.183  0.00  0.00     0.036 H 
ENDBRANCH  21  25
ENDBRANCH  16  19
ENDBRANCH  13  15
BRANCH  13  29
ATOM     29  C8  non d ame     -31.069  11.974  30.937  0.00  0.00    -0.049 C 
ATOM     30  H7  non d ame     -31.355  12.874  31.482  0.00  0.00     0.030 H 
ATOM     31  H8  non d ame     -31.381  11.095  31.500  0.00  0.00     0.030 H 
ATOM     32  H9  non d ame     -29.987  11.957  30.805  0.00  0.00     0.030 H 
ENDBRANCH  13  29
ENDBRANCH  10  13
ENDBRANCH   7   9
BRANCH   7  33
ATOM     33  C11 non d ame     -36.051  10.273  31.509  0.00  0.00    -0.033 C 
ATOM     34  H12 non d ame     -36.899  10.900  31.237  0.00  0.00     0.042 H 
BRANCH  33  35
ATOM     35  C12 non d ame     -36.617   8.899  31.985  0.00  0.00    -0.071 C 
ATOM     36  H13 non d ame     -35.852   8.131  31.869  0.00  0.00     0.028 H 
ATOM     37  H14 non d ame     -36.906   8.968  33.033  0.00  0.00     0.028 H 
ATOM     38  H15 non d ame     -37.487   8.637  31.384  0.00  0.00     0.028 H 
ENDBRANCH  33  35
BRANCH  33  39
ATOM     39  C13 non d ame     -35.267  10.990  32.655  0.00  0.00    -0.071 C 
ATOM     40  H16 non d ame     -35.957  11.594  33.244  0.00  0.00     0.028 H 
ATOM     41  H17 non d ame     -34.798  10.243  33.297  0.00  0.00     0.028 H 
ATOM     42  H18 non d ame     -34.499  11.631  32.224  0.00  0.00     0.028 H 
ENDBRANCH  33  39
ENDBRANCH   7  33
ENDBRANCH   4   7
ENDBRANCH   1   3
BRANCH   1  43
ATOM     43  C15 non d ame     -35.633   9.371  25.351  0.00  0.00     0.240 C 
ATOM     44  O5  non d ame     -36.144   9.345  24.278  0.00  0.00    -0.271 OA
ATOM     45  N6  non d ame     -34.469   8.486  25.639  0.00  0.00    -0.355 N 
ATOM     46  H46 non d ame     -34.023   8.503  26.545  0.00  0.00     0.162 HD
BRANCH  45  47
ATOM     47  C20 non d ame     -33.962   7.576  24.588  0.00  0.00     0.013 C 
ATOM     48  H30 non d ame     -34.472   7.822  23.657  0.00  0.00     0.072 H 
BRANCH  47  49
ATOM     49  C21 non d ame     -34.261   6.147  24.979  0.00  0.00    -0.038 C 
ATOM     50  H31 non d ame     -35.046   6.205  25.733  0.00  0.00     0.036 H 
ATOM     51  H32 non d ame     -34.443   5.618  24.043  0.00  0.00     0.036 H 
BRANCH  49  52
ATOM     52  C22 non d ame     -33.061   5.445  25.651  0.00  0.00     0.018 C 
ATOM     53  H33 non d ame     -33.065   4.425  25.271  0.00  0.00     0.048 H 
ATOM     54  H34 non d ame     -32.202   6.092  25.470  0.00  0.00     0.048 H 
BRANCH  52  55
ATOM     55  C23 non d ame     -33.190   5.327  27.195  0.00  0.00     0.259 C 
ATOM     56  O7  non d ame     -32.661   4.436  27.778  0.00  0.00    -0.265 OA
BRANCH  55  57
ATOM     57  O8  non d ame     -33.958   6.290  27.907  0.00  0.00    -0.317 OA
BRANCH  57  58
ATOM     58  C29 non d ame     -34.508   5.804  29.135  0.00  0.00     0.052 C 
ATOM     59  H47 non d ame     -34.388   4.721  29.104  0.00  0.00     0.082 H 
ATOM     60  H48 non d ame     -34.027   6.383  29.923  0.00  0.00     0.082 H 
BRANCH  58  61
ATOM     61  C35 non d ame     -36.025   6.131  29.142  0.00  0.00    -0.034 A 
ATOM     62  C30 non d ame     -36.593   6.829  28.082  0.00  0.00    -0.075 A 
ATOM     63  C31 non d ame     -37.955   7.123  28.088  0.00  0.00    -0.082 A 
ATOM     64  H49 non d ame     -35.970   7.148  27.245  0.00  0.00     0.084 H 
ATOM     65  C32 non d ame     -38.751   6.717  29.163  0.00  0.00    -0.083 A 
ATOM     66  H50 non d ame     -38.398   7.669  27.255  0.00  0.00     0.083 H 
ATOM     67  C33 non d ame     -38.180   6.022  30.221  0.00  0.00    -0.082 A 
ATOM     68  H51 non d ame     -39.818   6.941  29.176  0.00  0.00     0.083 H 
ATOM     69  C34 non d ame     -36.819   5.725  30.217  0.00  0.00    -0.075 A 
ATOM     70  H52 non d ame     -38.803   5.709  31.058  0.00  0.00     0.083 H 
ATOM     71  H53 non d ame     -36.377   5.178  31.051  0.00  0.00     0.084 H 
ENDBRANCH  58  61
ENDBRANCH  57  58
ENDBRANCH  55  57
ENDBRANCH  52  55
ENDBRANCH  49  52
ENDBRANCH  47  49
BRANCH  47  72
ATOM     72  C24 non d ame     -32.454   7.757  24.432  0.00  0.00    -0.039 C 
ATOM     73  H35 non d ame     -32.078   7.948  25.437  0.00  0.00     0.036 H 
ATOM     74  H36 non d ame     -32.113   6.882  23.880  0.00  0.00     0.036 H 
BRANCH  72  75
ATOM     75  C25 non d ame     -32.100   9.043  23.544  0.00  0.00    -0.001 C 
ATOM     76  C26 non d ame     -31.047   8.628  22.351  0.00  0.00    -0.035 C 
ATOM     77  C27 non d ame     -29.997   9.483  22.379  0.00  0.00     0.085 C 
ATOM     78  H38 non d ame     -30.595   7.661  22.572  0.00  0.00     0.036 H 
ATOM     79  H39 non d ame     -31.497   8.809  21.375  0.00  0.00     0.036 H 
ATOM     80  N5  non d ame     -30.077  10.237  23.684  0.00  0.00    -0.049 N 
ATOM     81  H40 non d ame     -29.108   8.851  22.387  0.00  0.00     0.075 H 
ATOM     82  H41 non d ame     -30.165  10.177  21.557  0.00  0.00     0.075 H 
ATOM     83  C28 non d ame     -31.561   9.972  24.260  0.00  0.00     0.193 C 
ATOM     84  H42 non d ame     -29.409   9.805  24.306  0.00  0.00     0.280 HD
ATOM     85  H43 non d ame     -29.991  11.217  23.453  0.00  0.00     0.280 HD
ATOM     86  H44 non d ame     -32.328  10.745  24.193  0.00  0.00     0.129 H 
ATOM     87  H37 non d ame     -32.991   9.598  23.248  0.00  0.00     0.046 H 
BRANCH  83  88
ATOM     88  O6  non d ame     -31.498   9.618  25.643  0.00  0.00    -0.369 OA
ATOM     89  H45 non d ame     -32.387   9.569  26.002  0.00  0.00     0.212 HD
ENDBRANCH  83  88
ENDBRANCH  72  75
ENDBRANCH  47  72
ENDBRANCH  45  47
ENDBRANCH   1  43
BRANCH   1  90
ATOM     90  C16 non d ame     -36.065  11.772  25.960  0.00  0.00    -0.035 C 
ATOM     91  H21 non d ame     -35.758  11.702  24.917  0.00  0.00     0.037 H 
ATOM     92  H22 non d ame     -37.016  12.239  26.219  0.00  0.00     0.037 H 
BRANCH  90  93
ATOM     93  C17 non d ame     -34.956  12.594  26.692  0.00  0.00    -0.059 C 
ATOM     94  H23 non d ame     -34.815  12.154  27.678  0.00  0.00     0.038 H 
BRANCH  93  95
ATOM     95  C18 non d ame     -33.587  12.534  25.942  0.00  0.00    -0.073 C 
ATOM     96  H24 non d ame     -33.092  13.503  26.011  0.00  0.00     0.028 H 
ATOM     97  H25 non d ame     -32.956  11.772  26.397  0.00  0.00     0.028 H 
ATOM     98  H26 non d ame     -33.757  12.287  24.894  0.00  0.00     0.028 H 
ENDBRANCH  93  95
BRANCH  93  99
ATOM     99  C19 non d ame     -35.400  14.045  26.900  0.00  0.00    -0.073 C 
ATOM    100  H27 non d ame     -36.336  14.062  27.459  0.00  0.00     0.028 H 
ATOM    101  H28 non d ame     -34.634  14.582  27.460  0.00  0.00     0.028 H 
ATOM    102  H29 non d ame     -35.545  14.523  25.932  0.00  0.00     0.028 H 
ENDBRANCH  93  99
ENDBRANCH  90  93
ENDBRANCH   1  90
TORSDOF 26
ENDMDL
MODEL 15
REMARK VINA RESULT:      -6.6      2.932      7.834
REMARK  26 active torsions:
REMARK  status: ('A' for Active; 'I' for Inactive)
REMARK    1  A    between atoms: C2_2  and  C3_3 
REMARK    2  A    between atoms: C4_6  and  C5_7 
REMARK       I    between atoms: C5_7  and  N2_9 
REMARK    3  A    between atoms: N2_9  and  C6_10 
REMARK    4  A    between atoms: C6_10  and  C7_11 
REMARK    5  A    between atoms: C6_10  and  C8_13 
REMARK       I    between atoms: C7_11  and  N3_14 
REMARK    6  A    between atoms: N3_14  and  C9_15 
REMARK    7  A    between atoms: C9_15  and  C10_16 
REMARK    8  A    between atoms: C9_15  and  C11_18 
REMARK       I    between atoms: C10_16  and  N4_21 
REMARK    9  A    between atoms: C11_18  and  C12_19 
REMARK   10  A    between atoms: C11_18  and  C13_20 
REMARK   11  A    between atoms: N4_21  and  C14_22 
REMARK   12  A    between atoms: C14_22  and  C15_23 
REMARK   13  A    between atoms: C14_22  and  C16_25 
REMARK       I    between atoms: C15_23  and  N6_40 
REMARK   14  A    between atoms: C16_25  and  C17_26 
REMARK   15  A    between atoms: C17_26  and  C18_27 
REMARK   16  A    between atoms: C17_26  and  C19_28 
REMARK   17  A    between atoms: C20_29  and  C21_30 
REMARK   18  A    between atoms: C20_29  and  C24_33 
REMARK   19  A    between atoms: C20_29  and  N6_40 
REMARK   20  A    between atoms: C21_30  and  C22_31 
REMARK   21  A    between atoms: C22_31  and  C23_32 
REMARK   22  A    between atoms: C23_32  and  O8_43 
REMARK   23  A    between atoms: C24_33  and  C25_34 
REMARK   24  A    between atoms: C28_38  and  O6_39 
REMARK   25  A    between atoms: C29_42  and  O8_43 
REMARK   26  A    between atoms: C29_42  and  C35_49 
ROOT
ATOM      1  C14 non d ame     -32.513   7.534  26.581  0.00  0.00     0.089 C 
ATOM      2  H20 non d ame     -31.602   7.055  26.942  0.00  0.00     0.087 H 
ENDROOT
BRANCH   1   3
ATOM      3  N4  non d ame     -33.639   6.727  27.027  0.00  0.00    -0.346 N 
ATOM      4  C10 non d ame     -33.404   5.410  27.721  0.00  0.00     0.241 C 
ATOM      5  O4  non d ame     -32.299   5.017  27.907  0.00  0.00    -0.271 OA
ATOM      6  H19 non d ame     -34.571   7.078  26.858  0.00  0.00     0.163 HD
BRANCH   4   7
ATOM      7  C9  non d ame     -34.581   4.590  28.182  0.00  0.00     0.092 C 
ATOM      8  H11 non d ame     -34.257   3.906  28.966  0.00  0.00     0.088 H 
BRANCH   7   9
ATOM      9  N3  non d ame     -35.592   5.475  28.769  0.00  0.00    -0.346 N 
ATOM     10  C7  non d ame     -35.473   5.892  30.145  0.00  0.00     0.240 C 
ATOM     11  O3  non d ame     -34.571   5.524  30.794  0.00  0.00    -0.271 OA
ATOM     12  H10 non d ame     -36.377   5.799  28.222  0.00  0.00     0.163 HD
BRANCH  10  13
ATOM     13  C6  non d ame     -36.554   6.831  30.765  0.00  0.00     0.086 C 
ATOM     14  H6  non d ame     -36.188   7.380  31.632  0.00  0.00     0.086 H 
BRANCH  13  15
ATOM     15  N2  non d ame     -36.940   7.823  29.776  0.00  0.00    -0.343 N 
ATOM     16  C5  non d ame     -37.062   9.228  30.174  0.00  0.00     0.273 C 
ATOM     17  O2  non d ame     -36.851   9.548  31.292  0.00  0.00    -0.266 OA
ATOM     18  H5  non d ame     -37.121   7.541  28.824  0.00  0.00     0.163 HD
BRANCH  16  19
ATOM     19  C4  non d ame     -37.467  10.288  29.138  0.00  0.00     0.154 A 
ATOM     20  C1  non d ame     -36.923  10.470  27.828  0.00  0.00    -0.017 A 
ATOM     21  C2  non d ame     -37.631  11.567  27.288  0.00  0.00     0.077 A 
ATOM     22  H1  non d ame     -36.134   9.894  27.342  0.00  0.00     0.091 H 
ATOM     23  O1  non d ame     -38.481  11.961  28.191  0.00  0.00    -0.218 OA
ATOM     24  N1  non d ame     -38.404  11.230  29.279  0.00  0.00    -0.123 NA
BRANCH  21  25
ATOM     25  C3  non d ame     -37.435  12.175  25.906  0.00  0.00    -0.029 C 
ATOM     26  H2  non d ame     -36.395  12.058  25.601  0.00  0.00     0.036 H 
ATOM     27  H3  non d ame     -38.082  11.666  25.191  0.00  0.00     0.036 H 
ATOM     28  H4  non d ame     -37.688  13.234  25.935  0.00  0.00     0.036 H 
ENDBRANCH  21  25
ENDBRANCH  16  19
ENDBRANCH  13  15
BRANCH  13  29
ATOM     29  C8  non d ame     -37.755   6.017  31.175  0.00  0.00    -0.049 C 
ATOM     30  H7  non d ame     -38.343   6.578  31.901  0.00  0.00     0.030 H 
ATOM     31  H8  non d ame     -38.366   5.804  30.299  0.00  0.00     0.030 H 
ATOM     32  H9  non d ame     -37.423   5.080  31.623  0.00  0.00     0.030 H 
ENDBRANCH  13  29
ENDBRANCH  10  13
ENDBRANCH   7   9
BRANCH   7  33
ATOM     33  C11 non d ame     -35.197   3.838  26.966  0.00  0.00    -0.033 C 
ATOM     34  H12 non d ame     -35.067   4.471  26.088  0.00  0.00     0.042 H 
BRANCH  33  35
ATOM     35  C12 non d ame     -34.451   2.495  26.692  0.00  0.00    -0.071 C 
ATOM     36  H13 non d ame     -33.439   2.706  26.345  0.00  0.00     0.028 H 
ATOM     37  H14 non d ame     -34.406   1.910  27.610  0.00  0.00     0.028 H 
ATOM     38  H15 non d ame     -34.986   1.932  25.927  0.00  0.00     0.028 H 
ENDBRANCH  33  35
BRANCH  33  39
ATOM     39  C13 non d ame     -36.728   3.604  27.171  0.00  0.00    -0.071 C 
ATOM     40  H16 non d ame     -37.033   2.706  26.633  0.00  0.00     0.028 H 
ATOM     41  H17 non d ame     -36.938   3.480  28.234  0.00  0.00     0.028 H 
ATOM     42  H18 non d ame     -37.281   4.463  26.790  0.00  0.00     0.028 H 
ENDBRANCH  33  39
ENDBRANCH   7  33
ENDBRANCH   4   7
ENDBRANCH   1   3
BRANCH   1  43
ATOM     43  C15 non d ame     -32.682   8.975  27.142  0.00  0.00     0.240 C 
ATOM     44  O5  non d ame     -33.020   9.133  28.270  0.00  0.00    -0.271 OA
ATOM     45  N6  non d ame     -32.413  10.157  26.275  0.00  0.00    -0.355 N 
ATOM     46  H46 non d ame     -32.120  10.035  25.317  0.00  0.00     0.162 HD
BRANCH  45  47
ATOM     47  C20 non d ame     -32.576  11.521  26.825  0.00  0.00     0.013 C 
ATOM     48  H30 non d ame     -33.030  11.432  27.812  0.00  0.00     0.072 H 
BRANCH  47  49
ATOM     49  C21 non d ame     -33.477  12.322  25.912  0.00  0.00    -0.038 C 
ATOM     50  H31 non d ame     -32.826  12.730  25.139  0.00  0.00     0.036 H 
ATOM     51  H32 non d ame     -34.293  11.651  25.641  0.00  0.00     0.036 H 
BRANCH  49  52
ATOM     52  C22 non d ame     -34.124  13.532  26.621  0.00  0.00     0.018 C 
ATOM     53  H33 non d ame     -35.181  13.497  26.359  0.00  0.00     0.048 H 
ATOM     54  H34 non d ame     -33.818  13.461  27.665  0.00  0.00     0.048 H 
BRANCH  52  55
ATOM     55  C23 non d ame     -33.603  14.906  26.115  0.00  0.00     0.259 C 
ATOM     56  O7  non d ame     -33.401  15.793  26.879  0.00  0.00    -0.265 OA
BRANCH  55  57
ATOM     57  O8  non d ame     -33.382  15.097  24.723  0.00  0.00    -0.317 OA
BRANCH  57  58
ATOM     58  C29 non d ame     -32.339  16.029  24.421  0.00  0.00     0.052 C 
ATOM     59  H47 non d ame     -32.827  16.868  23.926  0.00  0.00     0.082 H 
ATOM     60  H48 non d ame     -31.803  16.185  25.358  0.00  0.00     0.082 H 
BRANCH  58  61
ATOM     61  C35 non d ame     -31.373  15.356  23.410  0.00  0.00    -0.034 A 
ATOM     62  C30 non d ame     -30.924  14.058  23.633  0.00  0.00    -0.075 A 
ATOM     63  C31 non d ame     -30.056  13.454  22.725  0.00  0.00    -0.082 A 
ATOM     64  H49 non d ame     -31.252  13.515  24.519  0.00  0.00     0.084 H 
ATOM     65  C32 non d ame     -29.635  14.154  21.590  0.00  0.00    -0.083 A 
ATOM     66  H50 non d ame     -29.708  12.436  22.901  0.00  0.00     0.083 H 
ATOM     67  C33 non d ame     -30.083  15.450  21.374  0.00  0.00    -0.082 A 
ATOM     68  H51 non d ame     -28.957  13.689  20.875  0.00  0.00     0.083 H 
ATOM     69  C34 non d ame     -30.952  16.057  22.278  0.00  0.00    -0.075 A 
ATOM     70  H52 non d ame     -29.751  15.994  20.489  0.00  0.00     0.083 H 
ATOM     71  H53 non d ame     -31.300  17.075  22.101  0.00  0.00     0.084 H 
ENDBRANCH  58  61
ENDBRANCH  57  58
ENDBRANCH  55  57
ENDBRANCH  52  55
ENDBRANCH  49  52
ENDBRANCH  47  49
BRANCH  47  72
ATOM     72  C24 non d ame     -31.214  12.204  26.925  0.00  0.00    -0.039 C 
ATOM     73  H35 non d ame     -30.489  11.455  26.606  0.00  0.00     0.036 H 
ATOM     74  H36 non d ame     -31.315  13.136  26.369  0.00  0.00     0.036 H 
BRANCH  72  75
ATOM     75  C25 non d ame     -30.856  12.593  28.438  0.00  0.00    -0.001 C 
ATOM     76  C26 non d ame     -32.129  12.248  29.421  0.00  0.00    -0.035 C 
ATOM     77  C27 non d ame     -32.417  13.344  30.163  0.00  0.00     0.085 C 
ATOM     78  H38 non d ame     -33.030  12.098  28.826  0.00  0.00     0.036 H 
ATOM     79  H39 non d ame     -31.837  11.506  30.164  0.00  0.00     0.036 H 
ATOM     80  N5  non d ame     -31.672  14.503  29.545  0.00  0.00    -0.049 N 
ATOM     81  H40 non d ame     -33.488  13.504  30.042  0.00  0.00     0.075 H 
ATOM     82  H41 non d ame     -32.004  13.143  31.151  0.00  0.00     0.075 H 
ATOM     83  C28 non d ame     -30.585  13.851  28.545  0.00  0.00     0.193 C 
ATOM     84  H42 non d ame     -32.347  15.017  28.997  0.00  0.00     0.280 HD
ATOM     85  H43 non d ame     -31.181  14.961  30.300  0.00  0.00     0.280 HD
ATOM     86  H44 non d ame     -29.533  13.803  28.826  0.00  0.00     0.129 H 
ATOM     87  H37 non d ame     -29.879  12.216  28.741  0.00  0.00     0.046 H 
BRANCH  83  88
ATOM     88  O6  non d ame     -30.614  14.518  27.283  0.00  0.00    -0.369 OA
ATOM     89  H45 non d ame     -30.317  15.425  27.393  0.00  0.00     0.212 HD
ENDBRANCH  83  88
ENDBRANCH  72  75
ENDBRANCH  47  72
ENDBRANCH  45  47
ENDBRANCH   1  43
BRANCH   1  90
ATOM     90  C16 non d ame     -32.504   7.575  25.061  0.00  0.00    -0.035 C 
ATOM     91  H21 non d ame     -33.547   7.474  24.763  0.00  0.00     0.037 H 
ATOM     92  H22 non d ame     -31.948   8.476  24.800  0.00  0.00     0.037 H 
BRANCH  90  93
ATOM     93  C17 non d ame     -31.742   6.380  24.406  0.00  0.00    -0.059 C 
ATOM     94  H23 non d ame     -31.048   5.984  25.147  0.00  0.00     0.038 H 
BRANCH  93  95
ATOM     95  C18 non d ame     -32.706   5.223  23.989  0.00  0.00    -0.073 C 
ATOM     96  H24 non d ame     -33.298   5.535  23.129  0.00  0.00     0.028 H 
ATOM     97  H25 non d ame     -32.123   4.341  23.727  0.00  0.00     0.028 H 
ATOM     98  H26 non d ame     -33.370   4.987  24.820  0.00  0.00     0.028 H 
ENDBRANCH  93  95
BRANCH  93  99
ATOM     99  C19 non d ame     -30.909   6.852  23.211  0.00  0.00    -0.073 C 
ATOM    100  H27 non d ame     -30.223   7.636  23.533  0.00  0.00     0.028 H 
ATOM    101  H28 non d ame     -30.339   6.013  22.811  0.00  0.00     0.028 H 
ATOM    102  H29 non d ame     -31.571   7.242  22.438  0.00  0.00     0.028 H 
ENDBRANCH  93  99
ENDBRANCH  90  93
ENDBRANCH   1  90
TORSDOF 26
ENDMDL
MODEL 16
REMARK VINA RESULT:      -6.6      2.167      5.730
REMARK  26 active torsions:
REMARK  status: ('A' for Active; 'I' for Inactive)
REMARK    1  A    between atoms: C2_2  and  C3_3 
REMARK    2  A    between atoms: C4_6  and  C5_7 
REMARK       I    between atoms: C5_7  and  N2_9 
REMARK    3  A    between atoms: N2_9  and  C6_10 
REMARK    4  A    between atoms: C6_10  and  C7_11 
REMARK    5  A    between atoms: C6_10  and  C8_13 
REMARK       I    between atoms: C7_11  and  N3_14 
REMARK    6  A    between atoms: N3_14  and  C9_15 
REMARK    7  A    between atoms: C9_15  and  C10_16 
REMARK    8  A    between atoms: C9_15  and  C11_18 
REMARK       I    between atoms: C10_16  and  N4_21 
REMARK    9  A    between atoms: C11_18  and  C12_19 
REMARK   10  A    between atoms: C11_18  and  C13_20 
REMARK   11  A    between atoms: N4_21  and  C14_22 
REMARK   12  A    between atoms: C14_22  and  C15_23 
REMARK   13  A    between atoms: C14_22  and  C16_25 
REMARK       I    between atoms: C15_23  and  N6_40 
REMARK   14  A    between atoms: C16_25  and  C17_26 
REMARK   15  A    between atoms: C17_26  and  C18_27 
REMARK   16  A    between atoms: C17_26  and  C19_28 
REMARK   17  A    between atoms: C20_29  and  C21_30 
REMARK   18  A    between atoms: C20_29  and  C24_33 
REMARK   19  A    between atoms: C20_29  and  N6_40 
REMARK   20  A    between atoms: C21_30  and  C22_31 
REMARK   21  A    between atoms: C22_31  and  C23_32 
REMARK   22  A    between atoms: C23_32  and  O8_43 
REMARK   23  A    between atoms: C24_33  and  C25_34 
REMARK   24  A    between atoms: C28_38  and  O6_39 
REMARK   25  A    between atoms: C29_42  and  O8_43 
REMARK   26  A    between atoms: C29_42  and  C35_49 
ROOT
ATOM      1  C14 non d ame     -33.622  10.390  28.493  0.00  0.00     0.089 C 
ATOM      2  H20 non d ame     -34.648  10.732  28.354  0.00  0.00     0.087 H 
ENDROOT
BRANCH   1   3
ATOM      3  N4  non d ame     -33.530   9.045  27.945  0.00  0.00    -0.346 N 
ATOM      4  C10 non d ame     -34.780   8.245  27.676  0.00  0.00     0.241 C 
ATOM      5  O4  non d ame     -35.848   8.704  27.913  0.00  0.00    -0.271 OA
ATOM      6  H19 non d ame     -32.611   8.672  27.753  0.00  0.00     0.163 HD
BRANCH   4   7
ATOM      7  C9  non d ame     -34.666   6.857  27.104  0.00  0.00     0.092 C 
ATOM      8  H11 non d ame     -35.633   6.359  27.177  0.00  0.00     0.088 H 
BRANCH   7   9
ATOM      9  N3  non d ame     -34.329   6.941  25.680  0.00  0.00    -0.346 N 
ATOM     10  C7  non d ame     -35.331   6.652  24.683  0.00  0.00     0.240 C 
ATOM     11  O3  non d ame     -36.413   6.349  25.010  0.00  0.00    -0.271 OA
ATOM     12  H10 non d ame     -33.399   7.200  25.383  0.00  0.00     0.163 HD
BRANCH  10  13
ATOM     13  C6  non d ame     -34.964   6.741  23.169  0.00  0.00     0.086 C 
ATOM     14  H6  non d ame     -35.463   7.567  22.662  0.00  0.00     0.086 H 
BRANCH  13  15
ATOM     15  N2  non d ame     -33.536   6.977  23.043  0.00  0.00    -0.343 N 
ATOM     16  C5  non d ame     -33.052   8.324  22.731  0.00  0.00     0.273 C 
ATOM     17  O2  non d ame     -33.821   9.209  22.580  0.00  0.00    -0.266 OA
ATOM     18  H5  non d ame     -32.886   6.214  23.170  0.00  0.00     0.163 HD
BRANCH  16  19
ATOM     19  C4  non d ame     -31.545   8.589  22.596  0.00  0.00     0.154 A 
ATOM     20  C1  non d ame     -30.499   7.615  22.527  0.00  0.00    -0.017 A 
ATOM     21  C2  non d ame     -29.309   8.367  22.408  0.00  0.00     0.077 A 
ATOM     22  H1  non d ame     -30.589   6.529  22.558  0.00  0.00     0.091 H 
ATOM     23  O1  non d ame     -29.644   9.624  22.408  0.00  0.00    -0.218 OA
ATOM     24  N1  non d ame     -30.943   9.779  22.517  0.00  0.00    -0.123 NA
BRANCH  21  25
ATOM     25  C3  non d ame     -27.896   7.809  22.299  0.00  0.00    -0.029 C 
ATOM     26  H2  non d ame     -27.822   7.178  21.414  0.00  0.00     0.036 H 
ATOM     27  H3  non d ame     -27.186   8.632  22.219  0.00  0.00     0.036 H 
ATOM     28  H4  non d ame     -27.669   7.218  23.186  0.00  0.00     0.036 H 
ENDBRANCH  21  25
ENDBRANCH  16  19
ENDBRANCH  13  15
BRANCH  13  29
ATOM     29  C8  non d ame     -35.337   5.451  22.483  0.00  0.00    -0.049 C 
ATOM     30  H7  non d ame     -35.754   5.670  21.500  0.00  0.00     0.030 H 
ATOM     31  H8  non d ame     -34.449   4.830  22.370  0.00  0.00     0.030 H 
ATOM     32  H9  non d ame     -36.078   4.922  23.082  0.00  0.00     0.030 H 
ENDBRANCH  13  29
ENDBRANCH  10  13
ENDBRANCH   7   9
BRANCH   7  33
ATOM     33  C11 non d ame     -33.548   6.076  27.854  0.00  0.00    -0.033 C 
ATOM     34  H12 non d ame     -33.211   6.699  28.682  0.00  0.00     0.042 H 
BRANCH  33  35
ATOM     35  C12 non d ame     -34.092   4.745  28.459  0.00  0.00    -0.071 C 
ATOM     36  H13 non d ame     -35.176   4.804  28.552  0.00  0.00     0.028 H 
ATOM     37  H14 non d ame     -33.828   3.914  27.806  0.00  0.00     0.028 H 
ATOM     38  H15 non d ame     -33.652   4.587  29.444  0.00  0.00     0.028 H 
ENDBRANCH  33  35
BRANCH  33  39
ATOM     39  C13 non d ame     -32.324   5.814  26.918  0.00  0.00    -0.071 C 
ATOM     40  H16 non d ame     -31.646   5.107  27.396  0.00  0.00     0.028 H 
ATOM     41  H17 non d ame     -32.673   5.400  25.971  0.00  0.00     0.028 H 
ATOM     42  H18 non d ame     -31.801   6.752  26.732  0.00  0.00     0.028 H 
ENDBRANCH  33  39
ENDBRANCH   7  33
ENDBRANCH   4   7
ENDBRANCH   1   3
BRANCH   1  43
ATOM     43  C15 non d ame     -32.596  11.297  27.754  0.00  0.00     0.240 C 
ATOM     44  O5  non d ame     -31.587  10.829  27.334  0.00  0.00    -0.271 OA
ATOM     45  N6  non d ame     -32.875  12.749  27.562  0.00  0.00    -0.355 N 
ATOM     46  H46 non d ame     -33.731  13.157  27.909  0.00  0.00     0.162 HD
BRANCH  45  47
ATOM     47  C20 non d ame     -31.891  13.597  26.856  0.00  0.00     0.013 C 
ATOM     48  H30 non d ame     -31.309  12.956  26.194  0.00  0.00     0.072 H 
BRANCH  47  49
ATOM     49  C21 non d ame     -30.981  14.255  27.869  0.00  0.00    -0.038 C 
ATOM     50  H31 non d ame     -30.184  13.535  28.061  0.00  0.00     0.036 H 
ATOM     51  H32 non d ame     -30.742  15.235  27.457  0.00  0.00     0.036 H 
BRANCH  49  52
ATOM     52  C22 non d ame     -31.676  14.507  29.224  0.00  0.00     0.018 C 
ATOM     53  H33 non d ame     -32.641  14.006  29.159  0.00  0.00     0.048 H 
ATOM     54  H34 non d ame     -30.956  14.207  29.986  0.00  0.00     0.048 H 
BRANCH  52  55
ATOM     55  C23 non d ame     -31.990  16.005  29.498  0.00  0.00     0.259 C 
ATOM     56  O7  non d ame     -31.376  16.610  30.315  0.00  0.00    -0.265 OA
BRANCH  55  57
ATOM     57  O8  non d ame     -33.030  16.644  28.767  0.00  0.00    -0.317 OA
BRANCH  57  58
ATOM     58  C29 non d ame     -32.682  17.940  28.272  0.00  0.00     0.052 C 
ATOM     59  H47 non d ame     -32.552  18.567  29.153  0.00  0.00     0.082 H 
ATOM     60  H48 non d ame     -31.848  17.780  27.588  0.00  0.00     0.082 H 
BRANCH  58  61
ATOM     61  C35 non d ame     -33.887  18.480  27.457  0.00  0.00    -0.034 A 
ATOM     62  C30 non d ame     -34.534  17.657  26.540  0.00  0.00    -0.075 A 
ATOM     63  C31 non d ame     -35.616  18.143  25.808  0.00  0.00    -0.082 A 
ATOM     64  H49 non d ame     -34.192  16.632  26.395  0.00  0.00     0.084 H 
ATOM     65  C32 non d ame     -36.051  19.458  25.994  0.00  0.00    -0.083 A 
ATOM     66  H50 non d ame     -36.122  17.495  25.091  0.00  0.00     0.083 H 
ATOM     67  C33 non d ame     -35.400  20.276  26.908  0.00  0.00    -0.082 A 
ATOM     68  H51 non d ame     -36.897  19.845  25.426  0.00  0.00     0.083 H 
ATOM     69  C34 non d ame     -34.319  19.795  27.643  0.00  0.00    -0.075 A 
ATOM     70  H52 non d ame     -35.740  21.303  27.049  0.00  0.00     0.083 H 
ATOM     71  H53 non d ame     -33.814  20.443  28.359  0.00  0.00     0.084 H 
ENDBRANCH  58  61
ENDBRANCH  57  58
ENDBRANCH  55  57
ENDBRANCH  52  55
ENDBRANCH  49  52
ENDBRANCH  47  49
BRANCH  47  72
ATOM     72  C24 non d ame     -32.618  14.672  26.051  0.00  0.00    -0.039 C 
ATOM     73  H35 non d ame     -33.668  14.377  26.055  0.00  0.00     0.036 H 
ATOM     74  H36 non d ame     -32.317  15.621  26.495  0.00  0.00     0.036 H 
BRANCH  72  75
ATOM     75  C25 non d ame     -32.139  14.693  24.522  0.00  0.00    -0.001 C 
ATOM     76  C26 non d ame     -31.167  13.401  24.222  0.00  0.00    -0.035 C 
ATOM     77  C27 non d ame     -30.025  13.840  23.640  0.00  0.00     0.085 C 
ATOM     78  H38 non d ame     -30.824  12.966  25.160  0.00  0.00     0.036 H 
ATOM     79  H39 non d ame     -31.615  12.765  23.458  0.00  0.00     0.036 H 
ATOM     80  N5  non d ame     -29.990  15.339  23.813  0.00  0.00    -0.049 N 
ATOM     81  H40 non d ame     -29.215  13.396  24.218  0.00  0.00     0.075 H 
ATOM     82  H41 non d ame     -30.131  13.607  22.581  0.00  0.00     0.075 H 
ATOM     83  C28 non d ame     -31.482  15.771  24.253  0.00  0.00     0.193 C 
ATOM     84  H42 non d ame     -29.362  15.524  24.583  0.00  0.00     0.280 HD
ATOM     85  H43 non d ame     -29.798  15.727  22.901  0.00  0.00     0.280 HD
ATOM     86  H44 non d ame     -32.156  16.240  23.536  0.00  0.00     0.129 H 
ATOM     87  H37 non d ame     -32.967  14.861  23.833  0.00  0.00     0.046 H 
BRANCH  83  88
ATOM     88  O6  non d ame     -31.429  16.663  25.368  0.00  0.00    -0.369 OA
ATOM     89  H45 non d ame     -30.678  17.253  25.270  0.00  0.00     0.212 HD
ENDBRANCH  83  88
ENDBRANCH  72  75
ENDBRANCH  47  72
ENDBRANCH  45  47
ENDBRANCH   1  43
BRANCH   1  90
ATOM     90  C16 non d ame     -33.289  10.345  29.975  0.00  0.00    -0.035 C 
ATOM     91  H21 non d ame     -32.668   9.460  30.105  0.00  0.00     0.037 H 
ATOM     92  H22 non d ame     -32.889  11.331  30.211  0.00  0.00     0.037 H 
BRANCH  90  93
ATOM     93  C17 non d ame     -34.539  10.146  30.892  0.00  0.00    -0.059 C 
ATOM     94  H23 non d ame     -35.420  10.420  30.313  0.00  0.00     0.038 H 
BRANCH  93  95
ATOM     95  C18 non d ame     -34.707   8.659  31.342  0.00  0.00    -0.073 C 
ATOM     96  H24 non d ame     -35.720   8.325  31.121  0.00  0.00     0.028 H 
ATOM     97  H25 non d ame     -33.994   8.034  30.806  0.00  0.00     0.028 H 
ATOM     98  H26 non d ame     -34.525   8.582  32.414  0.00  0.00     0.028 H 
ENDBRANCH  93  95
BRANCH  93  99
ATOM     99  C19 non d ame     -34.482  11.079  32.104  0.00  0.00    -0.073 C 
ATOM    100  H27 non d ame     -35.059  11.981  31.895  0.00  0.00     0.028 H 
ATOM    101  H28 non d ame     -34.902  10.573  32.973  0.00  0.00     0.028 H 
ATOM    102  H29 non d ame     -33.446  11.349  32.307  0.00  0.00     0.028 H 
ENDBRANCH  93  99
ENDBRANCH  90  93
ENDBRANCH   1  90
TORSDOF 26
ENDMDL
MODEL 17
REMARK VINA RESULT:      -6.6      2.459      7.153
REMARK  26 active torsions:
REMARK  status: ('A' for Active; 'I' for Inactive)
REMARK    1  A    between atoms: C2_2  and  C3_3 
REMARK    2  A    between atoms: C4_6  and  C5_7 
REMARK       I    between atoms: C5_7  and  N2_9 
REMARK    3  A    between atoms: N2_9  and  C6_10 
REMARK    4  A    between atoms: C6_10  and  C7_11 
REMARK    5  A    between atoms: C6_10  and  C8_13 
REMARK       I    between atoms: C7_11  and  N3_14 
REMARK    6  A    between atoms: N3_14  and  C9_15 
REMARK    7  A    between atoms: C9_15  and  C10_16 
REMARK    8  A    between atoms: C9_15  and  C11_18 
REMARK       I    between atoms: C10_16  and  N4_21 
REMARK    9  A    between atoms: C11_18  and  C12_19 
REMARK   10  A    between atoms: C11_18  and  C13_20 
REMARK   11  A    between atoms: N4_21  and  C14_22 
REMARK   12  A    between atoms: C14_22  and  C15_23 
REMARK   13  A    between atoms: C14_22  and  C16_25 
REMARK       I    between atoms: C15_23  and  N6_40 
REMARK   14  A    between atoms: C16_25  and  C17_26 
REMARK   15  A    between atoms: C17_26  and  C18_27 
REMARK   16  A    between atoms: C17_26  and  C19_28 
REMARK   17  A    between atoms: C20_29  and  C21_30 
REMARK   18  A    between atoms: C20_29  and  C24_33 
REMARK   19  A    between atoms: C20_29  and  N6_40 
REMARK   20  A    between atoms: C21_30  and  C22_31 
REMARK   21  A    between atoms: C22_31  and  C23_32 
REMARK   22  A    between atoms: C23_32  and  O8_43 
REMARK   23  A    between atoms: C24_33  and  C25_34 
REMARK   24  A    between atoms: C28_38  and  O6_39 
REMARK   25  A    between atoms: C29_42  and  O8_43 
REMARK   26  A    between atoms: C29_42  and  C35_49 
ROOT
ATOM      1  C14 non d ame     -36.190  10.531  25.966  0.00  0.00     0.089 C 
ATOM      2  H20 non d ame     -37.246  10.456  26.230  0.00  0.00     0.087 H 
ENDROOT
BRANCH   1   3
ATOM      3  N4  non d ame     -35.421  10.383  27.193  0.00  0.00    -0.346 N 
ATOM      4  C10 non d ame     -36.105   9.992  28.479  0.00  0.00     0.241 C 
ATOM      5  O4  non d ame     -37.277   9.805  28.502  0.00  0.00    -0.271 OA
ATOM      6  H19 non d ame     -34.426  10.550  27.152  0.00  0.00     0.163 HD
BRANCH   4   7
ATOM      7  C9  non d ame     -35.293   9.839  29.738  0.00  0.00     0.092 C 
ATOM      8  H11 non d ame     -34.639   8.972  29.639  0.00  0.00     0.088 H 
BRANCH   7   9
ATOM      9  N3  non d ame     -34.433  11.013  29.911  0.00  0.00    -0.346 N 
ATOM     10  C7  non d ame     -33.102  11.020  29.356  0.00  0.00     0.240 C 
ATOM     11  O3  non d ame     -32.706  10.088  28.768  0.00  0.00    -0.271 OA
ATOM     12  H10 non d ame     -34.759  11.824  30.417  0.00  0.00     0.163 HD
BRANCH  10  13
ATOM     13  C6  non d ame     -32.190  12.271  29.546  0.00  0.00     0.086 C 
ATOM     14  H6  non d ame     -31.357  12.297  28.844  0.00  0.00     0.086 H 
BRANCH  13  15
ATOM     15  N2  non d ame     -32.977  13.469  29.303  0.00  0.00    -0.343 N 
ATOM     16  C5  non d ame     -32.330  14.654  28.735  0.00  0.00     0.273 C 
ATOM     17  O2  non d ame     -31.175  14.635  28.481  0.00  0.00    -0.266 OA
ATOM     18  H5  non d ame     -33.962  13.478  29.526  0.00  0.00     0.163 HD
BRANCH  16  19
ATOM     19  C4  non d ame     -33.149  15.927  28.471  0.00  0.00     0.154 A 
ATOM     20  C1  non d ame     -34.502  16.004  28.011  0.00  0.00    -0.017 A 
ATOM     21  C2  non d ame     -34.781  17.387  27.933  0.00  0.00     0.077 A 
ATOM     22  H1  non d ame     -35.178  15.183  27.770  0.00  0.00     0.091 H 
ATOM     23  O1  non d ame     -33.709  18.020  28.308  0.00  0.00    -0.218 OA
ATOM     24  N1  non d ame     -32.743  17.190  28.626  0.00  0.00    -0.123 NA
BRANCH  21  25
ATOM     25  C3  non d ame     -36.096  18.017  27.492  0.00  0.00    -0.029 C 
ATOM     26  H2  non d ame     -36.477  18.657  28.288  0.00  0.00     0.036 H 
ATOM     27  H3  non d ame     -35.929  18.614  26.596  0.00  0.00     0.036 H 
ATOM     28  H4  non d ame     -36.821  17.233  27.278  0.00  0.00     0.036 H 
ENDBRANCH  21  25
ENDBRANCH  16  19
ENDBRANCH  13  15
BRANCH  13  29
ATOM     29  C8  non d ame     -31.643  12.289  30.951  0.00  0.00    -0.049 C 
ATOM     30  H7  non d ame     -30.571  12.092  30.926  0.00  0.00     0.030 H 
ATOM     31  H8  non d ame     -31.823  13.267  31.398  0.00  0.00     0.030 H 
ATOM     32  H9  non d ame     -32.140  11.521  31.544  0.00  0.00     0.030 H 
ENDBRANCH  13  29
ENDBRANCH  10  13
ENDBRANCH   7   9
BRANCH   7  33
ATOM     33  C11 non d ame     -36.249   9.714  30.960  0.00  0.00    -0.033 C 
ATOM     34  H12 non d ame     -37.224  10.093  30.654  0.00  0.00     0.042 H 
BRANCH  33  35
ATOM     35  C12 non d ame     -36.437   8.224  31.385  0.00  0.00    -0.071 C 
ATOM     36  H13 non d ame     -36.667   7.622  30.506  0.00  0.00     0.028 H 
ATOM     37  H14 non d ame     -35.520   7.859  31.845  0.00  0.00     0.028 H 
ATOM     38  H15 non d ame     -37.257   8.151  32.099  0.00  0.00     0.028 H 
ENDBRANCH  33  35
BRANCH  33  39
ATOM     39  C13 non d ame     -35.744  10.585  32.155  0.00  0.00    -0.071 C 
ATOM     40  H16 non d ame     -36.416  10.460  33.005  0.00  0.00     0.028 H 
ATOM     41  H17 non d ame     -34.739  10.268  32.437  0.00  0.00     0.028 H 
ATOM     42  H18 non d ame     -35.724  11.633  31.858  0.00  0.00     0.028 H 
ENDBRANCH  33  39
ENDBRANCH   7  33
ENDBRANCH   4   7
ENDBRANCH   1   3
BRANCH   1  43
ATOM     43  C15 non d ame     -35.753   9.419  24.971  0.00  0.00     0.240 C 
ATOM     44  O5  non d ame     -36.566   8.685  24.509  0.00  0.00    -0.271 OA
ATOM     45  N6  non d ame     -34.320   9.274  24.585  0.00  0.00    -0.355 N 
ATOM     46  H46 non d ame     -33.621   9.894  24.967  0.00  0.00     0.162 HD
BRANCH  45  47
ATOM     47  C20 non d ame     -33.921   8.212  23.636  0.00  0.00     0.013 C 
ATOM     48  H30 non d ame     -34.826   7.811  23.181  0.00  0.00     0.072 H 
BRANCH  47  49
ATOM     49  C21 non d ame     -33.192   7.120  24.386  0.00  0.00    -0.038 C 
ATOM     50  H31 non d ame     -32.697   6.519  23.623  0.00  0.00     0.036 H 
ATOM     51  H32 non d ame     -32.600   7.630  25.146  0.00  0.00     0.036 H 
BRANCH  49  52
ATOM     52  C22 non d ame     -34.147   6.170  25.140  0.00  0.00     0.018 C 
ATOM     53  H33 non d ame     -35.143   6.385  24.754  0.00  0.00     0.048 H 
ATOM     54  H34 non d ame     -33.722   5.173  25.026  0.00  0.00     0.048 H 
BRANCH  52  55
ATOM     55  C23 non d ame     -34.215   6.435  26.670  0.00  0.00     0.259 C 
ATOM     56  O7  non d ame     -33.933   7.502  27.110  0.00  0.00    -0.265 OA
BRANCH  55  57
ATOM     57  O8  non d ame     -34.607   5.383  27.542  0.00  0.00    -0.317 OA
BRANCH  57  58
ATOM     58  C29 non d ame     -34.989   5.822  28.849  0.00  0.00     0.052 C 
ATOM     59  H47 non d ame     -34.685   6.867  28.910  0.00  0.00     0.082 H 
ATOM     60  H48 non d ame     -36.040   5.553  28.955  0.00  0.00     0.082 H 
BRANCH  58  61
ATOM     61  C35 non d ame     -34.168   5.010  29.886  0.00  0.00    -0.034 A 
ATOM     62  C30 non d ame     -33.080   4.248  29.471  0.00  0.00    -0.075 A 
ATOM     63  C31 non d ame     -32.342   3.519  30.402  0.00  0.00    -0.082 A 
ATOM     64  H49 non d ame     -32.806   4.223  28.416  0.00  0.00     0.084 H 
ATOM     65  C32 non d ame     -32.698   3.551  31.753  0.00  0.00    -0.083 A 
ATOM     66  H50 non d ame     -31.489   2.924  30.074  0.00  0.00     0.083 H 
ATOM     67  C33 non d ame     -33.786   4.309  32.162  0.00  0.00    -0.082 A 
ATOM     68  H51 non d ame     -32.126   2.984  32.488  0.00  0.00     0.083 H 
ATOM     69  C34 non d ame     -34.525   5.042  31.235  0.00  0.00    -0.075 A 
ATOM     70  H52 non d ame     -34.062   4.330  33.217  0.00  0.00     0.083 H 
ATOM     71  H53 non d ame     -35.377   5.636  31.565  0.00  0.00     0.084 H 
ENDBRANCH  58  61
ENDBRANCH  57  58
ENDBRANCH  55  57
ENDBRANCH  52  55
ENDBRANCH  49  52
ENDBRANCH  47  49
BRANCH  47  72
ATOM     72  C24 non d ame     -33.002   8.796  22.565  0.00  0.00    -0.039 C 
ATOM     73  H35 non d ame     -33.026   8.082  21.741  0.00  0.00     0.036 H 
ATOM     74  H36 non d ame     -33.350   9.818  22.410  0.00  0.00     0.036 H 
BRANCH  72  75
ATOM     75  C25 non d ame     -31.484   8.885  23.069  0.00  0.00    -0.001 C 
ATOM     76  C26 non d ame     -31.068  10.455  23.321  0.00  0.00    -0.035 C 
ATOM     77  C27 non d ame     -29.912  10.712  22.664  0.00  0.00     0.085 C 
ATOM     78  H38 non d ame     -31.788  11.115  22.838  0.00  0.00     0.036 H 
ATOM     79  H39 non d ame     -30.805  10.609  24.368  0.00  0.00     0.036 H 
ATOM     80  N5  non d ame     -29.675   9.556  21.722  0.00  0.00    -0.049 N 
ATOM     81  H40 non d ame     -30.103  11.613  22.080  0.00  0.00     0.075 H 
ATOM     82  H41 non d ame     -29.136  10.712  23.428  0.00  0.00     0.075 H 
ATOM     83  C28 non d ame     -30.673   8.381  22.200  0.00  0.00     0.193 C 
ATOM     84  H42 non d ame     -29.963   9.869  20.806  0.00  0.00     0.280 HD
ATOM     85  H43 non d ame     -28.724   9.253  21.876  0.00  0.00     0.280 HD
ATOM     86  H44 non d ame     -30.293   7.524  22.757  0.00  0.00     0.129 H 
ATOM     87  H37 non d ame     -31.276   8.181  23.875  0.00  0.00     0.046 H 
BRANCH  83  88
ATOM     88  O6  non d ame     -31.361   7.830  21.076  0.00  0.00    -0.369 OA
ATOM     89  H45 non d ame     -31.617   8.538  20.479  0.00  0.00     0.212 HD
ENDBRANCH  83  88
ENDBRANCH  72  75
ENDBRANCH  47  72
ENDBRANCH  45  47
ENDBRANCH   1  43
BRANCH   1  90
ATOM     90  C16 non d ame     -35.906  11.897  25.364  0.00  0.00    -0.035 C 
ATOM     91  H21 non d ame     -34.840  12.063  25.514  0.00  0.00     0.037 H 
ATOM     92  H22 non d ame     -36.315  11.858  24.354  0.00  0.00     0.037 H 
BRANCH  90  93
ATOM     93  C17 non d ame     -36.640  13.068  26.092  0.00  0.00    -0.059 C 
ATOM     94  H23 non d ame     -36.116  13.255  27.029  0.00  0.00     0.038 H 
BRANCH  93  95
ATOM     95  C18 non d ame     -36.612  14.390  25.259  0.00  0.00    -0.073 C 
ATOM     96  H24 non d ame     -36.788  14.161  24.208  0.00  0.00     0.028 H 
ATOM     97  H25 non d ame     -37.390  15.063  25.619  0.00  0.00     0.028 H 
ATOM     98  H26 non d ame     -35.639  14.868  25.369  0.00  0.00     0.028 H 
ENDBRANCH  93  95
BRANCH  93  99
ATOM     99  C19 non d ame     -38.077  12.677  26.445  0.00  0.00    -0.073 C 
ATOM    100  H27 non d ame     -38.347  11.765  25.912  0.00  0.00     0.028 H 
ATOM    101  H28 non d ame     -38.155  12.507  27.519  0.00  0.00     0.028 H 
ATOM    102  H29 non d ame     -38.754  13.481  26.156  0.00  0.00     0.028 H 
ENDBRANCH  93  99
ENDBRANCH  90  93
ENDBRANCH   1  90
TORSDOF 26
ENDMDL
MODEL 18
REMARK VINA RESULT:      -6.5      2.686      7.575
REMARK  26 active torsions:
REMARK  status: ('A' for Active; 'I' for Inactive)
REMARK    1  A    between atoms: C2_2  and  C3_3 
REMARK    2  A    between atoms: C4_6  and  C5_7 
REMARK       I    between atoms: C5_7  and  N2_9 
REMARK    3  A    between atoms: N2_9  and  C6_10 
REMARK    4  A    between atoms: C6_10  and  C7_11 
REMARK    5  A    between atoms: C6_10  and  C8_13 
REMARK       I    between atoms: C7_11  and  N3_14 
REMARK    6  A    between atoms: N3_14  and  C9_15 
REMARK    7  A    between atoms: C9_15  and  C10_16 
REMARK    8  A    between atoms: C9_15  and  C11_18 
REMARK       I    between atoms: C10_16  and  N4_21 
REMARK    9  A    between atoms: C11_18  and  C12_19 
REMARK   10  A    between atoms: C11_18  and  C13_20 
REMARK   11  A    between atoms: N4_21  and  C14_22 
REMARK   12  A    between atoms: C14_22  and  C15_23 
REMARK   13  A    between atoms: C14_22  and  C16_25 
REMARK       I    between atoms: C15_23  and  N6_40 
REMARK   14  A    between atoms: C16_25  and  C17_26 
REMARK   15  A    between atoms: C17_26  and  C18_27 
REMARK   16  A    between atoms: C17_26  and  C19_28 
REMARK   17  A    between atoms: C20_29  and  C21_30 
REMARK   18  A    between atoms: C20_29  and  C24_33 
REMARK   19  A    between atoms: C20_29  and  N6_40 
REMARK   20  A    between atoms: C21_30  and  C22_31 
REMARK   21  A    between atoms: C22_31  and  C23_32 
REMARK   22  A    between atoms: C23_32  and  O8_43 
REMARK   23  A    between atoms: C24_33  and  C25_34 
REMARK   24  A    between atoms: C28_38  and  O6_39 
REMARK   25  A    between atoms: C29_42  and  O8_43 
REMARK   26  A    between atoms: C29_42  and  C35_49 
ROOT
ATOM      1  C14 non d ame     -32.351   8.892  25.088  0.00  0.00     0.089 C 
ATOM      2  H20 non d ame     -31.312   8.562  25.058  0.00  0.00     0.087 H 
ENDROOT
BRANCH   1   3
ATOM      3  N4  non d ame     -33.188   7.703  25.129  0.00  0.00    -0.346 N 
ATOM      4  C10 non d ame     -32.570   6.332  25.016  0.00  0.00     0.241 C 
ATOM      5  O4  non d ame     -31.396   6.212  24.889  0.00  0.00    -0.271 OA
ATOM      6  H19 non d ame     -34.185   7.827  25.235  0.00  0.00     0.163 HD
BRANCH   4   7
ATOM      7  C9  non d ame     -33.451   5.111  25.066  0.00  0.00     0.092 C 
ATOM      8  H11 non d ame     -32.863   4.259  25.407  0.00  0.00     0.088 H 
BRANCH   7   9
ATOM      9  N3  non d ame     -34.521   5.320  26.045  0.00  0.00    -0.346 N 
ATOM     10  C7  non d ame     -34.414   4.745  27.364  0.00  0.00     0.240 C 
ATOM     11  O3  non d ame     -33.474   4.109  27.652  0.00  0.00    -0.271 OA
ATOM     12  H10 non d ame     -35.339   5.865  25.811  0.00  0.00     0.163 HD
BRANCH  10  13
ATOM     13  C6  non d ame     -35.558   4.968  28.401  0.00  0.00     0.086 C 
ATOM     14  H6  non d ame     -35.538   4.241  29.213  0.00  0.00     0.086 H 
BRANCH  13  15
ATOM     15  N2  non d ame     -35.392   6.277  29.011  0.00  0.00    -0.343 N 
ATOM     16  C5  non d ame     -35.023   6.373  30.425  0.00  0.00     0.273 C 
ATOM     17  O2  non d ame     -34.866   5.391  31.064  0.00  0.00    -0.266 OA
ATOM     18  H5  non d ame     -35.531   7.111  28.458  0.00  0.00     0.163 HD
BRANCH  16  19
ATOM     19  C4  non d ame     -34.843   7.750  31.082  0.00  0.00     0.154 A 
ATOM     20  C1  non d ame     -34.385   8.953  30.457  0.00  0.00    -0.017 A 
ATOM     21  C2  non d ame     -34.400   9.924  31.483  0.00  0.00     0.077 A 
ATOM     22  H1  non d ame     -34.088   9.099  29.418  0.00  0.00     0.091 H 
ATOM     23  O1  non d ame     -34.820   9.338  32.565  0.00  0.00    -0.218 OA
ATOM     24  N1  non d ame     -35.085   8.069  32.357  0.00  0.00    -0.123 NA
BRANCH  21  25
ATOM     25  C3  non d ame     -33.999  11.387  31.346  0.00  0.00    -0.029 C 
ATOM     26  H2  non d ame     -33.170  11.602  32.020  0.00  0.00     0.036 H 
ATOM     27  H3  non d ame     -33.692  11.584  30.319  0.00  0.00     0.036 H 
ATOM     28  H4  non d ame     -34.847  12.022  31.599  0.00  0.00     0.036 H 
ENDBRANCH  21  25
ENDBRANCH  16  19
ENDBRANCH  13  15
BRANCH  13  29
ATOM     29  C8  non d ame     -36.893   4.887  27.706  0.00  0.00    -0.049 C 
ATOM     30  H7  non d ame     -36.758   4.473  26.707  0.00  0.00     0.030 H 
ATOM     31  H8  non d ame     -37.562   4.245  28.278  0.00  0.00     0.030 H 
ATOM     32  H9  non d ame     -37.324   5.886  27.630  0.00  0.00     0.030 H 
ENDBRANCH  13  29
ENDBRANCH  10  13
ENDBRANCH   7   9
BRANCH   7  33
ATOM     33  C11 non d ame     -34.077   4.866  23.662  0.00  0.00    -0.033 C 
ATOM     34  H12 non d ame     -34.161   5.833  23.166  0.00  0.00     0.042 H 
BRANCH  33  35
ATOM     35  C12 non d ame     -33.159   3.964  22.779  0.00  0.00    -0.071 C 
ATOM     36  H13 non d ame     -32.754   3.154  23.386  0.00  0.00     0.028 H 
ATOM     37  H14 non d ame     -33.741   3.547  21.958  0.00  0.00     0.028 H 
ATOM     38  H15 non d ame     -32.340   4.561  22.379  0.00  0.00     0.028 H 
ENDBRANCH  33  35
BRANCH  33  39
ATOM     39  C13 non d ame     -35.513   4.261  23.788  0.00  0.00    -0.071 C 
ATOM     40  H16 non d ame     -36.141   4.648  22.986  0.00  0.00     0.028 H 
ATOM     41  H17 non d ame     -35.457   3.174  23.714  0.00  0.00     0.028 H 
ATOM     42  H18 non d ame     -35.940   4.538  24.751  0.00  0.00     0.028 H 
ENDBRANCH  33  39
ENDBRANCH   7  33
ENDBRANCH   4   7
ENDBRANCH   1   3
BRANCH   1  43
ATOM     43  C15 non d ame     -32.656   9.756  26.345  0.00  0.00     0.240 C 
ATOM     44  O5  non d ame     -32.531   9.287  27.430  0.00  0.00    -0.271 OA
ATOM     45  N6  non d ame     -33.097  11.173  26.197  0.00  0.00    -0.355 N 
ATOM     46  H46 non d ame     -33.203  11.584  25.281  0.00  0.00     0.162 HD
BRANCH  45  47
ATOM     47  C20 non d ame     -33.382  11.982  27.402  0.00  0.00     0.013 C 
ATOM     48  H30 non d ame     -33.567  11.297  28.229  0.00  0.00     0.072 H 
BRANCH  47  49
ATOM     49  C21 non d ame     -34.606  12.834  27.153  0.00  0.00    -0.038 C 
ATOM     50  H31 non d ame     -35.460  12.166  27.277  0.00  0.00     0.036 H 
ATOM     51  H32 non d ame     -34.496  13.703  27.801  0.00  0.00     0.036 H 
BRANCH  49  52
ATOM     52  C22 non d ame     -34.679  13.372  25.708  0.00  0.00     0.018 C 
ATOM     53  H33 non d ame     -33.829  12.933  25.186  0.00  0.00     0.048 H 
ATOM     54  H34 non d ame     -35.694  13.166  25.367  0.00  0.00     0.048 H 
BRANCH  52  55
ATOM     55  C23 non d ame     -34.496  14.912  25.603  0.00  0.00     0.259 C 
ATOM     56  O7  non d ame     -35.102  15.641  26.319  0.00  0.00    -0.265 OA
BRANCH  55  57
ATOM     57  O8  non d ame     -33.603  15.442  24.631  0.00  0.00    -0.317 OA
BRANCH  57  58
ATOM     58  C29 non d ame     -32.235  15.466  25.049  0.00  0.00     0.052 C 
ATOM     59  H47 non d ame     -32.011  16.510  25.267  0.00  0.00     0.082 H 
ATOM     60  H48 non d ame     -32.153  14.716  25.835  0.00  0.00     0.082 H 
BRANCH  58  61
ATOM     61  C35 non d ame     -31.360  15.016  23.848  0.00  0.00    -0.034 A 
ATOM     62  C30 non d ame     -30.860  13.719  23.798  0.00  0.00    -0.075 A 
ATOM     63  C31 non d ame     -30.074  13.315  22.720  0.00  0.00    -0.082 A 
ATOM     64  H49 non d ame     -31.084  13.019  24.603  0.00  0.00     0.084 H 
ATOM     65  C32 non d ame     -29.786  14.215  21.690  0.00  0.00    -0.083 A 
ATOM     66  H50 non d ame     -29.685  12.297  22.682  0.00  0.00     0.083 H 
ATOM     67  C33 non d ame     -30.285  15.509  21.746  0.00  0.00    -0.082 A 
ATOM     68  H51 non d ame     -29.173  13.907  20.843  0.00  0.00     0.083 H 
ATOM     69  C34 non d ame     -31.073  15.917  22.821  0.00  0.00    -0.075 A 
ATOM     70  H52 non d ame     -30.057  16.210  20.942  0.00  0.00     0.083 H 
ATOM     71  H53 non d ame     -31.461  16.935  22.857  0.00  0.00     0.084 H 
ENDBRANCH  58  61
ENDBRANCH  57  58
ENDBRANCH  55  57
ENDBRANCH  52  55
ENDBRANCH  49  52
ENDBRANCH  47  49
BRANCH  47  72
ATOM     72  C24 non d ame     -32.189  12.882  27.713  0.00  0.00    -0.039 C 
ATOM     73  H35 non d ame     -31.331  12.213  27.782  0.00  0.00     0.036 H 
ATOM     74  H36 non d ame     -32.210  13.664  26.954  0.00  0.00     0.036 H 
BRANCH  72  75
ATOM     75  C25 non d ame     -32.344  13.600  29.137  0.00  0.00    -0.001 C 
ATOM     76  C26 non d ame     -32.635  15.205  28.926  0.00  0.00    -0.035 C 
ATOM     77  C27 non d ame     -31.759  15.910  29.681  0.00  0.00     0.085 C 
ATOM     78  H38 non d ame     -32.386  15.499  27.906  0.00  0.00     0.036 H 
ATOM     79  H39 non d ame     -33.605  15.468  29.348  0.00  0.00     0.036 H 
ATOM     80  N5  non d ame     -30.688  14.945  30.132  0.00  0.00    -0.049 N 
ATOM     81  H40 non d ame     -31.316  16.642  29.006  0.00  0.00     0.075 H 
ATOM     82  H41 non d ame     -32.325  16.243  30.550  0.00  0.00     0.075 H 
ATOM     83  C28 non d ame     -31.273  13.468  29.846  0.00  0.00     0.193 C 
ATOM     84  H42 non d ame     -29.893  15.099  29.529  0.00  0.00     0.280 HD
ATOM     85  H43 non d ame     -30.597  15.068  31.131  0.00  0.00     0.280 HD
ATOM     86  H44 non d ame     -31.652  12.855  30.664  0.00  0.00     0.129 H 
ATOM     87  H37 non d ame     -33.016  13.058  29.802  0.00  0.00     0.046 H 
BRANCH  83  88
ATOM     88  O6  non d ame     -30.288  12.666  29.191  0.00  0.00    -0.369 OA
ATOM     89  H45 non d ame     -30.472  11.738  29.354  0.00  0.00     0.212 HD
ENDBRANCH  83  88
ENDBRANCH  72  75
ENDBRANCH  47  72
ENDBRANCH  45  47
ENDBRANCH   1  43
BRANCH   1  90
ATOM     90  C16 non d ame     -32.676   9.685  23.832  0.00  0.00    -0.035 C 
ATOM     91  H21 non d ame     -33.592   9.243  23.441  0.00  0.00     0.037 H 
ATOM     92  H22 non d ame     -32.663  10.731  24.139  0.00  0.00     0.037 H 
BRANCH  90  93
ATOM     93  C17 non d ame     -31.603   9.542  22.706  0.00  0.00    -0.059 C 
ATOM     94  H23 non d ame     -31.756  10.356  21.998  0.00  0.00     0.038 H 
BRANCH  93  95
ATOM     95  C18 non d ame     -30.147   9.659  23.261  0.00  0.00    -0.073 C 
ATOM     96  H24 non d ame     -30.029  10.615  23.770  0.00  0.00     0.028 H 
ATOM     97  H25 non d ame     -29.960   8.848  23.963  0.00  0.00     0.028 H 
ATOM     98  H26 non d ame     -29.438   9.597  22.435  0.00  0.00     0.028 H 
ENDBRANCH  93  95
BRANCH  93  99
ATOM     99  C19 non d ame     -31.789   8.231  21.937  0.00  0.00    -0.073 C 
ATOM    100  H27 non d ame     -32.743   7.780  22.211  0.00  0.00     0.028 H 
ATOM    101  H28 non d ame     -31.777   8.432  20.866  0.00  0.00     0.028 H 
ATOM    102  H29 non d ame     -30.979   7.546  22.186  0.00  0.00     0.028 H 
ENDBRANCH  93  99
ENDBRANCH  90  93
ENDBRANCH   1  90
TORSDOF 26
ENDMDL
MODEL 19
REMARK VINA RESULT:      -6.5      2.433      7.345
REMARK  26 active torsions:
REMARK  status: ('A' for Active; 'I' for Inactive)
REMARK    1  A    between atoms: C2_2  and  C3_3 
REMARK    2  A    between atoms: C4_6  and  C5_7 
REMARK       I    between atoms: C5_7  and  N2_9 
REMARK    3  A    between atoms: N2_9  and  C6_10 
REMARK    4  A    between atoms: C6_10  and  C7_11 
REMARK    5  A    between atoms: C6_10  and  C8_13 
REMARK       I    between atoms: C7_11  and  N3_14 
REMARK    6  A    between atoms: N3_14  and  C9_15 
REMARK    7  A    between atoms: C9_15  and  C10_16 
REMARK    8  A    between atoms: C9_15  and  C11_18 
REMARK       I    between atoms: C10_16  and  N4_21 
REMARK    9  A    between atoms: C11_18  and  C12_19 
REMARK   10  A    between atoms: C11_18  and  C13_20 
REMARK   11  A    between atoms: N4_21  and  C14_22 
REMARK   12  A    between atoms: C14_22  and  C15_23 
REMARK   13  A    between atoms: C14_22  and  C16_25 
REMARK       I    between atoms: C15_23  and  N6_40 
REMARK   14  A    between atoms: C16_25  and  C17_26 
REMARK   15  A    between atoms: C17_26  and  C18_27 
REMARK   16  A    between atoms: C17_26  and  C19_28 
REMARK   17  A    between atoms: C20_29  and  C21_30 
REMARK   18  A    between atoms: C20_29  and  C24_33 
REMARK   19  A    between atoms: C20_29  and  N6_40 
REMARK   20  A    between atoms: C21_30  and  C22_31 
REMARK   21  A    between atoms: C22_31  and  C23_32 
REMARK   22  A    between atoms: C23_32  and  O8_43 
REMARK   23  A    between atoms: C24_33  and  C25_34 
REMARK   24  A    between atoms: C28_38  and  O6_39 
REMARK   25  A    between atoms: C29_42  and  O8_43 
REMARK   26  A    between atoms: C29_42  and  C35_49 
ROOT
ATOM      1  C14 non d ame     -34.759  11.215  25.377  0.00  0.00     0.089 C 
ATOM      2  H20 non d ame     -34.283  11.660  24.503  0.00  0.00     0.087 H 
ENDROOT
BRANCH   1   3
ATOM      3  N4  non d ame     -34.285   9.844  25.485  0.00  0.00    -0.346 N 
ATOM      4  C10 non d ame     -32.972   9.441  24.863  0.00  0.00     0.241 C 
ATOM      5  O4  non d ame     -32.315  10.238  24.279  0.00  0.00    -0.271 OA
ATOM      6  H19 non d ame     -34.861   9.180  25.984  0.00  0.00     0.163 HD
BRANCH   4   7
ATOM      7  C9  non d ame     -32.494   8.018  24.989  0.00  0.00     0.092 C 
ATOM      8  H11 non d ame     -31.535   8.006  25.507  0.00  0.00     0.088 H 
BRANCH   7   9
ATOM      9  N3  non d ame     -33.440   7.255  25.809  0.00  0.00    -0.346 N 
ATOM     10  C7  non d ame     -32.977   6.565  26.988  0.00  0.00     0.240 C 
ATOM     11  O3  non d ame     -31.847   6.611  27.290  0.00  0.00    -0.271 OA
ATOM     12  H10 non d ame     -34.417   7.204  25.560  0.00  0.00     0.163 HD
BRANCH  10  13
ATOM     13  C6  non d ame     -33.987   5.752  27.856  0.00  0.00     0.086 C 
ATOM     14  H6  non d ame     -33.641   4.741  28.071  0.00  0.00     0.086 H 
BRANCH  13  15
ATOM     15  N2  non d ame     -34.150   6.417  29.138  0.00  0.00    -0.343 N 
ATOM     16  C5  non d ame     -34.659   7.790  29.179  0.00  0.00     0.273 C 
ATOM     17  O2  non d ame     -34.933   8.351  28.175  0.00  0.00    -0.266 OA
ATOM     18  H5  non d ame     -33.911   5.931  29.991  0.00  0.00     0.163 HD
BRANCH  16  19
ATOM     19  C4  non d ame     -34.837   8.505  30.527  0.00  0.00     0.154 A 
ATOM     20  C1  non d ame     -35.203   9.872  30.739  0.00  0.00    -0.017 A 
ATOM     21  C2  non d ame     -35.230  10.027  32.143  0.00  0.00     0.077 A 
ATOM     22  H1  non d ame     -35.415  10.634  29.990  0.00  0.00     0.091 H 
ATOM     23  O1  non d ame     -34.918   8.878  32.666  0.00  0.00    -0.218 OA
ATOM     24  N1  non d ame     -34.684   7.974  31.743  0.00  0.00    -0.123 NA
BRANCH  21  25
ATOM     25  C3  non d ame     -35.565  11.304  32.903  0.00  0.00    -0.029 C 
ATOM     26  H2  non d ame     -36.036  12.017  32.226  0.00  0.00     0.036 H 
ATOM     27  H3  non d ame     -36.250  11.072  33.719  0.00  0.00     0.036 H 
ATOM     28  H4  non d ame     -34.651  11.737  33.308  0.00  0.00     0.036 H 
ENDBRANCH  21  25
ENDBRANCH  16  19
ENDBRANCH  13  15
BRANCH  13  29
ATOM     29  C8  non d ame     -35.314   5.671  27.144  0.00  0.00    -0.049 C 
ATOM     30  H7  non d ame     -36.117   5.604  27.878  0.00  0.00     0.030 H 
ATOM     31  H8  non d ame     -35.454   6.564  26.534  0.00  0.00     0.030 H 
ATOM     32  H9  non d ame     -35.331   4.788  26.505  0.00  0.00     0.030 H 
ENDBRANCH  13  29
ENDBRANCH  10  13
ENDBRANCH   7   9
BRANCH   7  33
ATOM     33  C11 non d ame     -32.403   7.375  23.574  0.00  0.00    -0.033 C 
ATOM     34  H12 non d ame     -32.627   8.152  22.844  0.00  0.00     0.042 H 
BRANCH  33  35
ATOM     35  C12 non d ame     -30.961   6.856  23.278  0.00  0.00    -0.071 C 
ATOM     36  H13 non d ame     -30.987   6.179  22.423  0.00  0.00     0.028 H 
ATOM     37  H14 non d ame     -30.310   7.700  23.054  0.00  0.00     0.028 H 
ATOM     38  H15 non d ame     -30.580   6.324  24.150  0.00  0.00     0.028 H 
ENDBRANCH  33  35
BRANCH  33  39
ATOM     39  C13 non d ame     -33.460   6.236  23.408  0.00  0.00    -0.071 C 
ATOM     40  H16 non d ame     -34.038   6.407  22.500  0.00  0.00     0.028 H 
ATOM     41  H17 non d ame     -32.951   5.274  23.340  0.00  0.00     0.028 H 
ATOM     42  H18 non d ame     -34.128   6.232  24.270  0.00  0.00     0.028 H 
ENDBRANCH  33  39
ENDBRANCH   7  33
ENDBRANCH   4   7
ENDBRANCH   1   3
BRANCH   1  43
ATOM     43  C15 non d ame     -34.397  11.969  26.689  0.00  0.00     0.240 C 
ATOM     44  O5  non d ame     -34.841  11.596  27.727  0.00  0.00    -0.271 OA
ATOM     45  N6  non d ame     -33.489  13.150  26.653  0.00  0.00    -0.355 N 
ATOM     46  H46 non d ame     -33.102  13.474  25.779  0.00  0.00     0.162 HD
BRANCH  45  47
ATOM     47  C20 non d ame     -33.153  13.855  27.910  0.00  0.00     0.013 C 
ATOM     48  H30 non d ame     -33.420  13.203  28.741  0.00  0.00     0.072 H 
BRANCH  47  49
ATOM     49  C21 non d ame     -33.945  15.141  27.988  0.00  0.00    -0.038 C 
ATOM     50  H31 non d ame     -34.733  14.958  28.719  0.00  0.00     0.036 H 
ATOM     51  H32 non d ame     -33.210  15.928  28.163  0.00  0.00     0.036 H 
BRANCH  49  52
ATOM     52  C22 non d ame     -34.652  15.491  26.661  0.00  0.00     0.018 C 
ATOM     53  H33 non d ame     -34.835  14.539  26.164  0.00  0.00     0.048 H 
ATOM     54  H34 non d ame     -35.490  16.133  26.934  0.00  0.00     0.048 H 
BRANCH  52  55
ATOM     55  C23 non d ame     -33.776  16.323  25.684  0.00  0.00     0.259 C 
ATOM     56  O7  non d ame     -33.681  17.501  25.812  0.00  0.00    -0.265 OA
BRANCH  55  57
ATOM     57  O8  non d ame     -33.095  15.662  24.624  0.00  0.00    -0.317 OA
BRANCH  57  58
ATOM     58  C29 non d ame     -31.865  16.285  24.245  0.00  0.00     0.052 C 
ATOM     59  H47 non d ame     -32.141  17.098  23.573  0.00  0.00     0.082 H 
ATOM     60  H48 non d ame     -31.344  16.502  25.177  0.00  0.00     0.082 H 
BRANCH  58  61
ATOM     61  C35 non d ame     -31.030  15.249  23.446  0.00  0.00    -0.034 A 
ATOM     62  C30 non d ame     -30.300  15.653  22.332  0.00  0.00    -0.075 A 
ATOM     63  C31 non d ame     -29.550  14.722  21.614  0.00  0.00    -0.082 A 
ATOM     64  H49 non d ame     -30.315  16.698  22.022  0.00  0.00     0.084 H 
ATOM     65  C32 non d ame     -29.534  13.383  22.012  0.00  0.00    -0.083 A 
ATOM     66  H50 non d ame     -28.977  15.042  20.743  0.00  0.00     0.083 H 
ATOM     67  C33 non d ame     -30.267  12.984  23.121  0.00  0.00    -0.082 A 
ATOM     68  H51 non d ame     -28.950  12.649  21.456  0.00  0.00     0.083 H 
ATOM     69  C34 non d ame     -31.016  13.911  23.843  0.00  0.00    -0.075 A 
ATOM     70  H52 non d ame     -30.255  11.938  23.428  0.00  0.00     0.083 H 
ATOM     71  H53 non d ame     -31.588  13.590  24.714  0.00  0.00     0.084 H 
ENDBRANCH  58  61
ENDBRANCH  57  58
ENDBRANCH  55  57
ENDBRANCH  52  55
ENDBRANCH  49  52
ENDBRANCH  47  49
BRANCH  47  72
ATOM     72  C24 non d ame     -31.660  14.172  27.941  0.00  0.00    -0.039 C 
ATOM     73  H35 non d ame     -31.303  13.985  26.928  0.00  0.00     0.036 H 
ATOM     74  H36 non d ame     -31.584  15.172  28.369  0.00  0.00     0.036 H 
BRANCH  72  75
ATOM     75  C25 non d ame     -30.863  13.180  28.914  0.00  0.00    -0.001 C 
ATOM     76  C26 non d ame     -31.767  11.838  29.207  0.00  0.00    -0.035 C 
ATOM     77  C27 non d ame     -31.834  11.640  30.545  0.00  0.00     0.085 C 
ATOM     78  H38 non d ame     -32.804  12.016  28.924  0.00  0.00     0.036 H 
ATOM     79  H39 non d ame     -31.248  10.950  28.844  0.00  0.00     0.036 H 
ATOM     80  N5  non d ame     -31.335  12.904  31.203  0.00  0.00    -0.049 N 
ATOM     81  H40 non d ame     -32.894  11.517  30.769  0.00  0.00     0.075 H 
ATOM     82  H41 non d ame     -31.135  10.831  30.755  0.00  0.00     0.075 H 
ATOM     83  C28 non d ame     -30.595  13.747  30.042  0.00  0.00     0.193 C 
ATOM     84  H42 non d ame     -32.154  13.415  31.499  0.00  0.00     0.280 HD
ATOM     85  H43 non d ame     -30.645  12.618  31.883  0.00  0.00     0.280 HD
ATOM     86  H44 non d ame     -29.507  13.783  29.992  0.00  0.00     0.129 H 
ATOM     87  H37 non d ame     -29.834  13.023  28.591  0.00  0.00     0.046 H 
BRANCH  83  88
ATOM     88  O6  non d ame     -31.021  15.110  30.075  0.00  0.00    -0.369 OA
ATOM     89  H45 non d ame     -31.975  15.145  30.178  0.00  0.00     0.212 HD
ENDBRANCH  83  88
ENDBRANCH  72  75
ENDBRANCH  47  72
ENDBRANCH  45  47
ENDBRANCH   1  43
BRANCH   1  90
ATOM     90  C16 non d ame     -36.269  11.206  25.193  0.00  0.00    -0.035 C 
ATOM     91  H21 non d ame     -36.442  10.675  24.258  0.00  0.00     0.037 H 
ATOM     92  H22 non d ame     -36.671  10.811  26.127  0.00  0.00     0.037 H 
BRANCH  90  93
ATOM     93  C17 non d ame     -36.887  12.629  25.013  0.00  0.00    -0.059 C 
ATOM     94  H23 non d ame     -36.093  13.358  25.178  0.00  0.00     0.038 H 
BRANCH  93  95
ATOM     95  C18 non d ame     -37.444  12.851  23.570  0.00  0.00    -0.073 C 
ATOM     96  H24 non d ame     -37.110  12.040  22.923  0.00  0.00     0.028 H 
ATOM     97  H25 non d ame     -38.533  12.866  23.599  0.00  0.00     0.028 H 
ATOM     98  H26 non d ame     -37.078  13.801  23.182  0.00  0.00     0.028 H 
ENDBRANCH  93  95
BRANCH  93  99
ATOM     99  C19 non d ame     -37.971  12.891  26.061  0.00  0.00    -0.073 C 
ATOM    100  H27 non d ame     -38.191  13.958  26.098  0.00  0.00     0.028 H 
ATOM    101  H28 non d ame     -38.875  12.342  25.795  0.00  0.00     0.028 H 
ATOM    102  H29 non d ame     -37.620  12.558  27.038  0.00  0.00     0.028 H 
ENDBRANCH  93  99
ENDBRANCH  90  93
ENDBRANCH   1  90
TORSDOF 26
ENDMDL
MODEL 20
REMARK VINA RESULT:      -6.5      2.315      6.165
REMARK  26 active torsions:
REMARK  status: ('A' for Active; 'I' for Inactive)
REMARK    1  A    between atoms: C2_2  and  C3_3 
REMARK    2  A    between atoms: C4_6  and  C5_7 
REMARK       I    between atoms: C5_7  and  N2_9 
REMARK    3  A    between atoms: N2_9  and  C6_10 
REMARK    4  A    between atoms: C6_10  and  C7_11 
REMARK    5  A    between atoms: C6_10  and  C8_13 
REMARK       I    between atoms: C7_11  and  N3_14 
REMARK    6  A    between atoms: N3_14  and  C9_15 
REMARK    7  A    between atoms: C9_15  and  C10_16 
REMARK    8  A    between atoms: C9_15  and  C11_18 
REMARK       I    between atoms: C10_16  and  N4_21 
REMARK    9  A    between atoms: C11_18  and  C12_19 
REMARK   10  A    between atoms: C11_18  and  C13_20 
REMARK   11  A    between atoms: N4_21  and  C14_22 
REMARK   12  A    between atoms: C14_22  and  C15_23 
REMARK   13  A    between atoms: C14_22  and  C16_25 
REMARK       I    between atoms: C15_23  and  N6_40 
REMARK   14  A    between atoms: C16_25  and  C17_26 
REMARK   15  A    between atoms: C17_26  and  C18_27 
REMARK   16  A    between atoms: C17_26  and  C19_28 
REMARK   17  A    between atoms: C20_29  and  C21_30 
REMARK   18  A    between atoms: C20_29  and  C24_33 
REMARK   19  A    between atoms: C20_29  and  N6_40 
REMARK   20  A    between atoms: C21_30  and  C22_31 
REMARK   21  A    between atoms: C22_31  and  C23_32 
REMARK   22  A    between atoms: C23_32  and  O8_43 
REMARK   23  A    between atoms: C24_33  and  C25_34 
REMARK   24  A    between atoms: C28_38  and  O6_39 
REMARK   25  A    between atoms: C29_42  and  O8_43 
REMARK   26  A    between atoms: C29_42  and  C35_49 
ROOT
ATOM      1  C14 non d ame     -34.443  10.343  29.313  0.00  0.00     0.089 C 
ATOM      2  H20 non d ame     -35.374  10.882  29.130  0.00  0.00     0.087 H 
ENDROOT
BRANCH   1   3
ATOM      3  N4  non d ame     -34.670   8.948  28.964  0.00  0.00    -0.346 N 
ATOM      4  C10 non d ame     -36.068   8.442  28.716  0.00  0.00     0.241 C 
ATOM      5  O4  non d ame     -36.997   9.176  28.806  0.00  0.00    -0.271 OA
ATOM      6  H19 non d ame     -33.866   8.339  28.894  0.00  0.00     0.163 HD
BRANCH   4   7
ATOM      7  C9  non d ame     -36.284   6.997  28.350  0.00  0.00     0.092 C 
ATOM      8  H11 non d ame     -36.963   6.940  27.500  0.00  0.00     0.088 H 
BRANCH   7   9
ATOM      9  N3  non d ame     -35.011   6.405  27.928  0.00  0.00    -0.346 N 
ATOM     10  C7  non d ame     -34.823   6.003  26.556  0.00  0.00     0.240 C 
ATOM     11  O3  non d ame     -35.686   6.148  25.778  0.00  0.00    -0.271 OA
ATOM     12  H10 non d ame     -34.258   6.272  28.588  0.00  0.00     0.163 HD
BRANCH  10  13
ATOM     13  C6  non d ame     -33.468   5.370  26.113  0.00  0.00     0.086 C 
ATOM     14  H6  non d ame     -33.598   4.502  25.466  0.00  0.00     0.086 H 
BRANCH  13  15
ATOM     15  N2  non d ame     -32.718   6.351  25.346  0.00  0.00    -0.343 N 
ATOM     16  C5  non d ame     -32.657   6.232  23.887  0.00  0.00     0.273 C 
ATOM     17  O2  non d ame     -33.211   5.343  23.341  0.00  0.00    -0.266 OA
ATOM     18  H5  non d ame     -32.244   7.106  25.821  0.00  0.00     0.163 HD
BRANCH  16  19
ATOM     19  C4  non d ame     -31.869   7.263  23.063  0.00  0.00     0.154 A 
ATOM     20  C1  non d ame     -31.291   8.485  23.532  0.00  0.00    -0.017 A 
ATOM     21  C2  non d ame     -30.684   9.060  22.394  0.00  0.00     0.077 A 
ATOM     22  H1  non d ame     -31.309   8.892  24.543  0.00  0.00     0.091 H 
ATOM     23  O1  non d ame     -30.893   8.254  21.394  0.00  0.00    -0.218 OA
ATOM     24  N1  non d ame     -31.582   7.199  21.760  0.00  0.00    -0.123 NA
BRANCH  21  25
ATOM     25  C3  non d ame     -29.924  10.379  22.347  0.00  0.00    -0.029 C 
ATOM     26  H2  non d ame     -29.456  10.495  21.369  0.00  0.00     0.036 H 
ATOM     27  H3  non d ame     -30.616  11.203  22.517  0.00  0.00     0.036 H 
ATOM     28  H4  non d ame     -29.156  10.384  23.120  0.00  0.00     0.036 H 
ENDBRANCH  21  25
ENDBRANCH  16  19
ENDBRANCH  13  15
BRANCH  13  29
ATOM     29  C8  non d ame     -32.681   4.956  27.331  0.00  0.00    -0.049 C 
ATOM     30  H7  non d ame     -33.170   4.106  27.807  0.00  0.00     0.030 H 
ATOM     31  H8  non d ame     -31.672   4.675  27.033  0.00  0.00     0.030 H 
ATOM     32  H9  non d ame     -32.635   5.789  28.033  0.00  0.00     0.030 H 
ENDBRANCH  13  29
ENDBRANCH  10  13
ENDBRANCH   7   9
BRANCH   7  33
ATOM     33  C11 non d ame     -36.827   6.224  29.588  0.00  0.00    -0.033 C 
ATOM     34  H12 non d ame     -37.345   6.943  30.223  0.00  0.00     0.042 H 
BRANCH  33  35
ATOM     35  C12 non d ame     -37.863   5.136  29.168  0.00  0.00    -0.071 C 
ATOM     36  H13 non d ame     -37.365   4.369  28.575  0.00  0.00     0.028 H 
ATOM     37  H14 non d ame     -38.295   4.682  30.060  0.00  0.00     0.028 H 
ATOM     38  H15 non d ame     -38.654   5.596  28.576  0.00  0.00     0.028 H 
ENDBRANCH  33  35
BRANCH  33  39
ATOM     39  C13 non d ame     -35.657   5.603  30.417  0.00  0.00    -0.071 C 
ATOM     40  H16 non d ame     -35.807   5.820  31.475  0.00  0.00     0.028 H 
ATOM     41  H17 non d ame     -35.639   4.523  30.266  0.00  0.00     0.028 H 
ATOM     42  H18 non d ame     -34.711   6.031  30.088  0.00  0.00     0.028 H 
ENDBRANCH  33  39
ENDBRANCH   7  33
ENDBRANCH   4   7
ENDBRANCH   1   3
BRANCH   1  43
ATOM     43  C15 non d ame     -33.271  10.886  28.447  0.00  0.00     0.240 C 
ATOM     44  O5  non d ame     -32.648  10.141  27.761  0.00  0.00    -0.271 OA
ATOM     45  N6  non d ame     -32.929  12.337  28.466  0.00  0.00    -0.355 N 
ATOM     46  H46 non d ame     -33.454  12.980  29.041  0.00  0.00     0.162 HD
BRANCH  45  47
ATOM     47  C20 non d ame     -31.813  12.838  27.636  0.00  0.00     0.013 C 
ATOM     48  H30 non d ame     -31.188  11.987  27.364  0.00  0.00     0.072 H 
BRANCH  47  49
ATOM     49  C21 non d ame     -31.005  13.837  28.435  0.00  0.00    -0.038 C 
ATOM     50  H31 non d ame     -30.174  13.272  28.857  0.00  0.00     0.036 H 
ATOM     51  H32 non d ame     -30.812  14.668  27.756  0.00  0.00     0.036 H 
BRANCH  49  52
ATOM     52  C22 non d ame     -31.789  14.421  29.630  0.00  0.00     0.018 C 
ATOM     53  H33 non d ame     -32.783  13.979  29.576  0.00  0.00     0.048 H 
ATOM     54  H34 non d ame     -31.162  14.250  30.506  0.00  0.00     0.048 H 
BRANCH  52  55
ATOM     55  C23 non d ame     -31.999  15.959  29.549  0.00  0.00     0.259 C 
ATOM     56  O7  non d ame     -31.440  16.685  30.305  0.00  0.00    -0.265 OA
BRANCH  55  57
ATOM     57  O8  non d ame     -32.880  16.491  28.567  0.00  0.00    -0.317 OA
BRANCH  57  58
ATOM     58  C29 non d ame     -32.570  17.830  28.171  0.00  0.00     0.052 C 
ATOM     59  H47 non d ame     -32.488  18.399  29.097  0.00  0.00     0.082 H 
ATOM     60  H48 non d ame     -31.712  17.749  27.503  0.00  0.00     0.082 H 
BRANCH  58  61
ATOM     61  C35 non d ame     -33.773  18.380  27.360  0.00  0.00    -0.034 A 
ATOM     62  C30 non d ame     -34.447  17.554  26.466  0.00  0.00    -0.075 A 
ATOM     63  C31 non d ame     -35.528  18.048  25.737  0.00  0.00    -0.082 A 
ATOM     64  H49 non d ame     -34.128  16.520  26.336  0.00  0.00     0.084 H 
ATOM     65  C32 non d ame     -35.933  19.375  25.903  0.00  0.00    -0.083 A 
ATOM     66  H50 non d ame     -36.054  17.398  25.038  0.00  0.00     0.083 H 
ATOM     67  C33 non d ame     -35.256  20.197  26.794  0.00  0.00    -0.082 A 
ATOM     68  H51 non d ame     -36.777  19.770  25.338  0.00  0.00     0.083 H 
ATOM     69  C34 non d ame     -34.176  19.706  27.526  0.00  0.00    -0.075 A 
ATOM     70  H52 non d ame     -35.573  21.232  26.919  0.00  0.00     0.083 H 
ATOM     71  H53 non d ame     -33.650  20.358  28.224  0.00  0.00     0.084 H 
ENDBRANCH  58  61
ENDBRANCH  57  58
ENDBRANCH  55  57
ENDBRANCH  52  55
ENDBRANCH  49  52
ENDBRANCH  47  49
BRANCH  47  72
ATOM     72  C24 non d ame     -32.364  13.514  26.382  0.00  0.00    -0.039 C 
ATOM     73  H35 non d ame     -32.825  12.715  25.801  0.00  0.00     0.036 H 
ATOM     74  H36 non d ame     -32.969  14.345  26.743  0.00  0.00     0.036 H 
BRANCH  72  75
ATOM     75  C25 non d ame     -31.194  14.138  25.482  0.00  0.00    -0.001 C 
ATOM     76  C26 non d ame     -31.532  15.709  25.136  0.00  0.00    -0.035 C 
ATOM     77  C27 non d ame     -31.423  15.894  23.798  0.00  0.00     0.085 C 
ATOM     78  H38 non d ame     -32.581  15.919  25.338  0.00  0.00     0.036 H 
ATOM     79  H39 non d ame     -30.757  16.357  25.546  0.00  0.00     0.036 H 
ATOM     80  N5  non d ame     -31.364  14.524  23.167  0.00  0.00    -0.049 N 
ATOM     81  H40 non d ame     -32.348  16.385  23.496  0.00  0.00     0.075 H 
ATOM     82  H41 non d ame     -30.467  16.395  23.650  0.00  0.00     0.075 H 
ATOM     83  C28 non d ame     -31.064  13.492  24.372  0.00  0.00     0.193 C 
ATOM     84  H42 non d ame     -32.288  14.335  22.804  0.00  0.00     0.280 HD
ATOM     85  H43 non d ame     -30.569  14.531  22.544  0.00  0.00     0.280 HD
ATOM     86  H44 non d ame     -30.068  13.069  24.503  0.00  0.00     0.129 H 
ATOM     87  H37 non d ame     -30.204  13.920  25.883  0.00  0.00     0.046 H 
BRANCH  83  88
ATOM     88  O6  non d ame     -31.947  12.372  24.293  0.00  0.00    -0.369 OA
ATOM     89  H45 non d ame     -32.807  12.663  23.978  0.00  0.00     0.212 HD
ENDBRANCH  83  88
ENDBRANCH  72  75
ENDBRANCH  47  72
ENDBRANCH  45  47
ENDBRANCH   1  43
BRANCH   1  90
ATOM     90  C16 non d ame     -34.076  10.433  30.785  0.00  0.00    -0.035 C 
ATOM     91  H21 non d ame     -33.372   9.619  30.957  0.00  0.00     0.037 H 
ATOM     92  H22 non d ame     -33.765  11.465  30.942  0.00  0.00     0.037 H 
BRANCH  90  93
ATOM     93  C17 non d ame     -35.280  10.183  31.748  0.00  0.00    -0.059 C 
ATOM     94  H23 non d ame     -36.196  10.302  31.169  0.00  0.00     0.038 H 
BRANCH  93  95
ATOM     95  C18 non d ame     -35.274   8.736  32.337  0.00  0.00    -0.073 C 
ATOM     96  H24 non d ame     -34.765   8.064  31.646  0.00  0.00     0.028 H 
ATOM     97  H25 non d ame     -34.752   8.735  33.293  0.00  0.00     0.028 H 
ATOM     98  H26 non d ame     -36.300   8.399  32.483  0.00  0.00     0.028 H 
ENDBRANCH  93  95
BRANCH  93  99
ATOM     99  C19 non d ame     -35.311  11.227  32.867  0.00  0.00    -0.073 C 
ATOM    100  H27 non d ame     -35.425  12.221  32.435  0.00  0.00     0.028 H 
ATOM    101  H28 non d ame     -36.149  11.022  33.533  0.00  0.00     0.028 H 
ATOM    102  H29 non d ame     -34.380  11.181  33.432  0.00  0.00     0.028 H 
ENDBRANCH  93  99
ENDBRANCH  90  93
ENDBRANCH   1  90
TORSDOF 26
ENDMDL
