MODEL 1
REMARK VINA RESULT:      -7.1      0.000      0.000
REMARK  26 active torsions:
REMARK  status: ('A' for Active; 'I' for Inactive)
REMARK    1  A    between atoms: C2_2  and  C3_3 
REMARK    2  A    between atoms: C4_6  and  C5_7 
REMARK       I    between atoms: C5_7  and  N2_9 
REMARK    3  A    between atoms: N2_9  and  C6_10 
REMARK    4  A    between atoms: C6_10  and  C7_11 
REMARK    5  A    between atoms: C6_10  and  C8_13 
REMARK       I    between atoms: C7_11  and  N3_14 
REMARK    6  A    between atoms: N3_14  and  C9_15 
REMARK    7  A    between atoms: C9_15  and  C10_16 
REMARK    8  A    between atoms: C9_15  and  C11_18 
REMARK       I    between atoms: C10_16  and  N4_21 
REMARK    9  A    between atoms: C11_18  and  C12_19 
REMARK   10  A    between atoms: C11_18  and  C13_20 
REMARK   11  A    between atoms: N4_21  and  C14_22 
REMARK   12  A    between atoms: C14_22  and  C15_23 
REMARK   13  A    between atoms: C14_22  and  C16_25 
REMARK       I    between atoms: C15_23  and  N6_40 
REMARK   14  A    between atoms: C16_25  and  C17_26 
REMARK   15  A    between atoms: C17_26  and  C18_27 
REMARK   16  A    between atoms: C17_26  and  C19_28 
REMARK   17  A    between atoms: C20_29  and  C21_30 
REMARK   18  A    between atoms: C20_29  and  C24_33 
REMARK   19  A    between atoms: C20_29  and  N6_40 
REMARK   20  A    between atoms: C21_30  and  C22_31 
REMARK   21  A    between atoms: C22_31  and  C23_32 
REMARK   22  A    between atoms: C23_32  and  O8_43 
REMARK   23  A    between atoms: C24_33  and  C25_34 
REMARK   24  A    between atoms: C28_38  and  O6_39 
REMARK   25  A    between atoms: C29_42  and  O8_43 
REMARK   26  A    between atoms: C29_42  and  C35_49 
ROOT
ATOM      1  C14 non d ame     -30.758  14.401  23.924  0.00  0.00     0.089 C 
ATOM      2  H20 non d ame     -29.671  14.435  23.843  0.00  0.00     0.087 H 
ENDROOT
BRANCH   1   3
ATOM      3  N4  non d ame     -31.133  13.021  24.196  0.00  0.00    -0.346 N 
ATOM      4  C10 non d ame     -30.552  11.897  23.376  0.00  0.00     0.241 C 
ATOM      5  O4  non d ame     -29.785  12.128  22.500  0.00  0.00    -0.271 OA
ATOM      6  H19 non d ame     -31.789  12.847  24.945  0.00  0.00     0.163 HD
BRANCH   4   7
ATOM      7  C9  non d ame     -30.947  10.475  23.676  0.00  0.00     0.092 C 
ATOM      8  H11 non d ame     -30.383  10.120  24.538  0.00  0.00     0.088 H 
BRANCH   7   9
ATOM      9  N3  non d ame     -32.367  10.429  24.039  0.00  0.00    -0.346 N 
ATOM     10  C7  non d ame     -32.754  10.170  25.404  0.00  0.00     0.240 C 
ATOM     11  O3  non d ame     -31.936   9.996  26.223  0.00  0.00    -0.271 OA
ATOM     12  H10 non d ame     -33.084  10.575  23.343  0.00  0.00     0.163 HD
BRANCH  10  13
ATOM     13  C6  non d ame     -34.266  10.119  25.783  0.00  0.00     0.086 C 
ATOM     14  H6  non d ame     -34.433  10.167  26.859  0.00  0.00     0.086 H 
BRANCH  13  15
ATOM     15  N2  non d ame     -34.937  11.272  25.206  0.00  0.00    -0.343 N 
ATOM     16  C5  non d ame     -35.839  12.073  26.038  0.00  0.00     0.273 C 
ATOM     17  O2  non d ame     -36.020  11.778  27.168  0.00  0.00    -0.266 OA
ATOM     18  H5  non d ame     -34.777  11.515  24.239  0.00  0.00     0.163 HD
BRANCH  16  19
ATOM     19  C4  non d ame     -36.552  13.296  25.442  0.00  0.00     0.154 A 
ATOM     20  C1  non d ame     -37.020  13.455  24.099  0.00  0.00    -0.017 A 
ATOM     21  C2  non d ame     -37.597  14.744  24.065  0.00  0.00     0.077 A 
ATOM     22  H1  non d ame     -36.951  12.744  23.275  0.00  0.00     0.091 H 
ATOM     23  O1  non d ame     -37.471  15.256  25.254  0.00  0.00    -0.218 OA
ATOM     24  N1  non d ame     -36.865  14.430  26.075  0.00  0.00    -0.123 NA
BRANCH  21  25
ATOM     25  C3  non d ame     -38.247  15.410  22.859  0.00  0.00    -0.029 C 
ATOM     26  H2  non d ame     -39.129  15.963  23.180  0.00  0.00     0.036 H 
ATOM     27  H3  non d ame     -37.537  16.095  22.396  0.00  0.00     0.036 H 
ATOM     28  H4  non d ame     -38.538  14.648  22.136  0.00  0.00     0.036 H 
ENDBRANCH  21  25
ENDBRANCH  16  19
ENDBRANCH  13  15
BRANCH  13  29
ATOM     29  C8  non d ame     -34.878   8.847  25.251  0.00  0.00    -0.049 C 
ATOM     30  H7  non d ame     -35.943   9.000  25.080  0.00  0.00     0.030 H 
ATOM     31  H8  non d ame     -34.394   8.577  24.313  0.00  0.00     0.030 H 
ATOM     32  H9  non d ame     -34.738   8.046  25.977  0.00  0.00     0.030 H 
ENDBRANCH  13  29
ENDBRANCH  10  13
ENDBRANCH   7   9
BRANCH   7  33
ATOM     33  C11 non d ame     -30.707   9.594  22.415  0.00  0.00    -0.033 C 
ATOM     34  H12 non d ame     -30.625  10.262  21.558  0.00  0.00     0.042 H 
BRANCH  33  35
ATOM     35  C12 non d ame     -29.367   8.801  22.523  0.00  0.00    -0.071 C 
ATOM     36  H13 non d ame     -28.661   9.181  21.784  0.00  0.00     0.028 H 
ATOM     37  H14 non d ame     -28.951   8.925  23.522  0.00  0.00     0.028 H 
ATOM     38  H15 non d ame     -29.555   7.744  22.335  0.00  0.00     0.028 H 
ENDBRANCH  33  35
BRANCH  33  39
ATOM     39  C13 non d ame     -31.915   8.634  22.166  0.00  0.00    -0.071 C 
ATOM     40  H16 non d ame     -32.830   9.218  22.069  0.00  0.00     0.028 H 
ATOM     41  H17 non d ame     -31.746   8.067  21.250  0.00  0.00     0.028 H 
ATOM     42  H18 non d ame     -32.011   7.945  23.005  0.00  0.00     0.028 H 
ENDBRANCH  33  39
ENDBRANCH   7  33
ENDBRANCH   4   7
ENDBRANCH   1   3
BRANCH   1  43
ATOM     43  C15 non d ame     -31.290  15.297  25.079  0.00  0.00     0.240 C 
ATOM     44  O5  non d ame     -31.324  16.477  24.944  0.00  0.00    -0.271 OA
ATOM     45  N6  non d ame     -31.766  14.682  26.351  0.00  0.00    -0.355 N 
ATOM     46  H46 non d ame     -31.747  13.680  26.475  0.00  0.00     0.162 HD
BRANCH  45  47
ATOM     47  C20 non d ame     -32.270  15.547  27.439  0.00  0.00     0.013 C 
ATOM     48  H30 non d ame     -31.829  16.535  27.314  0.00  0.00     0.072 H 
BRANCH  47  49
ATOM     49  C21 non d ame     -31.860  14.963  28.772  0.00  0.00    -0.038 C 
ATOM     50  H31 non d ame     -30.807  14.704  28.669  0.00  0.00     0.036 H 
ATOM     51  H32 non d ame     -32.171  15.692  29.521  0.00  0.00     0.036 H 
BRANCH  49  52
ATOM     52  C22 non d ame     -32.603  13.651  29.106  0.00  0.00     0.018 C 
ATOM     53  H33 non d ame     -32.950  13.761  30.133  0.00  0.00     0.048 H 
ATOM     54  H34 non d ame     -33.322  13.506  28.300  0.00  0.00     0.048 H 
BRANCH  52  55
ATOM     55  C23 non d ame     -31.689  12.394  29.095  0.00  0.00     0.259 C 
ATOM     56  O7  non d ame     -30.773  12.321  28.342  0.00  0.00    -0.265 OA
BRANCH  55  57
ATOM     57  O8  non d ame     -31.966  11.323  29.989  0.00  0.00    -0.317 OA
BRANCH  57  58
ATOM     58  C29 non d ame     -32.984  10.429  29.529  0.00  0.00     0.052 C 
ATOM     59  H47 non d ame     -33.551  10.987  28.783  0.00  0.00     0.082 H 
ATOM     60  H48 non d ame     -32.466   9.513  29.246  0.00  0.00     0.082 H 
BRANCH  58  61
ATOM     61  C35 non d ame     -33.922  10.115  30.724  0.00  0.00    -0.034 A 
ATOM     62  C30 non d ame     -34.215  11.103  31.659  0.00  0.00    -0.075 A 
ATOM     63  C31 non d ame     -35.057  10.821  32.733  0.00  0.00    -0.082 A 
ATOM     64  H49 non d ame     -33.784  12.099  31.550  0.00  0.00     0.084 H 
ATOM     65  C32 non d ame     -35.606   9.543  32.872  0.00  0.00    -0.083 A 
ATOM     66  H50 non d ame     -35.286  11.598  33.463  0.00  0.00     0.083 H 
ATOM     67  C33 non d ame     -35.308   8.559  31.939  0.00  0.00    -0.082 A 
ATOM     68  H51 non d ame     -36.266   9.314  33.709  0.00  0.00     0.083 H 
ATOM     69  C34 non d ame     -34.468   8.838  30.863  0.00  0.00    -0.075 A 
ATOM     70  H52 non d ame     -35.736   7.563  32.052  0.00  0.00     0.083 H 
ATOM     71  H53 non d ame     -34.240   8.060  30.133  0.00  0.00     0.084 H 
ENDBRANCH  58  61
ENDBRANCH  57  58
ENDBRANCH  55  57
ENDBRANCH  52  55
ENDBRANCH  49  52
ENDBRANCH  47  49
BRANCH  47  72
ATOM     72  C24 non d ame     -33.793  15.633  27.367  0.00  0.00    -0.039 C 
ATOM     73  H35 non d ame     -34.075  15.050  26.489  0.00  0.00     0.036 H 
ATOM     74  H36 non d ame     -34.148  15.337  28.354  0.00  0.00     0.036 H 
BRANCH  72  75
ATOM     75  C25 non d ame     -34.291  17.135  27.116  0.00  0.00    -0.001 C 
ATOM     76  C26 non d ame     -35.554  17.480  28.111  0.00  0.00    -0.035 C 
ATOM     77  C27 non d ame     -36.570  17.982  27.368  0.00  0.00     0.085 C 
ATOM     78  H38 non d ame     -35.969  16.559  28.521  0.00  0.00     0.036 H 
ATOM     79  H39 non d ame     -35.293  18.304  28.775  0.00  0.00     0.036 H 
ATOM     80  N5  non d ame     -36.237  17.706  25.921  0.00  0.00    -0.049 N 
ATOM     81  H40 non d ame     -37.449  17.401  27.647  0.00  0.00     0.075 H 
ATOM     82  H41 non d ame     -36.551  19.058  27.538  0.00  0.00     0.075 H 
ATOM     83  C28 non d ame     -34.674  17.303  25.894  0.00  0.00     0.193 C 
ATOM     84  H42 non d ame     -36.782  16.900  25.651  0.00  0.00     0.280 HD
ATOM     85  H43 non d ame     -36.352  18.582  25.431  0.00  0.00     0.280 HD
ATOM     86  H44 non d ame     -33.924  18.014  25.547  0.00  0.00     0.129 H 
ATOM     87  H37 non d ame     -33.465  17.846  27.099  0.00  0.00     0.046 H 
BRANCH  83  88
ATOM     88  O6  non d ame     -34.482  16.129  25.103  0.00  0.00    -0.369 OA
ATOM     89  H45 non d ame     -34.172  15.413  25.663  0.00  0.00     0.212 HD
ENDBRANCH  83  88
ENDBRANCH  72  75
ENDBRANCH  47  72
ENDBRANCH  45  47
ENDBRANCH   1  43
BRANCH   1  90
ATOM     90  C16 non d ame     -31.386  14.835  22.609  0.00  0.00    -0.035 C 
ATOM     91  H21 non d ame     -31.620  13.911  22.082  0.00  0.00     0.037 H 
ATOM     92  H22 non d ame     -32.185  15.524  22.885  0.00  0.00     0.037 H 
BRANCH  90  93
ATOM     93  C17 non d ame     -30.413  15.635  21.685  0.00  0.00    -0.059 C 
ATOM     94  H23 non d ame     -30.633  16.695  21.812  0.00  0.00     0.038 H 
BRANCH  93  95
ATOM     95  C18 non d ame     -28.916  15.409  22.069  0.00  0.00    -0.073 C 
ATOM     96  H24 non d ame     -28.641  16.087  22.876  0.00  0.00     0.028 H 
ATOM     97  H25 non d ame     -28.776  14.379  22.396  0.00  0.00     0.028 H 
ATOM     98  H26 non d ame     -28.285  15.603  21.201  0.00  0.00     0.028 H 
ENDBRANCH  93  95
BRANCH  93  99
ATOM     99  C19 non d ame     -30.655  15.294  20.212  0.00  0.00    -0.073 C 
ATOM    100  H27 non d ame     -30.203  14.329  19.983  0.00  0.00     0.028 H 
ATOM    101  H28 non d ame     -31.727  15.247  20.021  0.00  0.00     0.028 H 
ATOM    102  H29 non d ame     -30.209  16.064  19.583  0.00  0.00     0.028 H 
ENDBRANCH  93  99
ENDBRANCH  90  93
ENDBRANCH   1  90
TORSDOF 26
ENDMDL
MODEL 2
REMARK VINA RESULT:      -7.0      1.799      2.745
REMARK  26 active torsions:
REMARK  status: ('A' for Active; 'I' for Inactive)
REMARK    1  A    between atoms: C2_2  and  C3_3 
REMARK    2  A    between atoms: C4_6  and  C5_7 
REMARK       I    between atoms: C5_7  and  N2_9 
REMARK    3  A    between atoms: N2_9  and  C6_10 
REMARK    4  A    between atoms: C6_10  and  C7_11 
REMARK    5  A    between atoms: C6_10  and  C8_13 
REMARK       I    between atoms: C7_11  and  N3_14 
REMARK    6  A    between atoms: N3_14  and  C9_15 
REMARK    7  A    between atoms: C9_15  and  C10_16 
REMARK    8  A    between atoms: C9_15  and  C11_18 
REMARK       I    between atoms: C10_16  and  N4_21 
REMARK    9  A    between atoms: C11_18  and  C12_19 
REMARK   10  A    between atoms: C11_18  and  C13_20 
REMARK   11  A    between atoms: N4_21  and  C14_22 
REMARK   12  A    between atoms: C14_22  and  C15_23 
REMARK   13  A    between atoms: C14_22  and  C16_25 
REMARK       I    between atoms: C15_23  and  N6_40 
REMARK   14  A    between atoms: C16_25  and  C17_26 
REMARK   15  A    between atoms: C17_26  and  C18_27 
REMARK   16  A    between atoms: C17_26  and  C19_28 
REMARK   17  A    between atoms: C20_29  and  C21_30 
REMARK   18  A    between atoms: C20_29  and  C24_33 
REMARK   19  A    between atoms: C20_29  and  N6_40 
REMARK   20  A    between atoms: C21_30  and  C22_31 
REMARK   21  A    between atoms: C22_31  and  C23_32 
REMARK   22  A    between atoms: C23_32  and  O8_43 
REMARK   23  A    between atoms: C24_33  and  C25_34 
REMARK   24  A    between atoms: C28_38  and  O6_39 
REMARK   25  A    between atoms: C29_42  and  O8_43 
REMARK   26  A    between atoms: C29_42  and  C35_49 
ROOT
ATOM      1  C14 non d ame     -31.148  14.050  24.436  0.00  0.00     0.089 C 
ATOM      2  H20 non d ame     -30.171  13.606  24.631  0.00  0.00     0.087 H 
ENDROOT
BRANCH   1   3
ATOM      3  N4  non d ame     -32.150  13.019  24.661  0.00  0.00    -0.346 N 
ATOM      4  C10 non d ame     -31.867  11.874  25.602  0.00  0.00     0.241 C 
ATOM      5  O4  non d ame     -30.825  11.803  26.164  0.00  0.00    -0.271 OA
ATOM      6  H19 non d ame     -33.030  13.096  24.171  0.00  0.00     0.163 HD
BRANCH   4   7
ATOM      7  C9  non d ame     -32.918  10.819  25.828  0.00  0.00     0.092 C 
ATOM      8  H11 non d ame     -33.065  10.683  26.899  0.00  0.00     0.088 H 
BRANCH   7   9
ATOM      9  N3  non d ame     -34.195  11.273  25.269  0.00  0.00    -0.346 N 
ATOM     10  C7  non d ame     -35.211  11.812  26.140  0.00  0.00     0.240 C 
ATOM     11  O3  non d ame     -35.018  11.886  27.292  0.00  0.00    -0.271 OA
ATOM     12  H10 non d ame     -34.377  11.214  24.278  0.00  0.00     0.163 HD
BRANCH  10  13
ATOM     13  C6  non d ame     -36.570  12.291  25.540  0.00  0.00     0.086 C 
ATOM     14  H6  non d ame     -37.420  12.053  26.179  0.00  0.00     0.086 H 
BRANCH  13  15
ATOM     15  N2  non d ame     -36.542  13.738  25.407  0.00  0.00    -0.343 N 
ATOM     16  C5  non d ame     -37.529  14.548  26.124  0.00  0.00     0.273 C 
ATOM     17  O2  non d ame     -38.343  14.025  26.803  0.00  0.00    -0.266 OA
ATOM     18  H5  non d ame     -35.844  14.176  24.822  0.00  0.00     0.163 HD
BRANCH  16  19
ATOM     19  C4  non d ame     -37.511  16.079  25.993  0.00  0.00     0.154 A 
ATOM     20  C1  non d ame     -37.108  16.845  24.853  0.00  0.00    -0.017 A 
ATOM     21  C2  non d ame     -37.277  18.192  25.242  0.00  0.00     0.077 A 
ATOM     22  H1  non d ame     -36.748  16.479  23.892  0.00  0.00     0.091 H 
ATOM     23  O1  non d ame     -37.726  18.189  26.463  0.00  0.00    -0.218 OA
ATOM     24  N1  non d ame     -37.870  16.968  26.923  0.00  0.00    -0.123 NA
BRANCH  21  25
ATOM     25  C3  non d ame     -36.987  19.420  24.389  0.00  0.00    -0.029 C 
ATOM     26  H2  non d ame     -36.880  20.293  25.033  0.00  0.00     0.036 H 
ATOM     27  H3  non d ame     -36.064  19.265  23.831  0.00  0.00     0.036 H 
ATOM     28  H4  non d ame     -37.810  19.581  23.693  0.00  0.00     0.036 H 
ENDBRANCH  21  25
ENDBRANCH  16  19
ENDBRANCH  13  15
BRANCH  13  29
ATOM     29  C8  non d ame     -36.780  11.652  24.191  0.00  0.00    -0.049 C 
ATOM     30  H7  non d ame     -37.794  11.257  24.130  0.00  0.00     0.030 H 
ATOM     31  H8  non d ame     -36.633  12.397  23.409  0.00  0.00     0.030 H 
ATOM     32  H9  non d ame     -36.065  10.840  24.058  0.00  0.00     0.030 H 
ENDBRANCH  13  29
ENDBRANCH  10  13
ENDBRANCH   7   9
BRANCH   7  33
ATOM     33  C11 non d ame     -32.487   9.499  25.123  0.00  0.00    -0.033 C 
ATOM     34  H12 non d ame     -31.409   9.544  24.972  0.00  0.00     0.042 H 
BRANCH  33  35
ATOM     35  C12 non d ame     -32.784   8.255  26.017  0.00  0.00    -0.071 C 
ATOM     36  H13 non d ame     -33.721   7.796  25.701  0.00  0.00     0.028 H 
ATOM     37  H14 non d ame     -31.974   7.534  25.916  0.00  0.00     0.028 H 
ATOM     38  H15 non d ame     -32.866   8.567  27.058  0.00  0.00     0.028 H 
ENDBRANCH  33  35
BRANCH  33  39
ATOM     39  C13 non d ame     -33.166   9.366  23.722  0.00  0.00    -0.071 C 
ATOM     40  H16 non d ame     -33.348  10.359  23.311  0.00  0.00     0.028 H 
ATOM     41  H17 non d ame     -32.510   8.809  23.052  0.00  0.00     0.028 H 
ATOM     42  H18 non d ame     -34.112   8.835  23.826  0.00  0.00     0.028 H 
ENDBRANCH  33  39
ENDBRANCH   7  33
ENDBRANCH   4   7
ENDBRANCH   1   3
BRANCH   1  43
ATOM     43  C15 non d ame     -31.449  15.248  25.381  0.00  0.00     0.240 C 
ATOM     44  O5  non d ame     -30.968  16.312  25.158  0.00  0.00    -0.271 OA
ATOM     45  N6  non d ame     -32.344  15.071  26.560  0.00  0.00    -0.355 N 
ATOM     46  H46 non d ame     -32.762  14.173  26.757  0.00  0.00     0.162 HD
BRANCH  45  47
ATOM     47  C20 non d ame     -32.621  16.220  27.448  0.00  0.00     0.013 C 
ATOM     48  H30 non d ame     -31.883  16.994  27.237  0.00  0.00     0.072 H 
BRANCH  47  49
ATOM     49  C21 non d ame     -32.507  15.777  28.889  0.00  0.00    -0.038 C 
ATOM     50  H31 non d ame     -31.506  16.068  29.209  0.00  0.00     0.036 H 
ATOM     51  H32 non d ame     -33.381  16.189  29.394  0.00  0.00     0.036 H 
BRANCH  49  52
ATOM     52  C22 non d ame     -32.590  14.244  29.053  0.00  0.00     0.018 C 
ATOM     53  H33 non d ame     -33.059  14.075  30.022  0.00  0.00     0.048 H 
ATOM     54  H34 non d ame     -33.066  13.875  28.145  0.00  0.00     0.048 H 
BRANCH  52  55
ATOM     55  C23 non d ame     -31.203  13.546  29.122  0.00  0.00     0.259 C 
ATOM     56  O7  non d ame     -30.237  14.079  28.682  0.00  0.00    -0.265 OA
BRANCH  55  57
ATOM     57  O8  non d ame     -31.102  12.253  29.708  0.00  0.00    -0.317 OA
BRANCH  57  58
ATOM     58  C29 non d ame     -31.821  12.112  30.936  0.00  0.00     0.052 C 
ATOM     59  H47 non d ame     -31.112  11.686  31.646  0.00  0.00     0.082 H 
ATOM     60  H48 non d ame     -32.266  13.088  31.131  0.00  0.00     0.082 H 
BRANCH  58  61
ATOM     61  C35 non d ame     -32.964  11.088  30.708  0.00  0.00    -0.034 A 
ATOM     62  C30 non d ame     -32.929  10.239  29.606  0.00  0.00    -0.075 A 
ATOM     63  C31 non d ame     -33.956   9.319  29.400  0.00  0.00    -0.082 A 
ATOM     64  H49 non d ame     -32.097  10.295  28.904  0.00  0.00     0.084 H 
ATOM     65  C32 non d ame     -35.023   9.252  30.300  0.00  0.00    -0.083 A 
ATOM     66  H50 non d ame     -33.925   8.654  28.537  0.00  0.00     0.083 H 
ATOM     67  C33 non d ame     -35.056  10.103  31.396  0.00  0.00    -0.082 A 
ATOM     68  H51 non d ame     -35.830   8.535  30.147  0.00  0.00     0.083 H 
ATOM     69  C34 non d ame     -34.030  11.023  31.607  0.00  0.00    -0.075 A 
ATOM     70  H52 non d ame     -35.891  10.050  32.096  0.00  0.00     0.083 H 
ATOM     71  H53 non d ame     -34.062  11.687  32.471  0.00  0.00     0.084 H 
ENDBRANCH  58  61
ENDBRANCH  57  58
ENDBRANCH  55  57
ENDBRANCH  52  55
ENDBRANCH  49  52
ENDBRANCH  47  49
BRANCH  47  72
ATOM     72  C24 non d ame     -34.031  16.747  27.187  0.00  0.00    -0.039 C 
ATOM     73  H35 non d ame     -34.380  16.214  26.302  0.00  0.00     0.036 H 
ATOM     74  H36 non d ame     -34.561  16.638  28.133  0.00  0.00     0.036 H 
BRANCH  72  75
ATOM     75  C25 non d ame     -34.023  18.308  26.826  0.00  0.00    -0.001 C 
ATOM     76  C26 non d ame     -32.492  18.898  26.928  0.00  0.00    -0.035 C 
ATOM     77  C27 non d ame     -32.502  20.005  27.709  0.00  0.00     0.085 C 
ATOM     78  H38 non d ame     -31.859  18.203  27.480  0.00  0.00     0.036 H 
ATOM     79  H39 non d ame     -32.170  19.275  25.957  0.00  0.00     0.036 H 
ATOM     80  N5  non d ame     -33.837  20.036  28.414  0.00  0.00    -0.049 N 
ATOM     81  H40 non d ame     -31.714  19.848  28.446  0.00  0.00     0.075 H 
ATOM     82  H41 non d ame     -32.444  20.847  27.021  0.00  0.00     0.075 H 
ATOM     83  C28 non d ame     -34.775  18.978  27.634  0.00  0.00     0.193 C 
ATOM     84  H42 non d ame     -33.675  19.693  29.350  0.00  0.00     0.280 HD
ATOM     85  H43 non d ame     -34.212  20.963  28.273  0.00  0.00     0.280 HD
ATOM     86  H44 non d ame     -35.546  19.324  26.946  0.00  0.00     0.129 H 
ATOM     87  H37 non d ame     -34.578  18.523  25.913  0.00  0.00     0.046 H 
BRANCH  83  88
ATOM     88  O6  non d ame     -35.448  18.134  28.569  0.00  0.00    -0.369 OA
ATOM     89  H45 non d ame     -34.839  17.467  28.895  0.00  0.00     0.212 HD
ENDBRANCH  83  88
ENDBRANCH  72  75
ENDBRANCH  47  72
ENDBRANCH  45  47
ENDBRANCH   1  43
BRANCH   1  90
ATOM     90  C16 non d ame     -31.225  14.508  22.988  0.00  0.00    -0.035 C 
ATOM     91  H21 non d ame     -32.019  13.913  22.539  0.00  0.00     0.037 H 
ATOM     92  H22 non d ame     -31.316  15.594  23.034  0.00  0.00     0.037 H 
BRANCH  90  93
ATOM     93  C17 non d ame     -29.931  14.209  22.166  0.00  0.00    -0.059 C 
ATOM     94  H23 non d ame     -30.123  14.495  21.132  0.00  0.00     0.038 H 
BRANCH  93  95
ATOM     95  C18 non d ame     -28.707  15.038  22.671  0.00  0.00    -0.073 C 
ATOM     96  H24 non d ame     -28.011  15.197  21.848  0.00  0.00     0.028 H 
ATOM     97  H25 non d ame     -29.050  16.002  23.046  0.00  0.00     0.028 H 
ATOM     98  H26 non d ame     -28.206  14.495  23.472  0.00  0.00     0.028 H 
ENDBRANCH  93  95
BRANCH  93  99
ATOM     99  C19 non d ame     -29.614  12.711  22.173  0.00  0.00    -0.073 C 
ATOM    100  H27 non d ame     -28.652  12.545  22.660  0.00  0.00     0.028 H 
ATOM    101  H28 non d ame     -30.393  12.177  22.716  0.00  0.00     0.028 H 
ATOM    102  H29 non d ame     -29.570  12.345  21.147  0.00  0.00     0.028 H 
ENDBRANCH  93  99
ENDBRANCH  90  93
ENDBRANCH   1  90
TORSDOF 26
ENDMDL
MODEL 3
REMARK VINA RESULT:      -7.0      1.609      2.324
REMARK  26 active torsions:
REMARK  status: ('A' for Active; 'I' for Inactive)
REMARK    1  A    between atoms: C2_2  and  C3_3 
REMARK    2  A    between atoms: C4_6  and  C5_7 
REMARK       I    between atoms: C5_7  and  N2_9 
REMARK    3  A    between atoms: N2_9  and  C6_10 
REMARK    4  A    between atoms: C6_10  and  C7_11 
REMARK    5  A    between atoms: C6_10  and  C8_13 
REMARK       I    between atoms: C7_11  and  N3_14 
REMARK    6  A    between atoms: N3_14  and  C9_15 
REMARK    7  A    between atoms: C9_15  and  C10_16 
REMARK    8  A    between atoms: C9_15  and  C11_18 
REMARK       I    between atoms: C10_16  and  N4_21 
REMARK    9  A    between atoms: C11_18  and  C12_19 
REMARK   10  A    between atoms: C11_18  and  C13_20 
REMARK   11  A    between atoms: N4_21  and  C14_22 
REMARK   12  A    between atoms: C14_22  and  C15_23 
REMARK   13  A    between atoms: C14_22  and  C16_25 
REMARK       I    between atoms: C15_23  and  N6_40 
REMARK   14  A    between atoms: C16_25  and  C17_26 
REMARK   15  A    between atoms: C17_26  and  C18_27 
REMARK   16  A    between atoms: C17_26  and  C19_28 
REMARK   17  A    between atoms: C20_29  and  C21_30 
REMARK   18  A    between atoms: C20_29  and  C24_33 
REMARK   19  A    between atoms: C20_29  and  N6_40 
REMARK   20  A    between atoms: C21_30  and  C22_31 
REMARK   21  A    between atoms: C22_31  and  C23_32 
REMARK   22  A    between atoms: C23_32  and  O8_43 
REMARK   23  A    between atoms: C24_33  and  C25_34 
REMARK   24  A    between atoms: C28_38  and  O6_39 
REMARK   25  A    between atoms: C29_42  and  O8_43 
REMARK   26  A    between atoms: C29_42  and  C35_49 
ROOT
ATOM      1  C14 non d ame     -30.901  14.565  23.680  0.00  0.00     0.089 C 
ATOM      2  H20 non d ame     -29.813  14.590  23.625  0.00  0.00     0.087 H 
ENDROOT
BRANCH   1   3
ATOM      3  N4  non d ame     -31.293  13.202  24.005  0.00  0.00    -0.346 N 
ATOM      4  C10 non d ame     -30.613  12.034  23.336  0.00  0.00     0.241 C 
ATOM      5  O4  non d ame     -29.755  12.216  22.537  0.00  0.00    -0.271 OA
ATOM      6  H19 non d ame     -32.027  13.068  24.686  0.00  0.00     0.163 HD
BRANCH   4   7
ATOM      7  C9  non d ame     -31.028  10.630  23.689  0.00  0.00     0.092 C 
ATOM      8  H11 non d ame     -30.483  10.308  24.577  0.00  0.00     0.088 H 
BRANCH   7   9
ATOM      9  N3  non d ame     -32.455  10.611  24.025  0.00  0.00    -0.346 N 
ATOM     10  C7  non d ame     -32.896  10.006  25.258  0.00  0.00     0.240 C 
ATOM     11  O3  non d ame     -32.118   9.529  25.990  0.00  0.00    -0.271 OA
ATOM     12  H10 non d ame     -33.138  11.017  23.403  0.00  0.00     0.163 HD
BRANCH  10  13
ATOM     13  C6  non d ame     -34.417   9.986  25.609  0.00  0.00     0.086 C 
ATOM     14  H6  non d ame     -34.605  10.117  26.674  0.00  0.00     0.086 H 
BRANCH  13  15
ATOM     15  N2  non d ame     -35.071  11.093  24.931  0.00  0.00    -0.343 N 
ATOM     16  C5  non d ame     -35.857  12.052  25.710  0.00  0.00     0.273 C 
ATOM     17  O2  non d ame     -35.958  11.924  26.881  0.00  0.00    -0.266 OA
ATOM     18  H5  non d ame     -34.982  11.193  23.930  0.00  0.00     0.163 HD
BRANCH  16  19
ATOM     19  C4  non d ame     -36.553  13.228  25.007  0.00  0.00     0.154 A 
ATOM     20  C1  non d ame     -37.939  13.334  24.666  0.00  0.00    -0.017 A 
ATOM     21  C2  non d ame     -38.065  14.595  24.043  0.00  0.00     0.077 A 
ATOM     22  H1  non d ame     -38.732  12.607  24.844  0.00  0.00     0.091 H 
ATOM     23  O1  non d ame     -36.884  15.142  24.033  0.00  0.00    -0.218 OA
ATOM     24  N1  non d ame     -35.986  14.363  24.589  0.00  0.00    -0.123 NA
BRANCH  21  25
ATOM     25  C3  non d ame     -39.346  15.202  23.486  0.00  0.00    -0.029 C 
ATOM     26  H2  non d ame     -39.236  15.365  22.415  0.00  0.00     0.036 H 
ATOM     27  H3  non d ame     -40.178  14.521  23.666  0.00  0.00     0.036 H 
ATOM     28  H4  non d ame     -39.542  16.153  23.981  0.00  0.00     0.036 H 
ENDBRANCH  21  25
ENDBRANCH  16  19
ENDBRANCH  13  15
BRANCH  13  29
ATOM     29  C8  non d ame     -35.021   8.678  25.164  0.00  0.00    -0.049 C 
ATOM     30  H7  non d ame     -35.081   8.657  24.076  0.00  0.00     0.030 H 
ATOM     31  H8  non d ame     -34.397   7.854  25.510  0.00  0.00     0.030 H 
ATOM     32  H9  non d ame     -36.021   8.578  25.585  0.00  0.00     0.030 H 
ENDBRANCH  13  29
ENDBRANCH  10  13
ENDBRANCH   7   9
BRANCH   7  33
ATOM     33  C11 non d ame     -30.772   9.692  22.473  0.00  0.00    -0.033 C 
ATOM     34  H12 non d ame     -30.669  10.322  21.589  0.00  0.00     0.042 H 
BRANCH  33  35
ATOM     35  C12 non d ame     -29.439   8.897  22.639  0.00  0.00    -0.071 C 
ATOM     36  H13 non d ame     -28.968   9.170  23.583  0.00  0.00     0.028 H 
ATOM     37  H14 non d ame     -29.652   7.828  22.634  0.00  0.00     0.028 H 
ATOM     38  H15 non d ame     -28.767   9.138  21.815  0.00  0.00     0.028 H 
ENDBRANCH  33  35
BRANCH  33  39
ATOM     39  C13 non d ame     -31.981   8.730  22.244  0.00  0.00    -0.071 C 
ATOM     40  H16 non d ame     -32.794   9.001  22.918  0.00  0.00     0.028 H 
ATOM     41  H17 non d ame     -32.322   8.814  21.211  0.00  0.00     0.028 H 
ATOM     42  H18 non d ame     -31.672   7.704  22.441  0.00  0.00     0.028 H 
ENDBRANCH  33  39
ENDBRANCH   7  33
ENDBRANCH   4   7
ENDBRANCH   1   3
BRANCH   1  43
ATOM     43  C15 non d ame     -31.456  15.516  24.779  0.00  0.00     0.240 C 
ATOM     44  O5  non d ame     -30.738  16.316  25.286  0.00  0.00    -0.271 OA
ATOM     45  N6  non d ame     -32.886  15.435  25.194  0.00  0.00    -0.355 N 
ATOM     46  H46 non d ame     -33.506  14.762  24.767  0.00  0.00     0.162 HD
BRANCH  45  47
ATOM     47  C20 non d ame     -33.398  16.346  26.240  0.00  0.00     0.013 C 
ATOM     48  H30 non d ame     -32.545  16.855  26.689  0.00  0.00     0.072 H 
BRANCH  47  49
ATOM     49  C21 non d ame     -34.130  15.541  27.289  0.00  0.00    -0.038 C 
ATOM     50  H31 non d ame     -35.185  15.787  27.166  0.00  0.00     0.036 H 
ATOM     51  H32 non d ame     -33.791  14.513  27.162  0.00  0.00     0.036 H 
BRANCH  49  52
ATOM     52  C22 non d ame     -33.753  15.950  28.730  0.00  0.00     0.018 C 
ATOM     53  H33 non d ame     -34.007  17.006  28.813  0.00  0.00     0.048 H 
ATOM     54  H34 non d ame     -34.235  15.220  29.380  0.00  0.00     0.048 H 
BRANCH  52  55
ATOM     55  C23 non d ame     -32.231  15.852  29.030  0.00  0.00     0.259 C 
ATOM     56  O7  non d ame     -31.746  16.496  29.903  0.00  0.00    -0.265 OA
BRANCH  55  57
ATOM     57  O8  non d ame     -31.419  14.992  28.240  0.00  0.00    -0.317 OA
BRANCH  57  58
ATOM     58  C29 non d ame     -30.639  14.066  29.002  0.00  0.00     0.052 C 
ATOM     59  H47 non d ame     -29.878  13.689  28.318  0.00  0.00     0.082 H 
ATOM     60  H48 non d ame     -30.345  14.600  29.904  0.00  0.00     0.082 H 
BRANCH  58  61
ATOM     61  C35 non d ame     -31.561  12.885  29.409  0.00  0.00    -0.034 A 
ATOM     62  C30 non d ame     -31.638  12.489  30.740  0.00  0.00    -0.075 A 
ATOM     63  C31 non d ame     -32.466  11.429  31.106  0.00  0.00    -0.082 A 
ATOM     64  H49 non d ame     -31.050  13.008  31.497  0.00  0.00     0.084 H 
ATOM     65  C32 non d ame     -33.217  10.762  30.134  0.00  0.00    -0.083 A 
ATOM     66  H50 non d ame     -32.525  11.121  32.151  0.00  0.00     0.083 H 
ATOM     67  C33 non d ame     -33.134  11.159  28.807  0.00  0.00    -0.082 A 
ATOM     68  H51 non d ame     -33.867   9.932  30.412  0.00  0.00     0.083 H 
ATOM     69  C34 non d ame     -32.310  12.220  28.437  0.00  0.00    -0.075 A 
ATOM     70  H52 non d ame     -33.720  10.635  28.050  0.00  0.00     0.083 H 
ATOM     71  H53 non d ame     -32.251  12.526  27.392  0.00  0.00     0.084 H 
ENDBRANCH  58  61
ENDBRANCH  57  58
ENDBRANCH  55  57
ENDBRANCH  52  55
ENDBRANCH  49  52
ENDBRANCH  47  49
BRANCH  47  72
ATOM     72  C24 non d ame     -34.354  17.362  25.617  0.00  0.00    -0.039 C 
ATOM     73  H35 non d ame     -34.272  17.214  24.540  0.00  0.00     0.036 H 
ATOM     74  H36 non d ame     -35.310  17.205  26.117  0.00  0.00     0.036 H 
BRANCH  72  75
ATOM     75  C25 non d ame     -33.901  18.867  25.923  0.00  0.00    -0.001 C 
ATOM     76  C26 non d ame     -32.522  18.866  26.819  0.00  0.00    -0.035 C 
ATOM     77  C27 non d ame     -32.704  19.661  27.900  0.00  0.00     0.085 C 
ATOM     78  H38 non d ame     -32.358  17.880  27.251  0.00  0.00     0.036 H 
ATOM     79  H39 non d ame     -31.720  19.361  26.271  0.00  0.00     0.036 H 
ATOM     80  N5  non d ame     -34.184  19.942  27.998  0.00  0.00    -0.049 N 
ATOM     81  H40 non d ame     -32.399  19.060  28.757  0.00  0.00     0.075 H 
ATOM     82  H41 non d ame     -32.180  20.589  27.671  0.00  0.00     0.075 H 
ATOM     83  C28 non d ame     -34.813  19.506  26.576  0.00  0.00     0.193 C 
ATOM     84  H42 non d ame     -34.546  19.327  28.712  0.00  0.00     0.280 HD
ATOM     85  H43 non d ame     -34.278  20.943  28.098  0.00  0.00     0.280 HD
ATOM     86  H44 non d ame     -35.093  20.260  25.840  0.00  0.00     0.129 H 
ATOM     87  H37 non d ame     -33.911  19.491  25.029  0.00  0.00     0.046 H 
BRANCH  83  88
ATOM     88  O6  non d ame     -35.985  18.715  26.779  0.00  0.00    -0.369 OA
ATOM     89  H45 non d ame     -36.555  18.784  26.009  0.00  0.00     0.212 HD
ENDBRANCH  83  88
ENDBRANCH  72  75
ENDBRANCH  47  72
ENDBRANCH  45  47
ENDBRANCH   1  43
BRANCH   1  90
ATOM     90  C16 non d ame     -31.493  14.943  22.331  0.00  0.00    -0.035 C 
ATOM     91  H21 non d ame     -31.665  13.999  21.817  0.00  0.00     0.037 H 
ATOM     92  H22 non d ame     -32.332  15.601  22.558  0.00  0.00     0.037 H 
BRANCH  90  93
ATOM     93  C17 non d ame     -30.519  15.766  21.428  0.00  0.00    -0.059 C 
ATOM     94  H23 non d ame     -30.785  16.818  21.528  0.00  0.00     0.038 H 
BRANCH  93  95
ATOM     95  C18 non d ame     -29.029  15.607  21.871  0.00  0.00    -0.073 C 
ATOM     96  H24 non d ame     -28.374  15.941  21.067  0.00  0.00     0.028 H 
ATOM     97  H25 non d ame     -28.848  16.209  22.761  0.00  0.00     0.028 H 
ATOM     98  H26 non d ame     -28.826  14.559  22.093  0.00  0.00     0.028 H 
ENDBRANCH  93  95
BRANCH  93  99
ATOM     99  C19 non d ame     -30.693  15.391  19.954  0.00  0.00    -0.073 C 
ATOM    100  H27 non d ame     -31.750  15.226  19.743  0.00  0.00     0.028 H 
ATOM    101  H28 non d ame     -30.319  16.200  19.326  0.00  0.00     0.028 H 
ATOM    102  H29 non d ame     -30.133  14.480  19.743  0.00  0.00     0.028 H 
ENDBRANCH  93  99
ENDBRANCH  90  93
ENDBRANCH   1  90
TORSDOF 26
ENDMDL
MODEL 4
REMARK VINA RESULT:      -7.0      3.300      6.614
REMARK  26 active torsions:
REMARK  status: ('A' for Active; 'I' for Inactive)
REMARK    1  A    between atoms: C2_2  and  C3_3 
REMARK    2  A    between atoms: C4_6  and  C5_7 
REMARK       I    between atoms: C5_7  and  N2_9 
REMARK    3  A    between atoms: N2_9  and  C6_10 
REMARK    4  A    between atoms: C6_10  and  C7_11 
REMARK    5  A    between atoms: C6_10  and  C8_13 
REMARK       I    between atoms: C7_11  and  N3_14 
REMARK    6  A    between atoms: N3_14  and  C9_15 
REMARK    7  A    between atoms: C9_15  and  C10_16 
REMARK    8  A    between atoms: C9_15  and  C11_18 
REMARK       I    between atoms: C10_16  and  N4_21 
REMARK    9  A    between atoms: C11_18  and  C12_19 
REMARK   10  A    between atoms: C11_18  and  C13_20 
REMARK   11  A    between atoms: N4_21  and  C14_22 
REMARK   12  A    between atoms: C14_22  and  C15_23 
REMARK   13  A    between atoms: C14_22  and  C16_25 
REMARK       I    between atoms: C15_23  and  N6_40 
REMARK   14  A    between atoms: C16_25  and  C17_26 
REMARK   15  A    between atoms: C17_26  and  C18_27 
REMARK   16  A    between atoms: C17_26  and  C19_28 
REMARK   17  A    between atoms: C20_29  and  C21_30 
REMARK   18  A    between atoms: C20_29  and  C24_33 
REMARK   19  A    between atoms: C20_29  and  N6_40 
REMARK   20  A    between atoms: C21_30  and  C22_31 
REMARK   21  A    between atoms: C22_31  and  C23_32 
REMARK   22  A    between atoms: C23_32  and  O8_43 
REMARK   23  A    between atoms: C24_33  and  C25_34 
REMARK   24  A    between atoms: C28_38  and  O6_39 
REMARK   25  A    between atoms: C29_42  and  O8_43 
REMARK   26  A    between atoms: C29_42  and  C35_49 
ROOT
ATOM      1  C14 non d ame     -32.618  10.446  25.815  0.00  0.00     0.089 C 
ATOM      2  H20 non d ame     -33.523  10.516  25.212  0.00  0.00     0.087 H 
ENDROOT
BRANCH   1   3
ATOM      3  N4  non d ame     -32.107   9.090  25.683  0.00  0.00    -0.346 N 
ATOM      4  C10 non d ame     -32.932   8.028  25.001  0.00  0.00     0.241 C 
ATOM      5  O4  non d ame     -34.006   8.289  24.569  0.00  0.00    -0.271 OA
ATOM      6  H19 non d ame     -31.191   8.888  26.060  0.00  0.00     0.163 HD
BRANCH   4   7
ATOM      7  C9  non d ame     -32.385   6.631  24.868  0.00  0.00     0.092 C 
ATOM      8  H11 non d ame     -31.322   6.638  25.110  0.00  0.00     0.088 H 
BRANCH   7   9
ATOM      9  N3  non d ame     -33.045   5.753  25.839  0.00  0.00    -0.346 N 
ATOM     10  C7  non d ame     -32.691   5.828  27.235  0.00  0.00     0.240 C 
ATOM     11  O3  non d ame     -31.876   6.587  27.594  0.00  0.00    -0.271 OA
ATOM     12  H10 non d ame     -33.749   5.092  25.543  0.00  0.00     0.163 HD
BRANCH  10  13
ATOM     13  C6  non d ame     -33.394   4.888  28.263  0.00  0.00     0.086 C 
ATOM     14  H6  non d ame     -32.789   4.706  29.150  0.00  0.00     0.086 H 
BRANCH  13  15
ATOM     15  N2  non d ame     -34.620   5.523  28.719  0.00  0.00    -0.343 N 
ATOM     16  C5  non d ame     -34.947   5.517  30.147  0.00  0.00     0.273 C 
ATOM     17  O2  non d ame     -34.219   4.997  30.919  0.00  0.00    -0.266 OA
ATOM     18  H5  non d ame     -35.237   5.963  28.052  0.00  0.00     0.163 HD
BRANCH  16  19
ATOM     19  C4  non d ame     -36.238   6.185  30.644  0.00  0.00     0.154 A 
ATOM     20  C1  non d ame     -36.524   7.587  30.690  0.00  0.00    -0.017 A 
ATOM     21  C2  non d ame     -37.830   7.674  31.222  0.00  0.00     0.077 A 
ATOM     22  H1  non d ame     -35.882   8.413  30.385  0.00  0.00     0.091 H 
ATOM     23  O1  non d ame     -38.238   6.460  31.449  0.00  0.00    -0.218 OA
ATOM     24  N1  non d ame     -37.326   5.574  31.120  0.00  0.00    -0.123 NA
BRANCH  21  25
ATOM     25  C3  non d ame     -38.615   8.953  31.480  0.00  0.00    -0.029 C 
ATOM     26  H2  non d ame     -39.222   8.833  32.376  0.00  0.00     0.036 H 
ATOM     27  H3  non d ame     -37.921   9.782  31.620  0.00  0.00     0.036 H 
ATOM     28  H4  non d ame     -39.261   9.161  30.628  0.00  0.00     0.036 H 
ENDBRANCH  21  25
ENDBRANCH  16  19
ENDBRANCH  13  15
BRANCH  13  29
ATOM     29  C8  non d ame     -33.709   3.568  27.608  0.00  0.00    -0.049 C 
ATOM     30  H7  non d ame     -33.879   3.723  26.542  0.00  0.00     0.030 H 
ATOM     31  H8  non d ame     -32.872   2.885  27.746  0.00  0.00     0.030 H 
ATOM     32  H9  non d ame     -34.605   3.142  28.060  0.00  0.00     0.030 H 
ENDBRANCH  13  29
ENDBRANCH  10  13
ENDBRANCH   7   9
BRANCH   7  33
ATOM     33  C11 non d ame     -32.655   6.104  23.428  0.00  0.00    -0.033 C 
ATOM     34  H12 non d ame     -33.465   6.698  23.007  0.00  0.00     0.042 H 
BRANCH  33  35
ATOM     35  C12 non d ame     -31.407   6.294  22.510  0.00  0.00    -0.071 C 
ATOM     36  H13 non d ame     -31.617   5.883  21.522  0.00  0.00     0.028 H 
ATOM     37  H14 non d ame     -31.180   7.356  22.421  0.00  0.00     0.028 H 
ATOM     38  H15 non d ame     -30.554   5.774  22.945  0.00  0.00     0.028 H 
ENDBRANCH  33  35
BRANCH  33  39
ATOM     39  C13 non d ame     -33.115   4.611  23.457  0.00  0.00    -0.071 C 
ATOM     40  H16 non d ame     -33.652   4.379  22.537  0.00  0.00     0.028 H 
ATOM     41  H17 non d ame     -32.242   3.963  23.542  0.00  0.00     0.028 H 
ATOM     42  H18 non d ame     -33.771   4.449  24.312  0.00  0.00     0.028 H 
ENDBRANCH  33  39
ENDBRANCH   7  33
ENDBRANCH   4   7
ENDBRANCH   1   3
BRANCH   1  43
ATOM     43  C15 non d ame     -31.518  11.439  25.341  0.00  0.00     0.240 C 
ATOM     44  O5  non d ame     -30.424  11.039  25.104  0.00  0.00    -0.271 OA
ATOM     45  N6  non d ame     -31.831  12.887  25.173  0.00  0.00    -0.355 N 
ATOM     46  H46 non d ame     -32.758  13.237  25.367  0.00  0.00     0.162 HD
BRANCH  45  47
ATOM     47  C20 non d ame     -30.774  13.817  24.720  0.00  0.00     0.013 C 
ATOM     48  H30 non d ame     -29.816  13.434  25.072  0.00  0.00     0.072 H 
BRANCH  47  49
ATOM     49  C21 non d ame     -31.030  15.187  25.307  0.00  0.00    -0.038 C 
ATOM     50  H31 non d ame     -30.467  15.218  26.240  0.00  0.00     0.036 H 
ATOM     51  H32 non d ame     -30.803  15.895  24.509  0.00  0.00     0.036 H 
BRANCH  49  52
ATOM     52  C22 non d ame     -32.510  15.412  25.682  0.00  0.00     0.018 C 
ATOM     53  H33 non d ame     -32.971  15.870  24.808  0.00  0.00     0.048 H 
ATOM     54  H34 non d ame     -32.872  14.450  26.047  0.00  0.00     0.048 H 
BRANCH  52  55
ATOM     55  C23 non d ame     -32.715  16.417  26.850  0.00  0.00     0.259 C 
ATOM     56  O7  non d ame     -32.852  17.576  26.630  0.00  0.00    -0.265 OA
BRANCH  55  57
ATOM     57  O8  non d ame     -32.724  15.937  28.189  0.00  0.00    -0.317 OA
BRANCH  57  58
ATOM     58  C29 non d ame     -33.440  14.711  28.363  0.00  0.00     0.052 C 
ATOM     59  H47 non d ame     -34.274  14.949  29.025  0.00  0.00     0.082 H 
ATOM     60  H48 non d ame     -33.632  14.335  27.359  0.00  0.00     0.082 H 
BRANCH  58  61
ATOM     61  C35 non d ame     -32.505  13.709  29.092  0.00  0.00    -0.034 A 
ATOM     62  C30 non d ame     -33.003  12.910  30.116  0.00  0.00    -0.075 A 
ATOM     63  C31 non d ame     -32.163  12.010  30.771  0.00  0.00    -0.082 A 
ATOM     64  H49 non d ame     -34.051  12.989  30.406  0.00  0.00     0.084 H 
ATOM     65  C32 non d ame     -30.820  11.913  30.399  0.00  0.00    -0.083 A 
ATOM     66  H50 non d ame     -32.557  11.384  31.572  0.00  0.00     0.083 H 
ATOM     67  C33 non d ame     -30.327  12.715  29.379  0.00  0.00    -0.082 A 
ATOM     68  H51 non d ame     -30.156  11.212  30.906  0.00  0.00     0.083 H 
ATOM     69  C34 non d ame     -31.163  13.614  28.721  0.00  0.00    -0.075 A 
ATOM     70  H52 non d ame     -29.277  12.638  29.093  0.00  0.00     0.083 H 
ATOM     71  H53 non d ame     -30.768  14.240  27.919  0.00  0.00     0.084 H 
ENDBRANCH  58  61
ENDBRANCH  57  58
ENDBRANCH  55  57
ENDBRANCH  52  55
ENDBRANCH  49  52
ENDBRANCH  47  49
BRANCH  47  72
ATOM     72  C24 non d ame     -30.783  13.905  23.195  0.00  0.00    -0.039 C 
ATOM     73  H35 non d ame     -30.150  13.086  22.854  0.00  0.00     0.036 H 
ATOM     74  H36 non d ame     -31.835  13.934  22.913  0.00  0.00     0.036 H 
BRANCH  72  75
ATOM     75  C25 non d ame     -30.117  15.266  22.677  0.00  0.00    -0.001 C 
ATOM     76  C26 non d ame     -31.248  16.193  21.925  0.00  0.00    -0.035 C 
ATOM     77  C27 non d ame     -30.774  16.560  20.710  0.00  0.00     0.085 C 
ATOM     78  H38 non d ame     -32.125  15.592  21.686  0.00  0.00     0.036 H 
ATOM     79  H39 non d ame     -31.364  17.141  22.450  0.00  0.00     0.036 H 
ATOM     80  N5  non d ame     -29.564  15.702  20.430  0.00  0.00    -0.049 N 
ATOM     81  H40 non d ame     -31.563  16.306  20.001  0.00  0.00     0.075 H 
ATOM     82  H41 non d ame     -30.456  17.596  20.822  0.00  0.00     0.075 H 
ATOM     83  C28 non d ame     -29.160  15.030  21.842  0.00  0.00     0.193 C 
ATOM     84  H42 non d ame     -29.870  14.972  19.803  0.00  0.00     0.280 HD
ATOM     85  H43 non d ame     -28.826  16.332  20.151  0.00  0.00     0.280 HD
ATOM     86  H44 non d ame     -28.306  15.402  22.408  0.00  0.00     0.129 H 
ATOM     87  H37 non d ame     -29.511  15.749  23.445  0.00  0.00     0.046 H 
BRANCH  83  88
ATOM     88  O6  non d ame     -28.926  13.631  21.673  0.00  0.00    -0.369 OA
ATOM     89  H45 non d ame     -29.699  13.140  21.960  0.00  0.00     0.212 HD
ENDBRANCH  83  88
ENDBRANCH  72  75
ENDBRANCH  47  72
ENDBRANCH  45  47
ENDBRANCH   1  43
BRANCH   1  90
ATOM     90  C16 non d ame     -32.950  10.711  27.275  0.00  0.00    -0.035 C 
ATOM     91  H21 non d ame     -32.077  10.377  27.835  0.00  0.00     0.037 H 
ATOM     92  H22 non d ame     -33.256  11.757  27.317  0.00  0.00     0.037 H 
BRANCH  90  93
ATOM     93  C17 non d ame     -34.159   9.876  27.804  0.00  0.00    -0.059 C 
ATOM     94  H23 non d ame     -34.420   9.148  27.036  0.00  0.00     0.038 H 
BRANCH  93  95
ATOM     95  C18 non d ame     -33.807   9.089  29.107  0.00  0.00    -0.073 C 
ATOM     96  H24 non d ame     -32.895   9.496  29.542  0.00  0.00     0.028 H 
ATOM     97  H25 non d ame     -34.624   9.184  29.821  0.00  0.00     0.028 H 
ATOM     98  H26 non d ame     -33.656   8.037  28.866  0.00  0.00     0.028 H 
ENDBRANCH  93  95
BRANCH  93  99
ATOM     99  C19 non d ame     -35.385  10.767  28.021  0.00  0.00    -0.073 C 
ATOM    100  H27 non d ame     -35.181  11.477  28.822  0.00  0.00     0.028 H 
ATOM    101  H28 non d ame     -35.608  11.310  27.102  0.00  0.00     0.028 H 
ATOM    102  H29 non d ame     -36.240  10.148  28.292  0.00  0.00     0.028 H 
ENDBRANCH  93  99
ENDBRANCH  90  93
ENDBRANCH   1  90
TORSDOF 26
ENDMDL
MODEL 5
REMARK VINA RESULT:      -6.9      3.383      7.366
REMARK  26 active torsions:
REMARK  status: ('A' for Active; 'I' for Inactive)
REMARK    1  A    between atoms: C2_2  and  C3_3 
REMARK    2  A    between atoms: C4_6  and  C5_7 
REMARK       I    between atoms: C5_7  and  N2_9 
REMARK    3  A    between atoms: N2_9  and  C6_10 
REMARK    4  A    between atoms: C6_10  and  C7_11 
REMARK    5  A    between atoms: C6_10  and  C8_13 
REMARK       I    between atoms: C7_11  and  N3_14 
REMARK    6  A    between atoms: N3_14  and  C9_15 
REMARK    7  A    between atoms: C9_15  and  C10_16 
REMARK    8  A    between atoms: C9_15  and  C11_18 
REMARK       I    between atoms: C10_16  and  N4_21 
REMARK    9  A    between atoms: C11_18  and  C12_19 
REMARK   10  A    between atoms: C11_18  and  C13_20 
REMARK   11  A    between atoms: N4_21  and  C14_22 
REMARK   12  A    between atoms: C14_22  and  C15_23 
REMARK   13  A    between atoms: C14_22  and  C16_25 
REMARK       I    between atoms: C15_23  and  N6_40 
REMARK   14  A    between atoms: C16_25  and  C17_26 
REMARK   15  A    between atoms: C17_26  and  C18_27 
REMARK   16  A    between atoms: C17_26  and  C19_28 
REMARK   17  A    between atoms: C20_29  and  C21_30 
REMARK   18  A    between atoms: C20_29  and  C24_33 
REMARK   19  A    between atoms: C20_29  and  N6_40 
REMARK   20  A    between atoms: C21_30  and  C22_31 
REMARK   21  A    between atoms: C22_31  and  C23_32 
REMARK   22  A    between atoms: C23_32  and  O8_43 
REMARK   23  A    between atoms: C24_33  and  C25_34 
REMARK   24  A    between atoms: C28_38  and  O6_39 
REMARK   25  A    between atoms: C29_42  and  O8_43 
REMARK   26  A    between atoms: C29_42  and  C35_49 
ROOT
ATOM      1  C14 non d ame     -32.964  10.225  25.386  0.00  0.00     0.089 C 
ATOM      2  H20 non d ame     -33.642  10.299  24.535  0.00  0.00     0.087 H 
ENDROOT
BRANCH   1   3
ATOM      3  N4  non d ame     -32.404   8.882  25.385  0.00  0.00    -0.346 N 
ATOM      4  C10 non d ame     -33.174   7.736  24.778  0.00  0.00     0.241 C 
ATOM      5  O4  non d ame     -34.244   7.919  24.299  0.00  0.00    -0.271 OA
ATOM      6  H19 non d ame     -31.493   8.747  25.800  0.00  0.00     0.163 HD
BRANCH   4   7
ATOM      7  C9  non d ame     -32.576   6.354  24.781  0.00  0.00     0.092 C 
ATOM      8  H11 non d ame     -31.506   6.426  24.978  0.00  0.00     0.088 H 
BRANCH   7   9
ATOM      9  N3  non d ame     -33.166   5.568  25.869  0.00  0.00    -0.346 N 
ATOM     10  C7  non d ame     -32.690   5.738  27.220  0.00  0.00     0.240 C 
ATOM     11  O3  non d ame     -31.832   6.501  27.449  0.00  0.00    -0.271 OA
ATOM     12  H10 non d ame     -33.905   4.905  25.686  0.00  0.00     0.163 HD
BRANCH  10  13
ATOM     13  C6  non d ame     -33.319   4.897  28.373  0.00  0.00     0.086 C 
ATOM     14  H6  non d ame     -32.675   4.835  29.250  0.00  0.00     0.086 H 
BRANCH  13  15
ATOM     15  N2  non d ame     -34.550   5.536  28.806  0.00  0.00    -0.343 N 
ATOM     16  C5  non d ame     -34.914   5.517  30.224  0.00  0.00     0.273 C 
ATOM     17  O2  non d ame     -34.210   4.982  31.009  0.00  0.00    -0.266 OA
ATOM     18  H5  non d ame     -35.147   5.989  28.128  0.00  0.00     0.163 HD
BRANCH  16  19
ATOM     19  C4  non d ame     -36.212   6.191  30.696  0.00  0.00     0.154 A 
ATOM     20  C1  non d ame     -36.493   7.593  30.735  0.00  0.00    -0.017 A 
ATOM     21  C2  non d ame     -37.808   7.686  31.242  0.00  0.00     0.077 A 
ATOM     22  H1  non d ame     -35.842   8.417  30.441  0.00  0.00     0.091 H 
ATOM     23  O1  non d ame     -38.225   6.474  31.463  0.00  0.00    -0.218 OA
ATOM     24  N1  non d ame     -37.311   5.584  31.152  0.00  0.00    -0.123 NA
BRANCH  21  25
ATOM     25  C3  non d ame     -38.593   8.969  31.484  0.00  0.00    -0.029 C 
ATOM     26  H2  non d ame     -37.910   9.760  31.793  0.00  0.00     0.036 H 
ATOM     27  H3  non d ame     -39.098   9.264  30.564  0.00  0.00     0.036 H 
ATOM     28  H4  non d ame     -39.333   8.801  32.266  0.00  0.00     0.036 H 
ENDBRANCH  21  25
ENDBRANCH  16  19
ENDBRANCH  13  15
BRANCH  13  29
ATOM     29  C8  non d ame     -33.607   3.501  27.882  0.00  0.00    -0.049 C 
ATOM     30  H7  non d ame     -34.577   3.176  28.258  0.00  0.00     0.030 H 
ATOM     31  H8  non d ame     -33.620   3.495  26.792  0.00  0.00     0.030 H 
ATOM     32  H9  non d ame     -32.833   2.822  28.240  0.00  0.00     0.030 H 
ENDBRANCH  13  29
ENDBRANCH  10  13
ENDBRANCH   7   9
BRANCH   7  33
ATOM     33  C11 non d ame     -32.875   5.657  23.421  0.00  0.00    -0.033 C 
ATOM     34  H12 non d ame     -33.768   6.121  23.003  0.00  0.00     0.042 H 
BRANCH  33  35
ATOM     35  C12 non d ame     -31.713   5.877  22.402  0.00  0.00    -0.071 C 
ATOM     36  H13 non d ame     -30.762   5.899  22.935  0.00  0.00     0.028 H 
ATOM     37  H14 non d ame     -31.705   5.062  21.679  0.00  0.00     0.028 H 
ATOM     38  H15 non d ame     -31.859   6.823  21.882  0.00  0.00     0.028 H 
ENDBRANCH  33  35
BRANCH  33  39
ATOM     39  C13 non d ame     -33.170   4.137  23.624  0.00  0.00    -0.071 C 
ATOM     40  H16 non d ame     -34.038   3.852  23.029  0.00  0.00     0.028 H 
ATOM     41  H17 non d ame     -32.305   3.553  23.309  0.00  0.00     0.028 H 
ATOM     42  H18 non d ame     -33.372   3.943  24.678  0.00  0.00     0.028 H 
ENDBRANCH  33  39
ENDBRANCH   7  33
ENDBRANCH   4   7
ENDBRANCH   1   3
BRANCH   1  43
ATOM     43  C15 non d ame     -31.796  11.249  25.296  0.00  0.00     0.240 C 
ATOM     44  O5  non d ame     -30.712  10.943  25.674  0.00  0.00    -0.271 OA
ATOM     45  N6  non d ame     -32.029  12.609  24.731  0.00  0.00    -0.355 N 
ATOM     46  H46 non d ame     -32.945  12.879  24.403  0.00  0.00     0.162 HD
BRANCH  45  47
ATOM     47  C20 non d ame     -30.908  13.571  24.652  0.00  0.00     0.013 C 
ATOM     48  H30 non d ame     -30.083  13.174  25.243  0.00  0.00     0.072 H 
BRANCH  47  49
ATOM     49  C21 non d ame     -31.352  14.903  25.212  0.00  0.00    -0.038 C 
ATOM     50  H31 non d ame     -30.555  15.606  24.968  0.00  0.00     0.036 H 
ATOM     51  H32 non d ame     -32.358  15.064  24.826  0.00  0.00     0.036 H 
BRANCH  49  52
ATOM     52  C22 non d ame     -31.471  14.896  26.752  0.00  0.00     0.018 C 
ATOM     53  H33 non d ame     -30.938  14.006  27.085  0.00  0.00     0.048 H 
ATOM     54  H34 non d ame     -31.142  15.883  27.078  0.00  0.00     0.048 H 
BRANCH  52  55
ATOM     55  C23 non d ame     -32.929  14.739  27.266  0.00  0.00     0.259 C 
ATOM     56  O7  non d ame     -33.680  13.989  26.731  0.00  0.00    -0.265 OA
BRANCH  55  57
ATOM     57  O8  non d ame     -33.362  15.512  28.379  0.00  0.00    -0.317 OA
BRANCH  57  58
ATOM     58  C29 non d ame     -34.464  16.378  28.093  0.00  0.00     0.052 C 
ATOM     59  H47 non d ame     -35.086  15.838  27.379  0.00  0.00     0.082 H 
ATOM     60  H48 non d ame     -34.871  16.667  29.061  0.00  0.00     0.082 H 
BRANCH  58  61
ATOM     61  C35 non d ame     -33.906  17.648  27.396  0.00  0.00    -0.034 A 
ATOM     62  C30 non d ame     -34.399  18.035  26.154  0.00  0.00    -0.075 A 
ATOM     63  C31 non d ame     -33.898  19.175  25.528  0.00  0.00    -0.082 A 
ATOM     64  H49 non d ame     -35.178  17.444  25.671  0.00  0.00     0.084 H 
ATOM     65  C32 non d ame     -32.898  19.929  26.148  0.00  0.00    -0.083 A 
ATOM     66  H50 non d ame     -34.288  19.477  24.556  0.00  0.00     0.083 H 
ATOM     67  C33 non d ame     -32.406  19.537  27.386  0.00  0.00    -0.082 A 
ATOM     68  H51 non d ame     -32.501  20.822  25.666  0.00  0.00     0.083 H 
ATOM     69  C34 non d ame     -32.905  18.399  28.016  0.00  0.00    -0.075 A 
ATOM     70  H52 non d ame     -31.624  20.125  27.866  0.00  0.00     0.083 H 
ATOM     71  H53 non d ame     -32.515  18.098  28.989  0.00  0.00     0.084 H 
ENDBRANCH  58  61
ENDBRANCH  57  58
ENDBRANCH  55  57
ENDBRANCH  52  55
ENDBRANCH  49  52
ENDBRANCH  47  49
BRANCH  47  72
ATOM     72  C24 non d ame     -30.481  13.747  23.196  0.00  0.00    -0.039 C 
ATOM     73  H35 non d ame     -29.531  13.218  23.106  0.00  0.00     0.036 H 
ATOM     74  H36 non d ame     -31.338  13.431  22.602  0.00  0.00     0.036 H 
BRANCH  72  75
ATOM     75  C25 non d ame     -30.201  15.284  22.842  0.00  0.00    -0.001 C 
ATOM     76  C26 non d ame     -31.285  15.807  21.721  0.00  0.00    -0.035 C 
ATOM     77  C27 non d ame     -30.610  16.389  20.701  0.00  0.00     0.085 C 
ATOM     78  H38 non d ame     -31.775  14.955  21.249  0.00  0.00     0.036 H 
ATOM     79  H39 non d ame     -31.882  16.622  22.130  0.00  0.00     0.036 H 
ATOM     80  N5  non d ame     -29.156  16.021  20.866  0.00  0.00    -0.049 N 
ATOM     81  H40 non d ame     -30.995  15.922  19.794  0.00  0.00     0.075 H 
ATOM     82  H41 non d ame     -30.725  17.462  20.852  0.00  0.00     0.075 H 
ATOM     83  C28 non d ame     -29.011  15.445  22.367  0.00  0.00     0.193 C 
ATOM     84  H42 non d ame     -28.974  15.271  20.214  0.00  0.00     0.280 HD
ATOM     85  H43 non d ame     -28.634  16.884  20.801  0.00  0.00     0.280 HD
ATOM     86  H44 non d ame     -28.565  16.054  23.153  0.00  0.00     0.129 H 
ATOM     87  H37 non d ame     -30.076  15.897  23.735  0.00  0.00     0.046 H 
BRANCH  83  88
ATOM     88  O6  non d ame     -28.265  14.227  22.357  0.00  0.00    -0.369 OA
ATOM     89  H45 non d ame     -27.519  14.313  21.759  0.00  0.00     0.212 HD
ENDBRANCH  83  88
ENDBRANCH  72  75
ENDBRANCH  47  72
ENDBRANCH  45  47
ENDBRANCH   1  43
BRANCH   1  90
ATOM     90  C16 non d ame     -33.735  10.441  26.679  0.00  0.00    -0.035 C 
ATOM     91  H21 non d ame     -33.896  11.516  26.743  0.00  0.00     0.037 H 
ATOM     92  H22 non d ame     -34.587   9.764  26.623  0.00  0.00     0.037 H 
BRANCH  90  93
ATOM     93  C17 non d ame     -32.935  10.038  27.959  0.00  0.00    -0.059 C 
ATOM     94  H23 non d ame     -32.029   9.526  27.636  0.00  0.00     0.038 H 
BRANCH  93  95
ATOM     95  C18 non d ame     -32.505  11.282  28.801  0.00  0.00    -0.073 C 
ATOM     96  H24 non d ame     -33.383  11.723  29.272  0.00  0.00     0.028 H 
ATOM     97  H25 non d ame     -31.797  10.974  29.570  0.00  0.00     0.028 H 
ATOM     98  H26 non d ame     -32.035  12.017  28.148  0.00  0.00     0.028 H 
ENDBRANCH  93  95
BRANCH  93  99
ATOM     99  C19 non d ame     -33.734   9.051  28.815  0.00  0.00    -0.073 C 
ATOM    100  H27 non d ame     -34.227   8.325  28.168  0.00  0.00     0.028 H 
ATOM    101  H28 non d ame     -33.060   8.532  29.496  0.00  0.00     0.028 H 
ATOM    102  H29 non d ame     -34.484   9.594  29.390  0.00  0.00     0.028 H 
ENDBRANCH  93  99
ENDBRANCH  90  93
ENDBRANCH   1  90
TORSDOF 26
ENDMDL
MODEL 6
REMARK VINA RESULT:      -6.8      2.345      5.248
REMARK  26 active torsions:
REMARK  status: ('A' for Active; 'I' for Inactive)
REMARK    1  A    between atoms: C2_2  and  C3_3 
REMARK    2  A    between atoms: C4_6  and  C5_7 
REMARK       I    between atoms: C5_7  and  N2_9 
REMARK    3  A    between atoms: N2_9  and  C6_10 
REMARK    4  A    between atoms: C6_10  and  C7_11 
REMARK    5  A    between atoms: C6_10  and  C8_13 
REMARK       I    between atoms: C7_11  and  N3_14 
REMARK    6  A    between atoms: N3_14  and  C9_15 
REMARK    7  A    between atoms: C9_15  and  C10_16 
REMARK    8  A    between atoms: C9_15  and  C11_18 
REMARK       I    between atoms: C10_16  and  N4_21 
REMARK    9  A    between atoms: C11_18  and  C12_19 
REMARK   10  A    between atoms: C11_18  and  C13_20 
REMARK   11  A    between atoms: N4_21  and  C14_22 
REMARK   12  A    between atoms: C14_22  and  C15_23 
REMARK   13  A    between atoms: C14_22  and  C16_25 
REMARK       I    between atoms: C15_23  and  N6_40 
REMARK   14  A    between atoms: C16_25  and  C17_26 
REMARK   15  A    between atoms: C17_26  and  C18_27 
REMARK   16  A    between atoms: C17_26  and  C19_28 
REMARK   17  A    between atoms: C20_29  and  C21_30 
REMARK   18  A    between atoms: C20_29  and  C24_33 
REMARK   19  A    between atoms: C20_29  and  N6_40 
REMARK   20  A    between atoms: C21_30  and  C22_31 
REMARK   21  A    between atoms: C22_31  and  C23_32 
REMARK   22  A    between atoms: C23_32  and  O8_43 
REMARK   23  A    between atoms: C24_33  and  C25_34 
REMARK   24  A    between atoms: C28_38  and  O6_39 
REMARK   25  A    between atoms: C29_42  and  O8_43 
REMARK   26  A    between atoms: C29_42  and  C35_49 
ROOT
ATOM      1  C14 non d ame     -32.978  10.304  26.392  0.00  0.00     0.089 C 
ATOM      2  H20 non d ame     -33.774  10.650  25.732  0.00  0.00     0.087 H 
ENDROOT
BRANCH   1   3
ATOM      3  N4  non d ame     -32.280   9.226  25.708  0.00  0.00    -0.346 N 
ATOM      4  C10 non d ame     -33.042   8.248  24.850  0.00  0.00     0.241 C 
ATOM      5  O4  non d ame     -34.219   8.348  24.727  0.00  0.00    -0.271 OA
ATOM      6  H19 non d ame     -31.279   9.157  25.828  0.00  0.00     0.163 HD
BRANCH   4   7
ATOM      7  C9  non d ame     -32.303   7.141  24.145  0.00  0.00     0.092 C 
ATOM      8  H11 non d ame     -32.859   6.849  23.254  0.00  0.00     0.088 H 
BRANCH   7   9
ATOM      9  N3  non d ame     -30.996   7.633  23.699  0.00  0.00    -0.346 N 
ATOM     10  C7  non d ame     -30.808   8.034  22.326  0.00  0.00     0.240 C 
ATOM     11  O3  non d ame     -31.696   7.965  21.567  0.00  0.00    -0.271 OA
ATOM     12  H10 non d ame     -30.220   7.696  24.342  0.00  0.00     0.163 HD
BRANCH  10  13
ATOM     13  C6  non d ame     -29.414   8.553  21.856  0.00  0.00     0.086 C 
ATOM     14  H6  non d ame     -29.114   8.144  20.891  0.00  0.00     0.086 H 
BRANCH  13  15
ATOM     15  N2  non d ame     -29.479   9.996  21.693  0.00  0.00    -0.343 N 
ATOM     16  C5  non d ame     -29.921  10.829  22.814  0.00  0.00     0.273 C 
ATOM     17  O2  non d ame     -30.225  10.329  23.840  0.00  0.00    -0.266 OA
ATOM     18  H5  non d ame     -29.220  10.415  20.811  0.00  0.00     0.163 HD
BRANCH  16  19
ATOM     19  C4  non d ame     -29.994  12.356  22.656  0.00  0.00     0.154 A 
ATOM     20  C1  non d ame     -30.732  13.275  23.467  0.00  0.00    -0.017 A 
ATOM     21  C2  non d ame     -30.466  14.546  22.911  0.00  0.00     0.077 A 
ATOM     22  H1  non d ame     -31.364  13.054  24.327  0.00  0.00     0.091 H 
ATOM     23  O1  non d ame     -29.666  14.367  21.901  0.00  0.00    -0.218 OA
ATOM     24  N1  non d ame     -29.376  13.098  21.732  0.00  0.00    -0.123 NA
BRANCH  21  25
ATOM     25  C3  non d ame     -31.013  15.879  23.405  0.00  0.00    -0.029 C 
ATOM     26  H2  non d ame     -30.552  16.691  22.844  0.00  0.00     0.036 H 
ATOM     27  H3  non d ame     -32.093  15.904  23.259  0.00  0.00     0.036 H 
ATOM     28  H4  non d ame     -30.787  15.995  24.465  0.00  0.00     0.036 H 
ENDBRANCH  21  25
ENDBRANCH  16  19
ENDBRANCH  13  15
BRANCH  13  29
ATOM     29  C8  non d ame     -28.369   8.196  22.882  0.00  0.00    -0.049 C 
ATOM     30  H7  non d ame     -28.768   8.367  23.882  0.00  0.00     0.030 H 
ATOM     31  H8  non d ame     -28.098   7.146  22.774  0.00  0.00     0.030 H 
ATOM     32  H9  non d ame     -27.485   8.817  22.733  0.00  0.00     0.030 H 
ENDBRANCH  13  29
ENDBRANCH  10  13
ENDBRANCH   7   9
BRANCH   7  33
ATOM     33  C11 non d ame     -32.098   5.949  25.125  0.00  0.00    -0.033 C 
ATOM     34  H12 non d ame     -31.104   5.541  24.943  0.00  0.00     0.042 H 
BRANCH  33  35
ATOM     35  C12 non d ame     -32.146   6.420  26.612  0.00  0.00    -0.071 C 
ATOM     36  H13 non d ame     -31.419   5.855  27.196  0.00  0.00     0.028 H 
ATOM     37  H14 non d ame     -31.908   7.482  26.664  0.00  0.00     0.028 H 
ATOM     38  H15 non d ame     -33.145   6.251  27.014  0.00  0.00     0.028 H 
ENDBRANCH  33  35
BRANCH  33  39
ATOM     39  C13 non d ame     -33.142   4.818  24.855  0.00  0.00    -0.071 C 
ATOM     40  H16 non d ame     -33.281   4.700  23.780  0.00  0.00     0.028 H 
ATOM     41  H17 non d ame     -32.780   3.881  25.280  0.00  0.00     0.028 H 
ATOM     42  H18 non d ame     -34.092   5.082  25.318  0.00  0.00     0.028 H 
ENDBRANCH  33  39
ENDBRANCH   7  33
ENDBRANCH   4   7
ENDBRANCH   1   3
BRANCH   1  43
ATOM     43  C15 non d ame     -31.954  11.430  26.716  0.00  0.00     0.240 C 
ATOM     44  O5  non d ame     -30.799  11.262  26.490  0.00  0.00    -0.271 OA
ATOM     45  N6  non d ame     -32.415  12.721  27.301  0.00  0.00    -0.355 N 
ATOM     46  H46 non d ame     -33.393  12.878  27.493  0.00  0.00     0.162 HD
BRANCH  45  47
ATOM     47  C20 non d ame     -31.429  13.782  27.602  0.00  0.00     0.013 C 
ATOM     48  H30 non d ame     -30.532  13.582  27.017  0.00  0.00     0.072 H 
BRANCH  47  49
ATOM     49  C21 non d ame     -31.100  13.754  29.078  0.00  0.00    -0.038 C 
ATOM     50  H31 non d ame     -30.202  13.143  29.168  0.00  0.00     0.036 H 
ATOM     51  H32 non d ame     -31.084  14.797  29.395  0.00  0.00     0.036 H 
BRANCH  49  52
ATOM     52  C22 non d ame     -32.189  13.057  29.921  0.00  0.00     0.018 C 
ATOM     53  H33 non d ame     -32.471  13.775  30.691  0.00  0.00     0.048 H 
ATOM     54  H34 non d ame     -32.934  12.703  29.208  0.00  0.00     0.048 H 
BRANCH  52  55
ATOM     55  C23 non d ame     -31.686  11.796  30.676  0.00  0.00     0.259 C 
ATOM     56  O7  non d ame     -30.541  11.689  30.975  0.00  0.00    -0.265 OA
BRANCH  55  57
ATOM     57  O8  non d ame     -32.607  10.760  30.995  0.00  0.00    -0.317 OA
BRANCH  57  58
ATOM     58  C29 non d ame     -33.879  11.232  31.449  0.00  0.00     0.052 C 
ATOM     59  H47 non d ame     -33.730  11.529  32.487  0.00  0.00     0.082 H 
ATOM     60  H48 non d ame     -34.200  11.968  30.712  0.00  0.00     0.082 H 
BRANCH  58  61
ATOM     61  C35 non d ame     -34.872  10.040  31.416  0.00  0.00    -0.034 A 
ATOM     62  C30 non d ame     -34.398   8.743  31.246  0.00  0.00    -0.075 A 
ATOM     63  C31 non d ame     -35.289   7.672  31.216  0.00  0.00    -0.082 A 
ATOM     64  H49 non d ame     -33.328   8.566  31.135  0.00  0.00     0.084 H 
ATOM     65  C32 non d ame     -36.661   7.902  31.355  0.00  0.00    -0.083 A 
ATOM     66  H50 non d ame     -34.915   6.656  31.084  0.00  0.00     0.083 H 
ATOM     67  C33 non d ame     -37.130   9.198  31.521  0.00  0.00    -0.082 A 
ATOM     68  H51 non d ame     -37.365   7.070  31.333  0.00  0.00     0.083 H 
ATOM     69  C34 non d ame     -36.242  10.271  31.553  0.00  0.00    -0.075 A 
ATOM     70  H52 non d ame     -38.201   9.374  31.626  0.00  0.00     0.083 H 
ATOM     71  H53 non d ame     -36.618  11.286  31.685  0.00  0.00     0.084 H 
ENDBRANCH  58  61
ENDBRANCH  57  58
ENDBRANCH  55  57
ENDBRANCH  52  55
ENDBRANCH  49  52
ENDBRANCH  47  49
BRANCH  47  72
ATOM     72  C24 non d ame     -32.010  15.146  27.235  0.00  0.00    -0.039 C 
ATOM     73  H35 non d ame     -31.729  15.811  28.052  0.00  0.00     0.036 H 
ATOM     74  H36 non d ame     -31.658  15.348  26.223  0.00  0.00     0.036 H 
BRANCH  72  75
ATOM     75  C25 non d ame     -33.610  15.114  27.181  0.00  0.00    -0.001 C 
ATOM     76  C26 non d ame     -34.128  15.527  25.676  0.00  0.00    -0.035 C 
ATOM     77  C27 non d ame     -35.055  16.509  25.787  0.00  0.00     0.085 C 
ATOM     78  H38 non d ame     -33.320  16.001  25.119  0.00  0.00     0.036 H 
ATOM     79  H39 non d ame     -34.684  14.701  25.232  0.00  0.00     0.036 H 
ATOM     80  N5  non d ame     -34.978  17.030  27.202  0.00  0.00    -0.049 N 
ATOM     81  H40 non d ame     -34.732  17.292  25.101  0.00  0.00     0.075 H 
ATOM     82  H41 non d ame     -36.017  16.019  25.641  0.00  0.00     0.075 H 
ATOM     83  C28 non d ame     -34.123  15.939  28.031  0.00  0.00     0.193 C 
ATOM     84  H42 non d ame     -34.449  17.889  27.162  0.00  0.00     0.280 HD
ATOM     85  H43 non d ame     -35.924  17.035  27.556  0.00  0.00     0.280 HD
ATOM     86  H44 non d ame     -34.621  15.244  28.707  0.00  0.00     0.129 H 
ATOM     87  H37 non d ame     -34.020  14.200  27.613  0.00  0.00     0.046 H 
BRANCH  83  88
ATOM     88  O6  non d ame     -33.126  16.590  28.819  0.00  0.00    -0.369 OA
ATOM     89  H45 non d ame     -32.427  16.915  28.247  0.00  0.00     0.212 HD
ENDBRANCH  83  88
ENDBRANCH  72  75
ENDBRANCH  47  72
ENDBRANCH  45  47
ENDBRANCH   1  43
BRANCH   1  90
ATOM     90  C16 non d ame     -33.575   9.769  27.683  0.00  0.00    -0.035 C 
ATOM     91  H21 non d ame     -33.443   8.688  27.636  0.00  0.00     0.037 H 
ATOM     92  H22 non d ame     -33.100  10.341  28.480  0.00  0.00     0.037 H 
BRANCH  90  93
ATOM     93  C17 non d ame     -35.111  10.019  27.815  0.00  0.00    -0.059 C 
ATOM     94  H23 non d ame     -35.292  10.456  28.797  0.00  0.00     0.038 H 
BRANCH  93  95
ATOM     95  C18 non d ame     -35.638  11.026  26.742  0.00  0.00    -0.073 C 
ATOM     96  H24 non d ame     -36.708  11.174  26.878  0.00  0.00     0.028 H 
ATOM     97  H25 non d ame     -35.122  11.980  26.855  0.00  0.00     0.028 H 
ATOM     98  H26 non d ame     -35.449  10.627  25.746  0.00  0.00     0.028 H 
ENDBRANCH  93  95
BRANCH  93  99
ATOM     99  C19 non d ame     -35.887   8.701  27.753  0.00  0.00    -0.073 C 
ATOM    100  H27 non d ame     -35.859   8.311  26.735  0.00  0.00     0.028 H 
ATOM    101  H28 non d ame     -35.433   7.979  28.431  0.00  0.00     0.028 H 
ATOM    102  H29 non d ame     -36.922   8.875  28.047  0.00  0.00     0.028 H 
ENDBRANCH  93  99
ENDBRANCH  90  93
ENDBRANCH   1  90
TORSDOF 26
ENDMDL
MODEL 7
REMARK VINA RESULT:      -6.8      2.186      5.788
REMARK  26 active torsions:
REMARK  status: ('A' for Active; 'I' for Inactive)
REMARK    1  A    between atoms: C2_2  and  C3_3 
REMARK    2  A    between atoms: C4_6  and  C5_7 
REMARK       I    between atoms: C5_7  and  N2_9 
REMARK    3  A    between atoms: N2_9  and  C6_10 
REMARK    4  A    between atoms: C6_10  and  C7_11 
REMARK    5  A    between atoms: C6_10  and  C8_13 
REMARK       I    between atoms: C7_11  and  N3_14 
REMARK    6  A    between atoms: N3_14  and  C9_15 
REMARK    7  A    between atoms: C9_15  and  C10_16 
REMARK    8  A    between atoms: C9_15  and  C11_18 
REMARK       I    between atoms: C10_16  and  N4_21 
REMARK    9  A    between atoms: C11_18  and  C12_19 
REMARK   10  A    between atoms: C11_18  and  C13_20 
REMARK   11  A    between atoms: N4_21  and  C14_22 
REMARK   12  A    between atoms: C14_22  and  C15_23 
REMARK   13  A    between atoms: C14_22  and  C16_25 
REMARK       I    between atoms: C15_23  and  N6_40 
REMARK   14  A    between atoms: C16_25  and  C17_26 
REMARK   15  A    between atoms: C17_26  and  C18_27 
REMARK   16  A    between atoms: C17_26  and  C19_28 
REMARK   17  A    between atoms: C20_29  and  C21_30 
REMARK   18  A    between atoms: C20_29  and  C24_33 
REMARK   19  A    between atoms: C20_29  and  N6_40 
REMARK   20  A    between atoms: C21_30  and  C22_31 
REMARK   21  A    between atoms: C22_31  and  C23_32 
REMARK   22  A    between atoms: C23_32  and  O8_43 
REMARK   23  A    between atoms: C24_33  and  C25_34 
REMARK   24  A    between atoms: C28_38  and  O6_39 
REMARK   25  A    between atoms: C29_42  and  O8_43 
REMARK   26  A    between atoms: C29_42  and  C35_49 
ROOT
ATOM      1  C14 non d ame     -30.995  14.144  24.050  0.00  0.00     0.089 C 
ATOM      2  H20 non d ame     -29.962  14.270  24.373  0.00  0.00     0.087 H 
ENDROOT
BRANCH   1   3
ATOM      3  N4  non d ame     -31.349  12.746  24.245  0.00  0.00    -0.346 N 
ATOM      4  C10 non d ame     -30.661  11.668  23.446  0.00  0.00     0.241 C 
ATOM      5  O4  non d ame     -29.829  11.951  22.648  0.00  0.00    -0.271 OA
ATOM      6  H19 non d ame     -32.061  12.527  24.927  0.00  0.00     0.163 HD
BRANCH   4   7
ATOM      7  C9  non d ame     -31.035  10.226  23.665  0.00  0.00     0.092 C 
ATOM      8  H11 non d ame     -30.459   9.829  24.501  0.00  0.00     0.088 H 
BRANCH   7   9
ATOM      9  N3  non d ame     -32.451  10.138  24.034  0.00  0.00    -0.346 N 
ATOM     10  C7  non d ame     -32.824   9.796  25.385  0.00  0.00     0.240 C 
ATOM     11  O3  non d ame     -31.998   9.587  26.187  0.00  0.00    -0.271 OA
ATOM     12  H10 non d ame     -33.176  10.314  23.352  0.00  0.00     0.163 HD
BRANCH  10  13
ATOM     13  C6  non d ame     -34.333   9.702  25.770  0.00  0.00     0.086 C 
ATOM     14  H6  non d ame     -34.764   8.725  25.552  0.00  0.00     0.086 H 
BRANCH  13  15
ATOM     15  N2  non d ame     -34.467   9.905  27.203  0.00  0.00    -0.343 N 
ATOM     16  C5  non d ame     -34.678   8.750  28.079  0.00  0.00     0.273 C 
ATOM     17  O2  non d ame     -34.741   7.662  27.620  0.00  0.00    -0.266 OA
ATOM     18  H5  non d ame     -34.415  10.838  27.586  0.00  0.00     0.163 HD
BRANCH  16  19
ATOM     19  C4  non d ame     -34.819   8.949  29.596  0.00  0.00     0.154 A 
ATOM     20  C1  non d ame     -34.920  10.192  30.299  0.00  0.00    -0.017 A 
ATOM     21  C2  non d ame     -35.031   9.831  31.660  0.00  0.00     0.077 A 
ATOM     22  H1  non d ame     -34.914  11.200  29.885  0.00  0.00     0.091 H 
ATOM     23  O1  non d ame     -34.998   8.532  31.721  0.00  0.00    -0.218 OA
ATOM     24  N1  non d ame     -34.874   7.995  30.529  0.00  0.00    -0.123 NA
BRANCH  21  25
ATOM     25  C3  non d ame     -35.166  10.787  32.838  0.00  0.00    -0.029 C 
ATOM     26  H2  non d ame     -36.221  10.942  33.062  0.00  0.00     0.036 H 
ATOM     27  H3  non d ame     -34.668  10.362  33.709  0.00  0.00     0.036 H 
ATOM     28  H4  non d ame     -34.704  11.742  32.586  0.00  0.00     0.036 H 
ENDBRANCH  21  25
ENDBRANCH  16  19
ENDBRANCH  13  15
BRANCH  13  29
ATOM     29  C8  non d ame     -35.112  10.755  25.024  0.00  0.00    -0.049 C 
ATOM     30  H7  non d ame     -35.654  10.290  24.201  0.00  0.00     0.030 H 
ATOM     31  H8  non d ame     -35.821  11.231  25.702  0.00  0.00     0.030 H 
ATOM     32  H9  non d ame     -34.426  11.505  24.631  0.00  0.00     0.030 H 
ENDBRANCH  13  29
ENDBRANCH  10  13
ENDBRANCH   7   9
BRANCH   7  33
ATOM     33  C11 non d ame     -30.793   9.422  22.354  0.00  0.00    -0.033 C 
ATOM     34  H12 non d ame     -30.713  10.140  21.538  0.00  0.00     0.042 H 
BRANCH  33  35
ATOM     35  C12 non d ame     -29.450   8.629  22.413  0.00  0.00    -0.071 C 
ATOM     36  H13 non d ame     -28.649   9.240  21.997  0.00  0.00     0.028 H 
ATOM     37  H14 non d ame     -29.219   8.383  23.449  0.00  0.00     0.028 H 
ATOM     38  H15 non d ame     -29.545   7.711  21.834  0.00  0.00     0.028 H 
ENDBRANCH  33  35
BRANCH  33  39
ATOM     39  C13 non d ame     -31.997   8.474  22.048  0.00  0.00    -0.071 C 
ATOM     40  H16 non d ame     -31.762   7.857  21.181  0.00  0.00     0.028 H 
ATOM     41  H17 non d ame     -32.184   7.834  22.911  0.00  0.00     0.028 H 
ATOM     42  H18 non d ame     -32.885   9.071  21.841  0.00  0.00     0.028 H 
ENDBRANCH  33  39
ENDBRANCH   7  33
ENDBRANCH   4   7
ENDBRANCH   1   3
BRANCH   1  43
ATOM     43  C15 non d ame     -31.980  15.024  24.873  0.00  0.00     0.240 C 
ATOM     44  O5  non d ame     -32.932  15.499  24.344  0.00  0.00    -0.271 OA
ATOM     45  N6  non d ame     -31.740  15.267  26.324  0.00  0.00    -0.355 N 
ATOM     46  H46 non d ame     -30.937  14.864  26.786  0.00  0.00     0.162 HD
BRANCH  45  47
ATOM     47  C20 non d ame     -32.686  16.104  27.093  0.00  0.00     0.013 C 
ATOM     48  H30 non d ame     -33.688  15.920  26.705  0.00  0.00     0.072 H 
BRANCH  47  49
ATOM     49  C21 non d ame     -32.322  17.561  26.916  0.00  0.00    -0.038 C 
ATOM     50  H31 non d ame     -31.242  17.578  26.764  0.00  0.00     0.036 H 
ATOM     51  H32 non d ame     -32.988  17.938  26.140  0.00  0.00     0.036 H 
BRANCH  49  52
ATOM     52  C22 non d ame     -32.598  18.405  28.179  0.00  0.00     0.018 C 
ATOM     53  H33 non d ame     -33.122  17.743  28.868  0.00  0.00     0.048 H 
ATOM     54  H34 non d ame     -31.638  18.837  28.461  0.00  0.00     0.048 H 
BRANCH  52  55
ATOM     55  C23 non d ame     -33.552  19.607  27.932  0.00  0.00     0.259 C 
ATOM     56  O7  non d ame     -33.225  20.501  27.220  0.00  0.00    -0.265 OA
BRANCH  55  57
ATOM     57  O8  non d ame     -34.820  19.634  28.577  0.00  0.00    -0.317 OA
BRANCH  57  58
ATOM     58  C29 non d ame     -35.930  19.674  27.676  0.00  0.00     0.052 C 
ATOM     59  H47 non d ame     -36.811  19.822  28.301  0.00  0.00     0.082 H 
ATOM     60  H48 non d ame     -35.669  20.412  26.918  0.00  0.00     0.082 H 
BRANCH  58  61
ATOM     61  C35 non d ame     -36.042  18.285  26.992  0.00  0.00    -0.034 A 
ATOM     62  C30 non d ame     -35.999  18.187  25.605  0.00  0.00    -0.075 A 
ATOM     63  C31 non d ame     -36.100  16.940  24.990  0.00  0.00    -0.082 A 
ATOM     64  H49 non d ame     -35.888  19.086  25.000  0.00  0.00     0.084 H 
ATOM     65  C32 non d ame     -36.247  15.788  25.768  0.00  0.00    -0.083 A 
ATOM     66  H50 non d ame     -36.065  16.865  23.903  0.00  0.00     0.083 H 
ATOM     67  C33 non d ame     -36.292  15.892  27.152  0.00  0.00    -0.082 A 
ATOM     68  H51 non d ame     -36.325  14.809  25.296  0.00  0.00     0.083 H 
ATOM     69  C34 non d ame     -36.190  17.136  27.771  0.00  0.00    -0.075 A 
ATOM     70  H52 non d ame     -36.409  14.991  27.756  0.00  0.00     0.083 H 
ATOM     71  H53 non d ame     -36.225  17.209  28.858  0.00  0.00     0.084 H 
ENDBRANCH  58  61
ENDBRANCH  57  58
ENDBRANCH  55  57
ENDBRANCH  52  55
ENDBRANCH  49  52
ENDBRANCH  47  49
BRANCH  47  72
ATOM     72  C24 non d ame     -32.614  15.737  28.574  0.00  0.00    -0.039 C 
ATOM     73  H35 non d ame     -32.232  16.626  29.075  0.00  0.00     0.036 H 
ATOM     74  H36 non d ame     -33.602  15.351  28.825  0.00  0.00     0.036 H 
BRANCH  72  75
ATOM     75  C25 non d ame     -31.565  14.556  28.842  0.00  0.00    -0.001 C 
ATOM     76  C26 non d ame     -32.366  13.157  29.163  0.00  0.00    -0.035 C 
ATOM     77  C27 non d ame     -31.877  12.627  30.310  0.00  0.00     0.085 C 
ATOM     78  H38 non d ame     -33.407  13.369  29.404  0.00  0.00     0.036 H 
ATOM     79  H39 non d ame     -32.122  12.405  28.412  0.00  0.00     0.036 H 
ATOM     80  N5  non d ame     -31.046  13.700  30.972  0.00  0.00    -0.049 N 
ATOM     81  H40 non d ame     -32.749  12.419  30.929  0.00  0.00     0.075 H 
ATOM     82  H41 non d ame     -31.223  11.813  29.999  0.00  0.00     0.075 H 
ATOM     83  C28 non d ame     -30.800  14.830  29.846  0.00  0.00     0.193 C 
ATOM     84  H42 non d ame     -31.619  14.095  31.704  0.00  0.00     0.280 HD
ATOM     85  H43 non d ame     -30.159  13.274  31.200  0.00  0.00     0.280 HD
ATOM     86  H44 non d ame     -29.835  14.910  29.344  0.00  0.00     0.129 H 
ATOM     87  H37 non d ame     -30.784  14.518  28.082  0.00  0.00     0.046 H 
BRANCH  83  88
ATOM     88  O6  non d ame     -31.060  16.127  30.384  0.00  0.00    -0.369 OA
ATOM     89  H45 non d ame     -30.333  16.390  30.953  0.00  0.00     0.212 HD
ENDBRANCH  83  88
ENDBRANCH  72  75
ENDBRANCH  47  72
ENDBRANCH  45  47
ENDBRANCH   1  43
BRANCH   1  90
ATOM     90  C16 non d ame     -31.118  14.485  22.573  0.00  0.00    -0.035 C 
ATOM     91  H21 non d ame     -30.842  13.574  22.043  0.00  0.00     0.037 H 
ATOM     92  H22 non d ame     -32.118  14.903  22.455  0.00  0.00     0.037 H 
BRANCH  90  93
ATOM     93  C17 non d ame     -30.120  15.590  22.100  0.00  0.00    -0.059 C 
ATOM     94  H23 non d ame     -30.359  16.505  22.642  0.00  0.00     0.038 H 
BRANCH  93  95
ATOM     95  C18 non d ame     -28.636  15.220  22.420  0.00  0.00    -0.073 C 
ATOM     96  H24 non d ame     -28.030  16.125  22.432  0.00  0.00     0.028 H 
ATOM     97  H25 non d ame     -28.584  14.735  23.394  0.00  0.00     0.028 H 
ATOM     98  H26 non d ame     -28.259  14.541  21.656  0.00  0.00     0.028 H 
ENDBRANCH  93  95
BRANCH  93  99
ATOM     99  C19 non d ame     -30.299  15.885  20.609  0.00  0.00    -0.073 C 
ATOM    100  H27 non d ame     -29.681  16.739  20.330  0.00  0.00     0.028 H 
ATOM    101  H28 non d ame     -29.997  15.014  20.026  0.00  0.00     0.028 H 
ATOM    102  H29 non d ame     -31.345  16.112  20.406  0.00  0.00     0.028 H 
ENDBRANCH  93  99
ENDBRANCH  90  93
ENDBRANCH   1  90
TORSDOF 26
ENDMDL
MODEL 8
REMARK VINA RESULT:      -6.8      2.319      6.058
REMARK  26 active torsions:
REMARK  status: ('A' for Active; 'I' for Inactive)
REMARK    1  A    between atoms: C2_2  and  C3_3 
REMARK    2  A    between atoms: C4_6  and  C5_7 
REMARK       I    between atoms: C5_7  and  N2_9 
REMARK    3  A    between atoms: N2_9  and  C6_10 
REMARK    4  A    between atoms: C6_10  and  C7_11 
REMARK    5  A    between atoms: C6_10  and  C8_13 
REMARK       I    between atoms: C7_11  and  N3_14 
REMARK    6  A    between atoms: N3_14  and  C9_15 
REMARK    7  A    between atoms: C9_15  and  C10_16 
REMARK    8  A    between atoms: C9_15  and  C11_18 
REMARK       I    between atoms: C10_16  and  N4_21 
REMARK    9  A    between atoms: C11_18  and  C12_19 
REMARK   10  A    between atoms: C11_18  and  C13_20 
REMARK   11  A    between atoms: N4_21  and  C14_22 
REMARK   12  A    between atoms: C14_22  and  C15_23 
REMARK   13  A    between atoms: C14_22  and  C16_25 
REMARK       I    between atoms: C15_23  and  N6_40 
REMARK   14  A    between atoms: C16_25  and  C17_26 
REMARK   15  A    between atoms: C17_26  and  C18_27 
REMARK   16  A    between atoms: C17_26  and  C19_28 
REMARK   17  A    between atoms: C20_29  and  C21_30 
REMARK   18  A    between atoms: C20_29  and  C24_33 
REMARK   19  A    between atoms: C20_29  and  N6_40 
REMARK   20  A    between atoms: C21_30  and  C22_31 
REMARK   21  A    between atoms: C22_31  and  C23_32 
REMARK   22  A    between atoms: C23_32  and  O8_43 
REMARK   23  A    between atoms: C24_33  and  C25_34 
REMARK   24  A    between atoms: C28_38  and  O6_39 
REMARK   25  A    between atoms: C29_42  and  O8_43 
REMARK   26  A    between atoms: C29_42  and  C35_49 
ROOT
ATOM      1  C14 non d ame     -31.060  14.389  23.943  0.00  0.00     0.089 C 
ATOM      2  H20 non d ame     -30.033  14.662  24.187  0.00  0.00     0.087 H 
ENDROOT
BRANCH   1   3
ATOM      3  N4  non d ame     -31.215  12.970  24.228  0.00  0.00    -0.346 N 
ATOM      4  C10 non d ame     -30.482  11.943  23.402  0.00  0.00     0.241 C 
ATOM      5  O4  non d ame     -29.775  12.282  22.512  0.00  0.00    -0.271 OA
ATOM      6  H19 non d ame     -31.823  12.702  24.988  0.00  0.00     0.163 HD
BRANCH   4   7
ATOM      7  C9  non d ame     -30.650  10.479  23.715  0.00  0.00     0.092 C 
ATOM      8  H11 non d ame     -29.956  10.200  24.507  0.00  0.00     0.088 H 
BRANCH   7   9
ATOM      9  N3  non d ame     -32.005  10.240  24.222  0.00  0.00    -0.346 N 
ATOM     10  C7  non d ame     -32.254  10.246  25.642  0.00  0.00     0.240 C 
ATOM     11  O3  non d ame     -31.376  10.440  26.392  0.00  0.00    -0.271 OA
ATOM     12  H10 non d ame     -32.772  10.069  23.588  0.00  0.00     0.163 HD
BRANCH  10  13
ATOM     13  C6  non d ame     -33.697   9.987  26.176  0.00  0.00     0.086 C 
ATOM     14  H6  non d ame     -33.720   9.773  27.244  0.00  0.00     0.086 H 
BRANCH  13  15
ATOM     15  N2  non d ame     -34.496  11.185  25.975  0.00  0.00    -0.343 N 
ATOM     16  C5  non d ame     -35.260  11.739  27.095  0.00  0.00     0.273 C 
ATOM     17  O2  non d ame     -35.228  11.212  28.152  0.00  0.00    -0.266 OA
ATOM     18  H5  non d ame     -34.519  11.627  25.067  0.00  0.00     0.163 HD
BRANCH  16  19
ATOM     19  C4  non d ame     -36.107  13.005  26.897  0.00  0.00     0.154 A 
ATOM     20  C1  non d ame     -35.637  14.321  26.587  0.00  0.00    -0.017 A 
ATOM     21  C2  non d ame     -36.803  15.115  26.511  0.00  0.00     0.077 A 
ATOM     22  H1  non d ame     -34.608  14.648  26.440  0.00  0.00     0.091 H 
ATOM     23  O1  non d ame     -37.818  14.337  26.749  0.00  0.00    -0.218 OA
ATOM     24  N1  non d ame     -37.437  13.101  26.977  0.00  0.00    -0.123 NA
BRANCH  21  25
ATOM     25  C3  non d ame     -36.859  16.606  26.206  0.00  0.00    -0.029 C 
ATOM     26  H2  non d ame     -37.294  17.135  27.054  0.00  0.00     0.036 H 
ATOM     27  H3  non d ame     -35.851  16.978  26.025  0.00  0.00     0.036 H 
ATOM     28  H4  non d ame     -37.472  16.773  25.320  0.00  0.00     0.036 H 
ENDBRANCH  21  25
ENDBRANCH  16  19
ENDBRANCH  13  15
BRANCH  13  29
ATOM     29  C8  non d ame     -34.310   8.827  25.434  0.00  0.00    -0.049 C 
ATOM     30  H7  non d ame     -35.273   8.578  25.879  0.00  0.00     0.030 H 
ATOM     31  H8  non d ame     -34.453   9.099  24.388  0.00  0.00     0.030 H 
ATOM     32  H9  non d ame     -33.647   7.964  25.497  0.00  0.00     0.030 H 
ENDBRANCH  13  29
ENDBRANCH  10  13
ENDBRANCH   7   9
BRANCH   7  33
ATOM     33  C11 non d ame     -30.428   9.644  22.420  0.00  0.00    -0.033 C 
ATOM     34  H12 non d ame     -30.355  10.342  21.587  0.00  0.00     0.042 H 
BRANCH  33  35
ATOM     35  C12 non d ame     -29.089   8.845  22.481  0.00  0.00    -0.071 C 
ATOM     36  H13 non d ame     -29.282   7.795  22.262  0.00  0.00     0.028 H 
ATOM     37  H14 non d ame     -28.392   9.248  21.747  0.00  0.00     0.028 H 
ATOM     38  H15 non d ame     -28.658   8.934  23.479  0.00  0.00     0.028 H 
ENDBRANCH  33  35
BRANCH  33  39
ATOM     39  C13 non d ame     -31.641   8.696  22.152  0.00  0.00    -0.071 C 
ATOM     40  H16 non d ame     -32.047   8.347  23.101  0.00  0.00     0.028 H 
ATOM     41  H17 non d ame     -32.412   9.239  21.604  0.00  0.00     0.028 H 
ATOM     42  H18 non d ame     -31.311   7.842  21.561  0.00  0.00     0.028 H 
ENDBRANCH  33  39
ENDBRANCH   7  33
ENDBRANCH   4   7
ENDBRANCH   1   3
BRANCH   1  43
ATOM     43  C15 non d ame     -32.095  15.181  24.791  0.00  0.00     0.240 C 
ATOM     44  O5  non d ame     -33.157  15.449  24.329  0.00  0.00    -0.271 OA
ATOM     45  N6  non d ame     -31.767  15.598  26.184  0.00  0.00    -0.355 N 
ATOM     46  H46 non d ame     -30.871  15.371  26.590  0.00  0.00     0.162 HD
BRANCH  45  47
ATOM     47  C20 non d ame     -32.763  16.349  26.979  0.00  0.00     0.013 C 
ATOM     48  H30 non d ame     -33.743  16.185  26.529  0.00  0.00     0.072 H 
BRANCH  47  49
ATOM     49  C21 non d ame     -32.420  17.821  26.947  0.00  0.00    -0.038 C 
ATOM     50  H31 non d ame     -32.436  18.150  27.987  0.00  0.00     0.036 H 
ATOM     51  H32 non d ame     -31.501  17.896  26.365  0.00  0.00     0.036 H 
BRANCH  49  52
ATOM     52  C22 non d ame     -33.477  18.667  26.205  0.00  0.00     0.018 C 
ATOM     53  H33 non d ame     -32.921  19.453  25.695  0.00  0.00     0.048 H 
ATOM     54  H34 non d ame     -34.072  17.958  25.629  0.00  0.00     0.048 H 
BRANCH  52  55
ATOM     55  C23 non d ame     -34.474  19.394  27.151  0.00  0.00     0.259 C 
ATOM     56  O7  non d ame     -34.586  19.055  28.284  0.00  0.00    -0.265 OA
BRANCH  55  57
ATOM     57  O8  non d ame     -35.263  20.463  26.643  0.00  0.00    -0.317 OA
BRANCH  57  58
ATOM     58  C29 non d ame     -36.672  20.274  26.802  0.00  0.00     0.052 C 
ATOM     59  H47 non d ame     -36.793  19.253  27.167  0.00  0.00     0.082 H 
ATOM     60  H48 non d ame     -37.015  21.112  27.407  0.00  0.00     0.082 H 
BRANCH  58  61
ATOM     61  C35 non d ame     -37.331  20.377  25.401  0.00  0.00    -0.034 A 
ATOM     62  C30 non d ame     -38.623  20.875  25.274  0.00  0.00    -0.075 A 
ATOM     63  C31 non d ame     -39.216  20.968  24.016  0.00  0.00    -0.082 A 
ATOM     64  H49 non d ame     -39.173  21.193  26.161  0.00  0.00     0.084 H 
ATOM     65  C32 non d ame     -38.511  20.556  22.881  0.00  0.00    -0.083 A 
ATOM     66  H50 non d ame     -40.228  21.360  23.919  0.00  0.00     0.083 H 
ATOM     67  C33 non d ame     -37.223  20.056  23.013  0.00  0.00    -0.082 A 
ATOM     68  H51 non d ame     -38.966  20.626  21.893  0.00  0.00     0.083 H 
ATOM     69  C34 non d ame     -36.626  19.964  24.269  0.00  0.00    -0.075 A 
ATOM     70  H52 non d ame     -36.676  19.734  22.126  0.00  0.00     0.083 H 
ATOM     71  H53 non d ame     -35.613  19.572  24.364  0.00  0.00     0.084 H 
ENDBRANCH  58  61
ENDBRANCH  57  58
ENDBRANCH  55  57
ENDBRANCH  52  55
ENDBRANCH  49  52
ENDBRANCH  47  49
BRANCH  47  72
ATOM     72  C24 non d ame     -32.753  15.853  28.423  0.00  0.00    -0.039 C 
ATOM     73  H35 non d ame     -32.533  16.732  29.030  0.00  0.00     0.036 H 
ATOM     74  H36 non d ame     -33.696  15.323  28.555  0.00  0.00     0.036 H 
BRANCH  72  75
ATOM     75  C25 non d ame     -31.576  14.797  28.678  0.00  0.00    -0.001 C 
ATOM     76  C26 non d ame     -32.204  13.283  28.821  0.00  0.00    -0.035 C 
ATOM     77  C27 non d ame     -31.728  12.719  29.957  0.00  0.00     0.085 C 
ATOM     78  H38 non d ame     -33.278  13.339  28.995  0.00  0.00     0.036 H 
ATOM     79  H39 non d ame     -31.811  12.640  28.034  0.00  0.00     0.036 H 
ATOM     80  N5  non d ame     -31.095  13.825  30.768  0.00  0.00    -0.049 N 
ATOM     81  H40 non d ame     -32.605  12.348  30.487  0.00  0.00     0.075 H 
ATOM     82  H41 non d ame     -30.952  12.026  29.635  0.00  0.00     0.075 H 
ATOM     83  C28 non d ame     -30.925  15.073  29.759  0.00  0.00     0.193 C 
ATOM     84  H42 non d ame     -31.765  14.076  31.481  0.00  0.00     0.280 HD
ATOM     85  H43 non d ame     -30.177  13.496  31.030  0.00  0.00     0.280 HD
ATOM     86  H44 non d ame     -29.948  15.321  29.343  0.00  0.00     0.129 H 
ATOM     87  H37 non d ame     -30.747  14.926  27.982  0.00  0.00     0.046 H 
BRANCH  83  88
ATOM     88  O6  non d ame     -31.392  16.274  30.377  0.00  0.00    -0.369 OA
ATOM     89  H45 non d ame     -32.136  16.622  29.879  0.00  0.00     0.212 HD
ENDBRANCH  83  88
ENDBRANCH  72  75
ENDBRANCH  47  72
ENDBRANCH  45  47
ENDBRANCH   1  43
BRANCH   1  90
ATOM     90  C16 non d ame     -31.319  14.629  22.464  0.00  0.00    -0.035 C 
ATOM     91  H21 non d ame     -31.115  13.677  21.977  0.00  0.00     0.037 H 
ATOM     92  H22 non d ame     -32.317  15.065  22.413  0.00  0.00     0.037 H 
BRANCH  90  93
ATOM     93  C17 non d ame     -30.350  15.671  21.819  0.00  0.00    -0.059 C 
ATOM     94  H23 non d ame     -30.666  16.662  22.144  0.00  0.00     0.038 H 
BRANCH  93  95
ATOM     95  C18 non d ame     -28.872  15.467  22.283  0.00  0.00    -0.073 C 
ATOM     96  H24 non d ame     -28.778  14.504  22.784  0.00  0.00     0.028 H 
ATOM     97  H25 non d ame     -28.212  15.490  21.416  0.00  0.00     0.028 H 
ATOM     98  H26 non d ame     -28.594  16.264  22.972  0.00  0.00     0.028 H 
ENDBRANCH  93  95
BRANCH  93  99
ATOM     99  C19 non d ame     -30.451  15.639  20.292  0.00  0.00    -0.073 C 
ATOM    100  H27 non d ame     -29.522  15.249  19.874  0.00  0.00     0.028 H 
ATOM    101  H28 non d ame     -31.280  14.996  19.996  0.00  0.00     0.028 H 
ATOM    102  H29 non d ame     -30.623  16.648  19.918  0.00  0.00     0.028 H 
ENDBRANCH  93  99
ENDBRANCH  90  93
ENDBRANCH   1  90
TORSDOF 26
ENDMDL
MODEL 9
REMARK VINA RESULT:      -6.7      2.459      7.936
REMARK  26 active torsions:
REMARK  status: ('A' for Active; 'I' for Inactive)
REMARK    1  A    between atoms: C2_2  and  C3_3 
REMARK    2  A    between atoms: C4_6  and  C5_7 
REMARK       I    between atoms: C5_7  and  N2_9 
REMARK    3  A    between atoms: N2_9  and  C6_10 
REMARK    4  A    between atoms: C6_10  and  C7_11 
REMARK    5  A    between atoms: C6_10  and  C8_13 
REMARK       I    between atoms: C7_11  and  N3_14 
REMARK    6  A    between atoms: N3_14  and  C9_15 
REMARK    7  A    between atoms: C9_15  and  C10_16 
REMARK    8  A    between atoms: C9_15  and  C11_18 
REMARK       I    between atoms: C10_16  and  N4_21 
REMARK    9  A    between atoms: C11_18  and  C12_19 
REMARK   10  A    between atoms: C11_18  and  C13_20 
REMARK   11  A    between atoms: N4_21  and  C14_22 
REMARK   12  A    between atoms: C14_22  and  C15_23 
REMARK   13  A    between atoms: C14_22  and  C16_25 
REMARK       I    between atoms: C15_23  and  N6_40 
REMARK   14  A    between atoms: C16_25  and  C17_26 
REMARK   15  A    between atoms: C17_26  and  C18_27 
REMARK   16  A    between atoms: C17_26  and  C19_28 
REMARK   17  A    between atoms: C20_29  and  C21_30 
REMARK   18  A    between atoms: C20_29  and  C24_33 
REMARK   19  A    between atoms: C20_29  and  N6_40 
REMARK   20  A    between atoms: C21_30  and  C22_31 
REMARK   21  A    between atoms: C22_31  and  C23_32 
REMARK   22  A    between atoms: C23_32  and  O8_43 
REMARK   23  A    between atoms: C24_33  and  C25_34 
REMARK   24  A    between atoms: C28_38  and  O6_39 
REMARK   25  A    between atoms: C29_42  and  O8_43 
REMARK   26  A    between atoms: C29_42  and  C35_49 
ROOT
ATOM      1  C14 non d ame     -36.571  16.055  26.591  0.00  0.00     0.089 C 
ATOM      2  H20 non d ame     -37.128  16.580  27.368  0.00  0.00     0.087 H 
ENDROOT
BRANCH   1   3
ATOM      3  N4  non d ame     -35.154  16.230  26.875  0.00  0.00    -0.346 N 
ATOM      4  C10 non d ame     -34.703  17.222  27.917  0.00  0.00     0.241 C 
ATOM      5  O4  non d ame     -35.498  17.871  28.512  0.00  0.00    -0.271 OA
ATOM      6  H19 non d ame     -34.493  15.670  26.355  0.00  0.00     0.163 HD
BRANCH   4   7
ATOM      7  C9  non d ame     -33.233  17.385  28.202  0.00  0.00     0.092 C 
ATOM      8  H11 non d ame     -33.107  17.937  29.134  0.00  0.00     0.088 H 
BRANCH   7   9
ATOM      9  N3  non d ame     -32.622  16.066  28.393  0.00  0.00    -0.346 N 
ATOM     10  C7  non d ame     -31.755  15.831  29.521  0.00  0.00     0.240 C 
ATOM     11  O3  non d ame     -31.537  16.691  30.284  0.00  0.00    -0.271 OA
ATOM     12  H10 non d ame     -32.799  15.315  27.742  0.00  0.00     0.163 HD
BRANCH  10  13
ATOM     13  C6  non d ame     -31.105  14.426  29.717  0.00  0.00     0.086 C 
ATOM     14  H6  non d ame     -30.480  14.371  30.608  0.00  0.00     0.086 H 
BRANCH  13  15
ATOM     15  N2  non d ame     -32.159  13.439  29.887  0.00  0.00    -0.343 N 
ATOM     16  C5  non d ame     -31.875  12.199  30.613  0.00  0.00     0.273 C 
ATOM     17  O2  non d ame     -30.796  12.003  31.053  0.00  0.00    -0.266 OA
ATOM     18  H5  non d ame     -33.077  13.613  29.505  0.00  0.00     0.163 HD
BRANCH  16  19
ATOM     19  C4  non d ame     -32.980  11.147  30.801  0.00  0.00     0.154 A 
ATOM     20  C1  non d ame     -33.352  10.111  29.887  0.00  0.00    -0.017 A 
ATOM     21  C2  non d ame     -34.408   9.424  30.527  0.00  0.00     0.077 A 
ATOM     22  H1  non d ame     -32.921   9.890  28.910  0.00  0.00     0.091 H 
ATOM     23  O1  non d ame     -34.610  10.006  31.673  0.00  0.00    -0.218 OA
ATOM     24  N1  non d ame     -33.789  11.014  31.856  0.00  0.00    -0.123 NA
BRANCH  21  25
ATOM     25  C3  non d ame     -35.169   8.226  29.976  0.00  0.00    -0.029 C 
ATOM     26  H2  non d ame     -36.108   8.561  29.536  0.00  0.00     0.036 H 
ATOM     27  H3  non d ame     -34.566   7.733  29.212  0.00  0.00     0.036 H 
ATOM     28  H4  non d ame     -35.376   7.524  30.783  0.00  0.00     0.036 H 
ENDBRANCH  21  25
ENDBRANCH  16  19
ENDBRANCH  13  15
BRANCH  13  29
ATOM     29  C8  non d ame     -30.267  14.084  28.512  0.00  0.00    -0.049 C 
ATOM     30  H7  non d ame     -30.760  13.301  27.936  0.00  0.00     0.030 H 
ATOM     31  H8  non d ame     -30.146  14.971  27.891  0.00  0.00     0.030 H 
ATOM     32  H9  non d ame     -29.288  13.732  28.838  0.00  0.00     0.030 H 
ENDBRANCH  13  29
ENDBRANCH  10  13
ENDBRANCH   7   9
BRANCH   7  33
ATOM     33  C11 non d ame     -32.548  18.102  27.001  0.00  0.00    -0.033 C 
ATOM     34  H12 non d ame     -31.498  18.239  27.256  0.00  0.00     0.042 H 
BRANCH  33  35
ATOM     35  C12 non d ame     -32.607  17.228  25.709  0.00  0.00    -0.071 C 
ATOM     36  H13 non d ame     -32.490  16.178  25.975  0.00  0.00     0.028 H 
ATOM     37  H14 non d ame     -33.568  17.373  25.216  0.00  0.00     0.028 H 
ATOM     38  H15 non d ame     -31.804  17.523  25.034  0.00  0.00     0.028 H 
ENDBRANCH  33  35
BRANCH  33  39
ATOM     39  C13 non d ame     -33.176  19.512  26.760  0.00  0.00    -0.071 C 
ATOM     40  H16 non d ame     -32.546  20.077  26.072  0.00  0.00     0.028 H 
ATOM     41  H17 non d ame     -34.172  19.399  26.332  0.00  0.00     0.028 H 
ATOM     42  H18 non d ame     -33.247  20.045  27.708  0.00  0.00     0.028 H 
ENDBRANCH  33  39
ENDBRANCH   7  33
ENDBRANCH   4   7
ENDBRANCH   1   3
BRANCH   1  43
ATOM     43  C15 non d ame     -36.888  14.532  26.568  0.00  0.00     0.240 C 
ATOM     44  O5  non d ame     -37.974  14.150  26.861  0.00  0.00    -0.271 OA
ATOM     45  N6  non d ame     -35.838  13.551  26.172  0.00  0.00    -0.355 N 
ATOM     46  H46 non d ame     -34.913  13.864  25.916  0.00  0.00     0.162 HD
BRANCH  45  47
ATOM     47  C20 non d ame     -36.155  12.106  26.153  0.00  0.00     0.013 C 
ATOM     48  H30 non d ame     -37.078  11.958  26.713  0.00  0.00     0.072 H 
BRANCH  47  49
ATOM     49  C21 non d ame     -35.027  11.339  26.804  0.00  0.00    -0.038 C 
ATOM     50  H31 non d ame     -34.741  11.921  27.680  0.00  0.00     0.036 H 
ATOM     51  H32 non d ame     -35.395  10.319  26.923  0.00  0.00     0.036 H 
BRANCH  49  52
ATOM     52  C22 non d ame     -33.770  11.248  25.911  0.00  0.00     0.018 C 
ATOM     53  H33 non d ame     -33.313  10.286  26.143  0.00  0.00     0.048 H 
ATOM     54  H34 non d ame     -34.112  11.459  24.898  0.00  0.00     0.048 H 
BRANCH  52  55
ATOM     55  C23 non d ame     -32.694  12.322  26.233  0.00  0.00     0.259 C 
ATOM     56  O7  non d ame     -32.974  13.283  26.872  0.00  0.00    -0.265 OA
BRANCH  55  57
ATOM     57  O8  non d ame     -31.370  12.150  25.744  0.00  0.00    -0.317 OA
BRANCH  57  58
ATOM     58  C29 non d ame     -31.300  11.851  24.347  0.00  0.00     0.052 C 
ATOM     59  H47 non d ame     -30.644  10.984  24.263  0.00  0.00     0.082 H 
ATOM     60  H48 non d ame     -32.333  11.788  24.006  0.00  0.00     0.082 H 
BRANCH  58  61
ATOM     61  C35 non d ame     -30.621  13.051  23.634  0.00  0.00    -0.034 A 
ATOM     62  C30 non d ame     -29.862  12.842  22.487  0.00  0.00    -0.075 A 
ATOM     63  C31 non d ame     -29.253  13.920  21.847  0.00  0.00    -0.082 A 
ATOM     64  H49 non d ame     -29.745  11.833  22.089  0.00  0.00     0.084 H 
ATOM     65  C32 non d ame     -29.402  15.211  22.359  0.00  0.00    -0.083 A 
ATOM     66  H50 non d ame     -28.660  13.752  20.947  0.00  0.00     0.083 H 
ATOM     67  C33 non d ame     -30.157  15.415  23.506  0.00  0.00    -0.082 A 
ATOM     68  H51 non d ame     -28.929  16.059  21.865  0.00  0.00     0.083 H 
ATOM     69  C34 non d ame     -30.770  14.341  24.148  0.00  0.00    -0.075 A 
ATOM     70  H52 non d ame     -30.270  16.423  23.905  0.00  0.00     0.083 H 
ATOM     71  H53 non d ame     -31.363  14.509  25.048  0.00  0.00     0.084 H 
ENDBRANCH  58  61
ENDBRANCH  57  58
ENDBRANCH  55  57
ENDBRANCH  52  55
ENDBRANCH  49  52
ENDBRANCH  47  49
BRANCH  47  72
ATOM     72  C24 non d ame     -36.328  11.634  24.711  0.00  0.00    -0.039 C 
ATOM     73  H35 non d ame     -35.751  12.333  24.106  0.00  0.00     0.036 H 
ATOM     74  H36 non d ame     -36.066  10.576  24.719  0.00  0.00     0.036 H 
BRANCH  72  75
ATOM     75  C25 non d ame     -37.853  11.740  24.231  0.00  0.00    -0.001 C 
ATOM     76  C26 non d ame     -38.327  10.318  23.555  0.00  0.00    -0.035 C 
ATOM     77  C27 non d ame     -38.876  10.573  22.343  0.00  0.00     0.085 C 
ATOM     78  H38 non d ame     -37.456   9.708  23.318  0.00  0.00     0.036 H 
ATOM     79  H39 non d ame     -39.153   9.891  24.124  0.00  0.00     0.036 H 
ATOM     80  N5  non d ame     -38.523  11.997  21.990  0.00  0.00    -0.049 N 
ATOM     81  H40 non d ame     -38.374   9.899  21.649  0.00  0.00     0.075 H 
ATOM     82  H41 non d ame     -39.953  10.500  22.491  0.00  0.00     0.075 H 
ATOM     83  C28 non d ame     -38.003  12.679  23.357  0.00  0.00     0.193 C 
ATOM     84  H42 non d ame     -37.751  11.948  21.341  0.00  0.00     0.280 HD
ATOM     85  H43 non d ame     -39.386  12.445  21.715  0.00  0.00     0.280 HD
ATOM     86  H44 non d ame     -38.643  13.365  23.912  0.00  0.00     0.129 H 
ATOM     87  H37 non d ame     -38.499  12.164  25.000  0.00  0.00     0.046 H 
BRANCH  83  88
ATOM     88  O6  non d ame     -36.790  13.395  23.121  0.00  0.00    -0.369 OA
ATOM     89  H45 non d ame     -36.154  13.184  23.809  0.00  0.00     0.212 HD
ENDBRANCH  83  88
ENDBRANCH  72  75
ENDBRANCH  47  72
ENDBRANCH  45  47
ENDBRANCH   1  43
BRANCH   1  90
ATOM     90  C16 non d ame     -36.883  16.663  25.233  0.00  0.00    -0.035 C 
ATOM     91  H21 non d ame     -35.923  16.741  24.724  0.00  0.00     0.037 H 
ATOM     92  H22 non d ame     -37.674  16.041  24.813  0.00  0.00     0.037 H 
BRANCH  90  93
ATOM     93  C17 non d ame     -37.458  18.113  25.313  0.00  0.00    -0.059 C 
ATOM     94  H23 non d ame     -37.781  18.285  26.340  0.00  0.00     0.038 H 
BRANCH  93  95
ATOM     95  C18 non d ame     -36.385  19.193  24.964  0.00  0.00    -0.073 C 
ATOM     96  H24 non d ame     -35.441  18.936  25.444  0.00  0.00     0.028 H 
ATOM     97  H25 non d ame     -36.244  19.231  23.884  0.00  0.00     0.028 H 
ATOM     98  H26 non d ame     -36.720  20.167  25.321  0.00  0.00     0.028 H 
ENDBRANCH  93  95
BRANCH  93  99
ATOM     99  C19 non d ame     -38.692  18.262  24.418  0.00  0.00    -0.073 C 
ATOM    100  H27 non d ame     -39.221  17.311  24.367  0.00  0.00     0.028 H 
ATOM    101  H28 non d ame     -39.352  19.024  24.833  0.00  0.00     0.028 H 
ATOM    102  H29 non d ame     -38.380  18.559  23.417  0.00  0.00     0.028 H 
ENDBRANCH  93  99
ENDBRANCH  90  93
ENDBRANCH   1  90
TORSDOF 26
ENDMDL
MODEL 10
REMARK VINA RESULT:      -6.7      2.292      7.291
REMARK  26 active torsions:
REMARK  status: ('A' for Active; 'I' for Inactive)
REMARK    1  A    between atoms: C2_2  and  C3_3 
REMARK    2  A    between atoms: C4_6  and  C5_7 
REMARK       I    between atoms: C5_7  and  N2_9 
REMARK    3  A    between atoms: N2_9  and  C6_10 
REMARK    4  A    between atoms: C6_10  and  C7_11 
REMARK    5  A    between atoms: C6_10  and  C8_13 
REMARK       I    between atoms: C7_11  and  N3_14 
REMARK    6  A    between atoms: N3_14  and  C9_15 
REMARK    7  A    between atoms: C9_15  and  C10_16 
REMARK    8  A    between atoms: C9_15  and  C11_18 
REMARK       I    between atoms: C10_16  and  N4_21 
REMARK    9  A    between atoms: C11_18  and  C12_19 
REMARK   10  A    between atoms: C11_18  and  C13_20 
REMARK   11  A    between atoms: N4_21  and  C14_22 
REMARK   12  A    between atoms: C14_22  and  C15_23 
REMARK   13  A    between atoms: C14_22  and  C16_25 
REMARK       I    between atoms: C15_23  and  N6_40 
REMARK   14  A    between atoms: C16_25  and  C17_26 
REMARK   15  A    between atoms: C17_26  and  C18_27 
REMARK   16  A    between atoms: C17_26  and  C19_28 
REMARK   17  A    between atoms: C20_29  and  C21_30 
REMARK   18  A    between atoms: C20_29  and  C24_33 
REMARK   19  A    between atoms: C20_29  and  N6_40 
REMARK   20  A    between atoms: C21_30  and  C22_31 
REMARK   21  A    between atoms: C22_31  and  C23_32 
REMARK   22  A    between atoms: C23_32  and  O8_43 
REMARK   23  A    between atoms: C24_33  and  C25_34 
REMARK   24  A    between atoms: C28_38  and  O6_39 
REMARK   25  A    between atoms: C29_42  and  O8_43 
REMARK   26  A    between atoms: C29_42  and  C35_49 
ROOT
ATOM      1  C14 non d ame     -32.494   9.563  25.309  0.00  0.00     0.089 C 
ATOM      2  H20 non d ame     -31.838   8.694  25.366  0.00  0.00     0.087 H 
ENDROOT
BRANCH   1   3
ATOM      3  N4  non d ame     -33.434   9.476  26.418  0.00  0.00    -0.346 N 
ATOM      4  C10 non d ame     -33.269   8.413  27.474  0.00  0.00     0.241 C 
ATOM      5  O4  non d ame     -32.375   7.636  27.410  0.00  0.00    -0.271 OA
ATOM      6  H19 non d ame     -34.190  10.146  26.453  0.00  0.00     0.163 HD
BRANCH   4   7
ATOM      7  C9  non d ame     -34.248   8.342  28.617  0.00  0.00     0.092 C 
ATOM      8  H11 non d ame     -33.997   7.492  29.251  0.00  0.00     0.088 H 
BRANCH   7   9
ATOM      9  N3  non d ame     -34.126   9.548  29.441  0.00  0.00    -0.346 N 
ATOM     10  C7  non d ame     -34.167   9.445  30.880  0.00  0.00     0.240 C 
ATOM     11  O3  non d ame     -34.298   8.400  31.390  0.00  0.00    -0.271 OA
ATOM     12  H10 non d ame     -34.014  10.457  29.015  0.00  0.00     0.163 HD
BRANCH  10  13
ATOM     13  C6  non d ame     -34.040  10.733  31.751  0.00  0.00     0.086 C 
ATOM     14  H6  non d ame     -33.253  10.657  32.502  0.00  0.00     0.086 H 
BRANCH  13  15
ATOM     15  N2  non d ame     -33.688  11.851  30.892  0.00  0.00    -0.343 N 
ATOM     16  C5  non d ame     -32.281  12.099  30.570  0.00  0.00     0.273 C 
ATOM     17  O2  non d ame     -31.440  11.395  31.010  0.00  0.00    -0.266 OA
ATOM     18  H5  non d ame     -34.414  12.449  30.523  0.00  0.00     0.163 HD
BRANCH  16  19
ATOM     19  C4  non d ame     -31.895  13.277  29.662  0.00  0.00     0.154 A 
ATOM     20  C1  non d ame     -32.646  14.474  29.432  0.00  0.00    -0.017 A 
ATOM     21  C2  non d ame     -31.863  15.225  28.527  0.00  0.00     0.077 A 
ATOM     22  H1  non d ame     -33.610  14.754  29.857  0.00  0.00     0.091 H 
ATOM     23  O1  non d ame     -30.791  14.533  28.275  0.00  0.00    -0.218 OA
ATOM     24  N1  non d ame     -30.787  13.392  28.925  0.00  0.00    -0.123 NA
BRANCH  21  25
ATOM     25  C3  non d ame     -32.211  16.593  27.955  0.00  0.00    -0.029 C 
ATOM     26  H2  non d ame     -31.826  16.671  26.939  0.00  0.00     0.036 H 
ATOM     27  H3  non d ame     -33.294  16.717  27.943  0.00  0.00     0.036 H 
ATOM     28  H4  non d ame     -31.763  17.371  28.574  0.00  0.00     0.036 H 
ENDBRANCH  21  25
ENDBRANCH  16  19
ENDBRANCH  13  15
BRANCH  13  29
ATOM     29  C8  non d ame     -35.351  11.005  32.444  0.00  0.00    -0.049 C 
ATOM     30  H7  non d ame     -35.484  10.296  33.261  0.00  0.00     0.030 H 
ATOM     31  H8  non d ame     -35.347  12.020  32.841  0.00  0.00     0.030 H 
ATOM     32  H9  non d ame     -36.168  10.896  31.731  0.00  0.00     0.030 H 
ENDBRANCH  13  29
ENDBRANCH  10  13
ENDBRANCH   7   9
BRANCH   7  33
ATOM     33  C11 non d ame     -35.696   8.246  28.055  0.00  0.00    -0.033 C 
ATOM     34  H12 non d ame     -35.621   8.100  26.977  0.00  0.00     0.042 H 
BRANCH  33  35
ATOM     35  C12 non d ame     -36.454   7.014  28.643  0.00  0.00    -0.071 C 
ATOM     36  H13 non d ame     -36.535   7.121  29.725  0.00  0.00     0.028 H 
ATOM     37  H14 non d ame     -37.451   6.960  28.207  0.00  0.00     0.028 H 
ATOM     38  H15 non d ame     -35.904   6.103  28.408  0.00  0.00     0.028 H 
ENDBRANCH  33  35
BRANCH  33  39
ATOM     39  C13 non d ame     -36.484   9.570  28.309  0.00  0.00    -0.071 C 
ATOM     40  H16 non d ame     -35.957  10.403  27.843  0.00  0.00     0.028 H 
ATOM     41  H17 non d ame     -37.484   9.487  27.880  0.00  0.00     0.028 H 
ATOM     42  H18 non d ame     -36.564   9.745  29.382  0.00  0.00     0.028 H 
ENDBRANCH  33  39
ENDBRANCH   7  33
ENDBRANCH   4   7
ENDBRANCH   1   3
BRANCH   1  43
ATOM     43  C15 non d ame     -31.709  10.900  25.429  0.00  0.00     0.240 C 
ATOM     44  O5  non d ame     -31.003  11.089  26.367  0.00  0.00    -0.271 OA
ATOM     45  N6  non d ame     -31.830  11.943  24.370  0.00  0.00    -0.355 N 
ATOM     46  H46 non d ame     -32.422  11.791  23.567  0.00  0.00     0.162 HD
BRANCH  45  47
ATOM     47  C20 non d ame     -31.075  13.208  24.498  0.00  0.00     0.013 C 
ATOM     48  H30 non d ame     -30.366  13.094  25.318  0.00  0.00     0.072 H 
BRANCH  47  49
ATOM     49  C21 non d ame     -32.037  14.335  24.800  0.00  0.00    -0.038 C 
ATOM     50  H31 non d ame     -31.470  15.056  25.389  0.00  0.00     0.036 H 
ATOM     51  H32 non d ame     -32.459  14.627  23.838  0.00  0.00     0.036 H 
BRANCH  49  52
ATOM     52  C22 non d ame     -33.225  13.889  25.680  0.00  0.00     0.018 C 
ATOM     53  H33 non d ame     -33.509  12.903  25.315  0.00  0.00     0.048 H 
ATOM     54  H34 non d ame     -32.892  14.014  26.711  0.00  0.00     0.048 H 
BRANCH  52  55
ATOM     55  C23 non d ame     -34.487  14.782  25.527  0.00  0.00     0.259 C 
ATOM     56  O7  non d ame     -35.543  14.408  25.926  0.00  0.00    -0.265 OA
BRANCH  55  57
ATOM     57  O8  non d ame     -34.371  16.050  24.893  0.00  0.00    -0.317 OA
BRANCH  57  58
ATOM     58  C29 non d ame     -35.384  16.986  25.273  0.00  0.00     0.052 C 
ATOM     59  H47 non d ame     -35.799  17.367  24.340  0.00  0.00     0.082 H 
ATOM     60  H48 non d ame     -36.024  16.458  25.979  0.00  0.00     0.082 H 
BRANCH  58  61
ATOM     61  C35 non d ame     -34.694  18.160  26.019  0.00  0.00    -0.034 A 
ATOM     62  C30 non d ame     -35.191  18.595  27.244  0.00  0.00    -0.075 A 
ATOM     63  C31 non d ame     -34.572  19.649  27.914  0.00  0.00    -0.082 A 
ATOM     64  H49 non d ame     -36.065  18.110  27.678  0.00  0.00     0.084 H 
ATOM     65  C32 non d ame     -33.453  20.271  27.353  0.00  0.00    -0.083 A 
ATOM     66  H50 non d ame     -34.963  19.986  28.874  0.00  0.00     0.083 H 
ATOM     67  C33 non d ame     -32.963  19.836  26.129  0.00  0.00    -0.082 A 
ATOM     68  H51 non d ame     -32.963  21.095  27.871  0.00  0.00     0.083 H 
ATOM     69  C34 non d ame     -33.577  18.781  25.457  0.00  0.00    -0.075 A 
ATOM     70  H52 non d ame     -32.091  20.325  25.694  0.00  0.00     0.083 H 
ATOM     71  H53 non d ame     -33.186  18.445  24.497  0.00  0.00     0.084 H 
ENDBRANCH  58  61
ENDBRANCH  57  58
ENDBRANCH  55  57
ENDBRANCH  52  55
ENDBRANCH  49  52
ENDBRANCH  47  49
BRANCH  47  72
ATOM     72  C24 non d ame     -30.337  13.503  23.194  0.00  0.00    -0.039 C 
ATOM     73  H35 non d ame     -29.290  13.274  23.395  0.00  0.00     0.036 H 
ATOM     74  H36 non d ame     -30.877  12.953  22.424  0.00  0.00     0.036 H 
BRANCH  72  75
ATOM     75  C25 non d ame     -30.415  15.056  22.808  0.00  0.00    -0.001 C 
ATOM     76  C26 non d ame     -31.176  15.236  21.361  0.00  0.00    -0.035 C 
ATOM     77  C27 non d ame     -30.405  16.004  20.555  0.00  0.00     0.085 C 
ATOM     78  H38 non d ame     -31.217  14.280  20.839  0.00  0.00     0.036 H 
ATOM     79  H39 non d ame     -32.083  15.827  21.487  0.00  0.00     0.036 H 
ATOM     80  N5  non d ame     -29.043  16.094  21.200  0.00  0.00    -0.049 N 
ATOM     81  H40 non d ame     -30.320  15.451  19.620  0.00  0.00     0.075 H 
ATOM     82  H41 non d ame     -30.868  16.991  20.564  0.00  0.00     0.075 H 
ATOM     83  C28 non d ame     -29.236  15.575  22.717  0.00  0.00     0.193 C 
ATOM     84  H42 non d ame     -28.450  15.440  20.709  0.00  0.00     0.280 HD
ATOM     85  H43 non d ame     -28.802  17.074  21.224  0.00  0.00     0.280 HD
ATOM     86  H44 non d ame     -29.266  16.283  23.545  0.00  0.00     0.129 H 
ATOM     87  H37 non d ame     -30.771  15.670  23.635  0.00  0.00     0.046 H 
BRANCH  83  88
ATOM     88  O6  non d ame     -28.208  14.640  23.052  0.00  0.00    -0.369 OA
ATOM     89  H45 non d ame     -27.592  15.048  23.665  0.00  0.00     0.212 HD
ENDBRANCH  83  88
ENDBRANCH  72  75
ENDBRANCH  47  72
ENDBRANCH  45  47
ENDBRANCH   1  43
BRANCH   1  90
ATOM     90  C16 non d ame     -33.268   9.540  24.001  0.00  0.00    -0.035 C 
ATOM     91  H21 non d ame     -34.282   9.246  24.270  0.00  0.00     0.037 H 
ATOM     92  H22 non d ame     -33.086  10.512  23.541  0.00  0.00     0.037 H 
BRANCH  90  93
ATOM     93  C17 non d ame     -32.752   8.469  22.987  0.00  0.00    -0.059 C 
ATOM     94  H23 non d ame     -33.487   8.391  22.186  0.00  0.00     0.038 H 
BRANCH  93  95
ATOM     95  C18 non d ame     -31.387   8.874  22.344  0.00  0.00    -0.073 C 
ATOM     96  H24 non d ame     -31.357   8.533  21.310  0.00  0.00     0.028 H 
ATOM     97  H25 non d ame     -31.281   9.958  22.371  0.00  0.00     0.028 H 
ATOM     98  H26 non d ame     -30.572   8.415  22.903  0.00  0.00     0.028 H 
ENDBRANCH  93  95
BRANCH  93  99
ATOM     99  C19 non d ame     -32.654   7.092  23.650  0.00  0.00    -0.073 C 
ATOM    100  H27 non d ame     -32.168   7.189  24.621  0.00  0.00     0.028 H 
ATOM    101  H28 non d ame     -33.655   6.681  23.785  0.00  0.00     0.028 H 
ATOM    102  H29 non d ame     -32.071   6.425  23.016  0.00  0.00     0.028 H 
ENDBRANCH  93  99
ENDBRANCH  90  93
ENDBRANCH   1  90
TORSDOF 26
ENDMDL
MODEL 11
REMARK VINA RESULT:      -6.7      2.615      6.584
REMARK  26 active torsions:
REMARK  status: ('A' for Active; 'I' for Inactive)
REMARK    1  A    between atoms: C2_2  and  C3_3 
REMARK    2  A    between atoms: C4_6  and  C5_7 
REMARK       I    between atoms: C5_7  and  N2_9 
REMARK    3  A    between atoms: N2_9  and  C6_10 
REMARK    4  A    between atoms: C6_10  and  C7_11 
REMARK    5  A    between atoms: C6_10  and  C8_13 
REMARK       I    between atoms: C7_11  and  N3_14 
REMARK    6  A    between atoms: N3_14  and  C9_15 
REMARK    7  A    between atoms: C9_15  and  C10_16 
REMARK    8  A    between atoms: C9_15  and  C11_18 
REMARK       I    between atoms: C10_16  and  N4_21 
REMARK    9  A    between atoms: C11_18  and  C12_19 
REMARK   10  A    between atoms: C11_18  and  C13_20 
REMARK   11  A    between atoms: N4_21  and  C14_22 
REMARK   12  A    between atoms: C14_22  and  C15_23 
REMARK   13  A    between atoms: C14_22  and  C16_25 
REMARK       I    between atoms: C15_23  and  N6_40 
REMARK   14  A    between atoms: C16_25  and  C17_26 
REMARK   15  A    between atoms: C17_26  and  C18_27 
REMARK   16  A    between atoms: C17_26  and  C19_28 
REMARK   17  A    between atoms: C20_29  and  C21_30 
REMARK   18  A    between atoms: C20_29  and  C24_33 
REMARK   19  A    between atoms: C20_29  and  N6_40 
REMARK   20  A    between atoms: C21_30  and  C22_31 
REMARK   21  A    between atoms: C22_31  and  C23_32 
REMARK   22  A    between atoms: C23_32  and  O8_43 
REMARK   23  A    between atoms: C24_33  and  C25_34 
REMARK   24  A    between atoms: C28_38  and  O6_39 
REMARK   25  A    between atoms: C29_42  and  O8_43 
REMARK   26  A    between atoms: C29_42  and  C35_49 
ROOT
ATOM      1  C14 non d ame     -31.103  13.587  24.582  0.00  0.00     0.089 C 
ATOM      2  H20 non d ame     -30.105  13.499  25.013  0.00  0.00     0.087 H 
ENDROOT
BRANCH   1   3
ATOM      3  N4  non d ame     -31.526  12.254  24.180  0.00  0.00    -0.346 N 
ATOM      4  C10 non d ame     -31.356  11.086  25.118  0.00  0.00     0.241 C 
ATOM      5  O4  non d ame     -30.873  11.243  26.191  0.00  0.00    -0.271 OA
ATOM      6  H19 non d ame     -31.933  12.141  23.262  0.00  0.00     0.163 HD
BRANCH   4   7
ATOM      7  C9  non d ame     -31.806   9.714  24.688  0.00  0.00     0.092 C 
ATOM      8  H11 non d ame     -31.116   8.970  25.086  0.00  0.00     0.088 H 
BRANCH   7   9
ATOM      9  N3  non d ame     -33.126   9.430  25.260  0.00  0.00    -0.346 N 
ATOM     10  C7  non d ame     -33.317   8.264  26.086  0.00  0.00     0.240 C 
ATOM     11  O3  non d ame     -32.421   7.542  26.300  0.00  0.00    -0.271 OA
ATOM     12  H10 non d ame     -33.909  10.043  25.082  0.00  0.00     0.163 HD
BRANCH  10  13
ATOM     13  C6  non d ame     -34.725   7.965  26.689  0.00  0.00     0.086 C 
ATOM     14  H6  non d ame     -34.886   6.904  26.877  0.00  0.00     0.086 H 
BRANCH  13  15
ATOM     15  N2  non d ame     -34.841   8.638  27.972  0.00  0.00    -0.343 N 
ATOM     16  C5  non d ame     -34.909   7.843  29.200  0.00  0.00     0.273 C 
ATOM     17  O2  non d ame     -34.873   6.663  29.145  0.00  0.00    -0.266 OA
ATOM     18  H5  non d ame     -34.874   9.647  28.009  0.00  0.00     0.163 HD
BRANCH  16  19
ATOM     19  C4  non d ame     -35.030   8.542  30.563  0.00  0.00     0.154 A 
ATOM     20  C1  non d ame     -35.537   9.855  30.820  0.00  0.00    -0.017 A 
ATOM     21  C2  non d ame     -35.434  10.017  32.220  0.00  0.00     0.077 A 
ATOM     22  H1  non d ame     -35.921  10.579  30.101  0.00  0.00     0.091 H 
ATOM     23  O1  non d ame     -34.928   8.919  32.700  0.00  0.00    -0.218 OA
ATOM     24  N1  non d ame     -34.683   8.043  31.753  0.00  0.00    -0.123 NA
BRANCH  21  25
ATOM     25  C3  non d ame     -35.842  11.249  33.017  0.00  0.00    -0.029 C 
ATOM     26  H2  non d ame     -35.071  11.478  33.751  0.00  0.00     0.036 H 
ATOM     27  H3  non d ame     -35.963  12.095  32.341  0.00  0.00     0.036 H 
ATOM     28  H4  non d ame     -36.785  11.055  33.528  0.00  0.00     0.036 H 
ENDBRANCH  21  25
ENDBRANCH  16  19
ENDBRANCH  13  15
BRANCH  13  29
ATOM     29  C8  non d ame     -35.793   8.460  25.747  0.00  0.00    -0.049 C 
ATOM     30  H7  non d ame     -35.334   9.054  24.957  0.00  0.00     0.030 H 
ATOM     31  H8  non d ame     -36.312   7.609  25.307  0.00  0.00     0.030 H 
ATOM     32  H9  non d ame     -36.506   9.076  26.297  0.00  0.00     0.030 H 
ENDBRANCH  13  29
ENDBRANCH  10  13
ENDBRANCH   7   9
BRANCH   7  33
ATOM     33  C11 non d ame     -31.894   9.661  23.135  0.00  0.00    -0.033 C 
ATOM     34  H12 non d ame     -32.020  10.683  22.777  0.00  0.00     0.042 H 
BRANCH  33  35
ATOM     35  C12 non d ame     -30.576   9.104  22.510  0.00  0.00    -0.071 C 
ATOM     36  H13 non d ame     -30.460   9.495  21.499  0.00  0.00     0.028 H 
ATOM     37  H14 non d ame     -29.727   9.413  23.118  0.00  0.00     0.028 H 
ATOM     38  H15 non d ame     -30.622   8.016  22.475  0.00  0.00     0.028 H 
ENDBRANCH  33  35
BRANCH  33  39
ATOM     39  C13 non d ame     -33.134   8.831  22.673  0.00  0.00    -0.071 C 
ATOM     40  H16 non d ame     -33.750   8.585  23.539  0.00  0.00     0.028 H 
ATOM     41  H17 non d ame     -33.721   9.417  21.965  0.00  0.00     0.028 H 
ATOM     42  H18 non d ame     -32.798   7.912  22.192  0.00  0.00     0.028 H 
ENDBRANCH  33  39
ENDBRANCH   7  33
ENDBRANCH   4   7
ENDBRANCH   1   3
BRANCH   1  43
ATOM     43  C15 non d ame     -32.135  14.149  25.601  0.00  0.00     0.240 C 
ATOM     44  O5  non d ame     -33.246  14.382  25.249  0.00  0.00    -0.271 OA
ATOM     45  N6  non d ame     -31.741  14.389  27.018  0.00  0.00    -0.355 N 
ATOM     46  H46 non d ame     -30.801  14.191  27.330  0.00  0.00     0.162 HD
BRANCH  45  47
ATOM     47  C20 non d ame     -32.735  14.922  27.975  0.00  0.00     0.013 C 
ATOM     48  H30 non d ame     -33.726  14.644  27.618  0.00  0.00     0.072 H 
BRANCH  47  49
ATOM     49  C21 non d ame     -32.611  16.428  28.037  0.00  0.00    -0.038 C 
ATOM     50  H31 non d ame     -32.671  16.685  29.094  0.00  0.00     0.036 H 
ATOM     51  H32 non d ame     -31.715  16.673  27.466  0.00  0.00     0.036 H 
BRANCH  49  52
ATOM     52  C22 non d ame     -33.783  17.155  27.343  0.00  0.00     0.018 C 
ATOM     53  H33 non d ame     -34.419  16.368  26.937  0.00  0.00     0.048 H 
ATOM     54  H34 non d ame     -34.180  17.849  28.084  0.00  0.00     0.048 H 
BRANCH  52  55
ATOM     55  C23 non d ame     -33.351  18.024  26.130  0.00  0.00     0.259 C 
ATOM     56  O7  non d ame     -32.452  17.682  25.432  0.00  0.00    -0.265 OA
BRANCH  55  57
ATOM     57  O8  non d ame     -34.035  19.243  25.867  0.00  0.00    -0.317 OA
BRANCH  57  58
ATOM     58  C29 non d ame     -34.061  20.147  26.976  0.00  0.00     0.052 C 
ATOM     59  H47 non d ame     -33.528  19.640  27.781  0.00  0.00     0.082 H 
ATOM     60  H48 non d ame     -33.691  21.097  26.591  0.00  0.00     0.082 H 
BRANCH  58  61
ATOM     61  C35 non d ame     -35.540  20.334  27.407  0.00  0.00    -0.034 A 
ATOM     62  C30 non d ame     -36.450  20.923  26.535  0.00  0.00    -0.075 A 
ATOM     63  C31 non d ame     -37.779  21.092  26.922  0.00  0.00    -0.082 A 
ATOM     64  H49 non d ame     -36.123  21.253  25.549  0.00  0.00     0.084 H 
ATOM     65  C32 non d ame     -38.196  20.671  28.188  0.00  0.00    -0.083 A 
ATOM     66  H50 non d ame     -38.490  21.552  26.236  0.00  0.00     0.083 H 
ATOM     67  C33 non d ame     -37.283  20.087  29.056  0.00  0.00    -0.082 A 
ATOM     68  H51 non d ame     -39.233  20.799  28.498  0.00  0.00     0.083 H 
ATOM     69  C34 non d ame     -35.955  19.915  28.672  0.00  0.00    -0.075 A 
ATOM     70  H52 non d ame     -37.611  19.762  30.044  0.00  0.00     0.083 H 
ATOM     71  H53 non d ame     -35.244  19.454  29.359  0.00  0.00     0.084 H 
ENDBRANCH  58  61
ENDBRANCH  57  58
ENDBRANCH  55  57
ENDBRANCH  52  55
ENDBRANCH  49  52
ENDBRANCH  47  49
BRANCH  47  72
ATOM     72  C24 non d ame     -32.485  14.333  29.362  0.00  0.00    -0.039 C 
ATOM     73  H35 non d ame     -31.837  15.048  29.869  0.00  0.00     0.036 H 
ATOM     74  H36 non d ame     -33.473  14.112  29.765  0.00  0.00     0.036 H 
BRANCH  72  75
ATOM     75  C25 non d ame     -31.686  12.946  29.281  0.00  0.00    -0.001 C 
ATOM     76  C26 non d ame     -32.739  11.687  29.385  0.00  0.00    -0.035 C 
ATOM     77  C27 non d ame     -32.308  10.837  30.347  0.00  0.00     0.085 C 
ATOM     78  H38 non d ame     -33.700  12.034  29.762  0.00  0.00     0.036 H 
ATOM     79  H39 non d ame     -32.694  11.087  28.476  0.00  0.00     0.036 H 
ATOM     80  N5  non d ame     -31.242  11.561  31.132  0.00  0.00    -0.049 N 
ATOM     81  H40 non d ame     -33.170  10.666  30.992  0.00  0.00     0.075 H 
ATOM     82  H41 non d ame     -31.852  10.002  29.815  0.00  0.00     0.075 H 
ATOM     83  C28 non d ame     -30.830  12.844  30.242  0.00  0.00     0.193 C 
ATOM     84  H42 non d ame     -31.682  11.887  31.980  0.00  0.00     0.280 HD
ATOM     85  H43 non d ame     -30.450  10.936  31.182  0.00  0.00     0.280 HD
ATOM     86  H44 non d ame     -29.897  12.849  29.677  0.00  0.00     0.129 H 
ATOM     87  H37 non d ame     -30.972  12.929  28.458  0.00  0.00     0.046 H 
BRANCH  83  88
ATOM     88  O6  non d ame     -30.790  14.017  31.056  0.00  0.00    -0.369 OA
ATOM     89  H45 non d ame     -30.273  14.695  30.615  0.00  0.00     0.212 HD
ENDBRANCH  83  88
ENDBRANCH  72  75
ENDBRANCH  47  72
ENDBRANCH  45  47
ENDBRANCH   1  43
BRANCH   1  90
ATOM     90  C16 non d ame     -31.055  14.484  23.355  0.00  0.00    -0.035 C 
ATOM     91  H21 non d ame     -31.732  14.024  22.635  0.00  0.00     0.037 H 
ATOM     92  H22 non d ame     -31.254  15.490  23.725  0.00  0.00     0.037 H 
BRANCH  90  93
ATOM     93  C17 non d ame     -29.653  14.534  22.670  0.00  0.00    -0.059 C 
ATOM     94  H23 non d ame     -28.908  14.684  23.452  0.00  0.00     0.038 H 
BRANCH  93  95
ATOM     95  C18 non d ame     -29.308  13.201  21.933  0.00  0.00    -0.073 C 
ATOM     96  H24 non d ame     -30.163  12.527  21.983  0.00  0.00     0.028 H 
ATOM     97  H25 non d ame     -29.074  13.412  20.890  0.00  0.00     0.028 H 
ATOM     98  H26 non d ame     -28.448  12.733  22.411  0.00  0.00     0.028 H 
ENDBRANCH  93  95
BRANCH  93  99
ATOM     99  C19 non d ame     -29.554  15.726  21.714  0.00  0.00    -0.073 C 
ATOM    100  H27 non d ame     -28.775  16.406  22.060  0.00  0.00     0.028 H 
ATOM    101  H28 non d ame     -29.307  15.371  20.713  0.00  0.00     0.028 H 
ATOM    102  H29 non d ame     -30.509  16.250  21.687  0.00  0.00     0.028 H 
ENDBRANCH  93  99
ENDBRANCH  90  93
ENDBRANCH   1  90
TORSDOF 26
ENDMDL
MODEL 12
REMARK VINA RESULT:      -6.7      2.064      5.821
REMARK  26 active torsions:
REMARK  status: ('A' for Active; 'I' for Inactive)
REMARK    1  A    between atoms: C2_2  and  C3_3 
REMARK    2  A    between atoms: C4_6  and  C5_7 
REMARK       I    between atoms: C5_7  and  N2_9 
REMARK    3  A    between atoms: N2_9  and  C6_10 
REMARK    4  A    between atoms: C6_10  and  C7_11 
REMARK    5  A    between atoms: C6_10  and  C8_13 
REMARK       I    between atoms: C7_11  and  N3_14 
REMARK    6  A    between atoms: N3_14  and  C9_15 
REMARK    7  A    between atoms: C9_15  and  C10_16 
REMARK    8  A    between atoms: C9_15  and  C11_18 
REMARK       I    between atoms: C10_16  and  N4_21 
REMARK    9  A    between atoms: C11_18  and  C12_19 
REMARK   10  A    between atoms: C11_18  and  C13_20 
REMARK   11  A    between atoms: N4_21  and  C14_22 
REMARK   12  A    between atoms: C14_22  and  C15_23 
REMARK   13  A    between atoms: C14_22  and  C16_25 
REMARK       I    between atoms: C15_23  and  N6_40 
REMARK   14  A    between atoms: C16_25  and  C17_26 
REMARK   15  A    between atoms: C17_26  and  C18_27 
REMARK   16  A    between atoms: C17_26  and  C19_28 
REMARK   17  A    between atoms: C20_29  and  C21_30 
REMARK   18  A    between atoms: C20_29  and  C24_33 
REMARK   19  A    between atoms: C20_29  and  N6_40 
REMARK   20  A    between atoms: C21_30  and  C22_31 
REMARK   21  A    between atoms: C22_31  and  C23_32 
REMARK   22  A    between atoms: C23_32  and  O8_43 
REMARK   23  A    between atoms: C24_33  and  C25_34 
REMARK   24  A    between atoms: C28_38  and  O6_39 
REMARK   25  A    between atoms: C29_42  and  O8_43 
REMARK   26  A    between atoms: C29_42  and  C35_49 
ROOT
ATOM      1  C14 non d ame     -31.001  13.668  24.681  0.00  0.00     0.089 C 
ATOM      2  H20 non d ame     -30.023  13.483  25.127  0.00  0.00     0.087 H 
ENDROOT
BRANCH   1   3
ATOM      3  N4  non d ame     -31.442  12.427  24.062  0.00  0.00    -0.346 N 
ATOM      4  C10 non d ame     -31.309  11.118  24.800  0.00  0.00     0.241 C 
ATOM      5  O4  non d ame     -30.841  11.089  25.891  0.00  0.00    -0.271 OA
ATOM      6  H19 non d ame     -31.836  12.473  23.133  0.00  0.00     0.163 HD
BRANCH   4   7
ATOM      7  C9  non d ame     -31.777   9.844  24.147  0.00  0.00     0.092 C 
ATOM      8  H11 non d ame     -31.562   9.004  24.807  0.00  0.00     0.088 H 
BRANCH   7   9
ATOM      9  N3  non d ame     -33.231   9.892  23.965  0.00  0.00    -0.346 N 
ATOM     10  C7  non d ame     -34.099   9.289  24.946  0.00  0.00     0.240 C 
ATOM     11  O3  non d ame     -33.645   8.759  25.886  0.00  0.00    -0.271 OA
ATOM     12  H10 non d ame     -33.637  10.344  23.159  0.00  0.00     0.163 HD
BRANCH  10  13
ATOM     13  C6  non d ame     -35.646   9.341  24.746  0.00  0.00     0.086 C 
ATOM     14  H6  non d ame     -36.193   9.357  25.688  0.00  0.00     0.086 H 
BRANCH  13  15
ATOM     15  N2  non d ame     -35.990  10.566  24.045  0.00  0.00    -0.343 N 
ATOM     16  C5  non d ame     -36.830  11.566  24.708  0.00  0.00     0.273 C 
ATOM     17  O2  non d ame     -37.226  11.373  25.805  0.00  0.00    -0.266 OA
ATOM     18  H5  non d ame     -35.649  10.722  23.106  0.00  0.00     0.163 HD
BRANCH  16  19
ATOM     19  C4  non d ame     -37.200  12.867  23.980  0.00  0.00     0.154 A 
ATOM     20  C1  non d ame     -37.340  14.170  24.554  0.00  0.00    -0.017 A 
ATOM     21  C2  non d ame     -37.686  15.009  23.472  0.00  0.00     0.077 A 
ATOM     22  H1  non d ame     -37.210  14.462  25.597  0.00  0.00     0.091 H 
ATOM     23  O1  non d ame     -37.735  14.266  22.406  0.00  0.00    -0.218 OA
ATOM     24  N1  non d ame     -37.456  13.012  22.676  0.00  0.00    -0.123 NA
BRANCH  21  25
ATOM     25  C3  non d ame     -37.952  16.507  23.542  0.00  0.00    -0.029 C 
ATOM     26  H2  non d ame     -37.290  17.027  22.849  0.00  0.00     0.036 H 
ATOM     27  H3  non d ame     -38.988  16.705  23.271  0.00  0.00     0.036 H 
ATOM     28  H4  non d ame     -37.767  16.862  24.556  0.00  0.00     0.036 H 
ENDBRANCH  21  25
ENDBRANCH  16  19
ENDBRANCH  13  15
BRANCH  13  29
ATOM     29  C8  non d ame     -36.092   8.144  23.944  0.00  0.00    -0.049 C 
ATOM     30  H7  non d ame     -35.838   8.296  22.894  0.00  0.00     0.030 H 
ATOM     31  H8  non d ame     -35.589   7.251  24.314  0.00  0.00     0.030 H 
ATOM     32  H9  non d ame     -37.171   8.022  24.043  0.00  0.00     0.030 H 
ENDBRANCH  13  29
ENDBRANCH  10  13
ENDBRANCH   7   9
BRANCH   7  33
ATOM     33  C11 non d ame     -31.088   9.691  22.759  0.00  0.00    -0.033 C 
ATOM     34  H12 non d ame     -31.316  10.584  22.178  0.00  0.00     0.042 H 
BRANCH  33  35
ATOM     35  C12 non d ame     -29.536   9.606  22.901  0.00  0.00    -0.071 C 
ATOM     36  H13 non d ame     -29.073   9.779  21.929  0.00  0.00     0.028 H 
ATOM     37  H14 non d ame     -29.194  10.362  23.606  0.00  0.00     0.028 H 
ATOM     38  H15 non d ame     -29.258   8.617  23.264  0.00  0.00     0.028 H 
ENDBRANCH  33  35
BRANCH  33  39
ATOM     39  C13 non d ame     -31.655   8.456  21.988  0.00  0.00    -0.071 C 
ATOM     40  H16 non d ame     -32.744   8.506  21.971  0.00  0.00     0.028 H 
ATOM     41  H17 non d ame     -31.275   8.460  20.965  0.00  0.00     0.028 H 
ATOM     42  H18 non d ame     -31.340   7.539  22.487  0.00  0.00     0.028 H 
ENDBRANCH  33  39
ENDBRANCH   7  33
ENDBRANCH   4   7
ENDBRANCH   1   3
BRANCH   1  43
ATOM     43  C15 non d ame     -32.057  14.096  25.740  0.00  0.00     0.240 C 
ATOM     44  O5  non d ame     -33.214  14.060  25.469  0.00  0.00    -0.271 OA
ATOM     45  N6  non d ame     -31.626  14.544  27.095  0.00  0.00    -0.355 N 
ATOM     46  H46 non d ame     -30.647  14.574  27.338  0.00  0.00     0.162 HD
BRANCH  45  47
ATOM     47  C20 non d ame     -32.643  14.947  28.091  0.00  0.00     0.013 C 
ATOM     48  H30 non d ame     -33.613  14.595  27.741  0.00  0.00     0.072 H 
BRANCH  47  49
ATOM     49  C21 non d ame     -32.653  16.454  28.213  0.00  0.00    -0.038 C 
ATOM     50  H31 non d ame     -32.987  16.665  29.229  0.00  0.00     0.036 H 
ATOM     51  H32 non d ame     -31.667  16.782  27.883  0.00  0.00     0.036 H 
BRANCH  49  52
ATOM     52  C22 non d ame     -33.675  17.124  27.269  0.00  0.00     0.018 C 
ATOM     53  H33 non d ame     -34.253  16.310  26.833  0.00  0.00     0.048 H 
ATOM     54  H34 non d ame     -34.174  17.887  27.868  0.00  0.00     0.048 H 
BRANCH  52  55
ATOM     55  C23 non d ame     -33.025  17.875  26.074  0.00  0.00     0.259 C 
ATOM     56  O7  non d ame     -32.050  17.443  25.549  0.00  0.00    -0.265 OA
BRANCH  55  57
ATOM     57  O8  non d ame     -33.602  19.093  25.620  0.00  0.00    -0.317 OA
BRANCH  57  58
ATOM     58  C29 non d ame     -34.144  19.906  26.664  0.00  0.00     0.052 C 
ATOM     59  H47 non d ame     -34.119  19.287  27.562  0.00  0.00     0.082 H 
ATOM     60  H48 non d ame     -33.586  20.841  26.631  0.00  0.00     0.082 H 
BRANCH  58  61
ATOM     61  C35 non d ame     -35.626  20.206  26.317  0.00  0.00    -0.034 A 
ATOM     62  C30 non d ame     -36.413  20.944  27.196  0.00  0.00    -0.075 A 
ATOM     63  C31 non d ame     -37.744  21.214  26.884  0.00  0.00    -0.082 A 
ATOM     64  H49 non d ame     -35.986  21.310  28.130  0.00  0.00     0.084 H 
ATOM     65  C32 non d ame     -38.290  20.741  25.687  0.00  0.00    -0.083 A 
ATOM     66  H50 non d ame     -38.357  21.794  27.574  0.00  0.00     0.083 H 
ATOM     67  C33 non d ame     -37.503  20.002  24.815  0.00  0.00    -0.082 A 
ATOM     68  H51 non d ame     -39.330  20.948  25.435  0.00  0.00     0.083 H 
ATOM     69  C34 non d ame     -36.171  19.732  25.122  0.00  0.00    -0.075 A 
ATOM     70  H52 non d ame     -37.933  19.633  23.883  0.00  0.00     0.083 H 
ATOM     71  H53 non d ame     -35.559  19.152  24.431  0.00  0.00     0.084 H 
ENDBRANCH  58  61
ENDBRANCH  57  58
ENDBRANCH  55  57
ENDBRANCH  52  55
ENDBRANCH  49  52
ENDBRANCH  47  49
BRANCH  47  72
ATOM     72  C24 non d ame     -32.311  14.328  29.447  0.00  0.00    -0.039 C 
ATOM     73  H35 non d ame     -31.528  14.959  29.870  0.00  0.00     0.036 H 
ATOM     74  H36 non d ame     -33.266  14.227  29.962  0.00  0.00     0.036 H 
BRANCH  72  75
ATOM     75  C25 non d ame     -31.699  12.855  29.293  0.00  0.00    -0.001 C 
ATOM     76  C26 non d ame     -32.914  11.754  29.176  0.00  0.00    -0.035 C 
ATOM     77  C27 non d ame     -32.697  10.767  30.079  0.00  0.00     0.085 C 
ATOM     78  H38 non d ame     -33.853  12.197  29.504  0.00  0.00     0.036 H 
ATOM     79  H39 non d ame     -32.860  11.237  28.217  0.00  0.00     0.036 H 
ATOM     80  N5  non d ame     -31.627  11.260  31.023  0.00  0.00    -0.049 N 
ATOM     81  H40 non d ame     -33.634  10.663  30.627  0.00  0.00     0.075 H 
ATOM     82  H41 non d ame     -32.305   9.928  29.505  0.00  0.00     0.075 H 
ATOM     83  C28 non d ame     -30.963  12.546  30.308  0.00  0.00     0.193 C 
ATOM     84  H42 non d ame     -32.102  11.567  31.859  0.00  0.00     0.280 HD
ATOM     85  H43 non d ame     -30.934  10.528  31.076  0.00  0.00     0.280 HD
ATOM     86  H44 non d ame     -29.986  12.471  29.829  0.00  0.00     0.129 H 
ATOM     87  H37 non d ame     -30.915  12.811  28.537  0.00  0.00     0.046 H 
BRANCH  83  88
ATOM     88  O6  non d ame     -30.849  13.624  31.239  0.00  0.00    -0.369 OA
ATOM     89  H45 non d ame     -30.147  14.216  30.959  0.00  0.00     0.212 HD
ENDBRANCH  83  88
ENDBRANCH  72  75
ENDBRANCH  47  72
ENDBRANCH  45  47
ENDBRANCH   1  43
BRANCH   1  90
ATOM     90  C16 non d ame     -30.885  14.742  23.611  0.00  0.00    -0.035 C 
ATOM     91  H21 non d ame     -31.874  14.806  23.159  0.00  0.00     0.037 H 
ATOM     92  H22 non d ame     -30.459  15.609  24.117  0.00  0.00     0.037 H 
BRANCH  90  93
ATOM     93  C17 non d ame     -29.896  14.374  22.459  0.00  0.00    -0.059 C 
ATOM     94  H23 non d ame     -29.804  13.288  22.436  0.00  0.00     0.038 H 
BRANCH  93  95
ATOM     95  C18 non d ame     -30.421  14.837  21.062  0.00  0.00    -0.073 C 
ATOM     96  H24 non d ame     -29.709  15.532  20.618  0.00  0.00     0.028 H 
ATOM     97  H25 non d ame     -30.536  13.971  20.411  0.00  0.00     0.028 H 
ATOM     98  H26 non d ame     -31.385  15.332  21.182  0.00  0.00     0.028 H 
ENDBRANCH  93  95
BRANCH  93  99
ATOM     99  C19 non d ame     -28.502  14.943  22.733  0.00  0.00    -0.073 C 
ATOM    100  H27 non d ame     -28.584  15.803  23.398  0.00  0.00     0.028 H 
ATOM    101  H28 non d ame     -27.883  14.178  23.203  0.00  0.00     0.028 H 
ATOM    102  H29 non d ame     -28.044  15.252  21.793  0.00  0.00     0.028 H 
ENDBRANCH  93  99
ENDBRANCH  90  93
ENDBRANCH   1  90
TORSDOF 26
ENDMDL
MODEL 13
REMARK VINA RESULT:      -6.7      3.018      5.485
REMARK  26 active torsions:
REMARK  status: ('A' for Active; 'I' for Inactive)
REMARK    1  A    between atoms: C2_2  and  C3_3 
REMARK    2  A    between atoms: C4_6  and  C5_7 
REMARK       I    between atoms: C5_7  and  N2_9 
REMARK    3  A    between atoms: N2_9  and  C6_10 
REMARK    4  A    between atoms: C6_10  and  C7_11 
REMARK    5  A    between atoms: C6_10  and  C8_13 
REMARK       I    between atoms: C7_11  and  N3_14 
REMARK    6  A    between atoms: N3_14  and  C9_15 
REMARK    7  A    between atoms: C9_15  and  C10_16 
REMARK    8  A    between atoms: C9_15  and  C11_18 
REMARK       I    between atoms: C10_16  and  N4_21 
REMARK    9  A    between atoms: C11_18  and  C12_19 
REMARK   10  A    between atoms: C11_18  and  C13_20 
REMARK   11  A    between atoms: N4_21  and  C14_22 
REMARK   12  A    between atoms: C14_22  and  C15_23 
REMARK   13  A    between atoms: C14_22  and  C16_25 
REMARK       I    between atoms: C15_23  and  N6_40 
REMARK   14  A    between atoms: C16_25  and  C17_26 
REMARK   15  A    between atoms: C17_26  and  C18_27 
REMARK   16  A    between atoms: C17_26  and  C19_28 
REMARK   17  A    between atoms: C20_29  and  C21_30 
REMARK   18  A    between atoms: C20_29  and  C24_33 
REMARK   19  A    between atoms: C20_29  and  N6_40 
REMARK   20  A    between atoms: C21_30  and  C22_31 
REMARK   21  A    between atoms: C22_31  and  C23_32 
REMARK   22  A    between atoms: C23_32  and  O8_43 
REMARK   23  A    between atoms: C24_33  and  C25_34 
REMARK   24  A    between atoms: C28_38  and  O6_39 
REMARK   25  A    between atoms: C29_42  and  O8_43 
REMARK   26  A    between atoms: C29_42  and  C35_49 
ROOT
ATOM      1  C14 non d ame     -31.071  14.415  24.440  0.00  0.00     0.089 C 
ATOM      2  H20 non d ame     -30.011  14.159  24.462  0.00  0.00     0.087 H 
ENDROOT
BRANCH   1   3
ATOM      3  N4  non d ame     -31.821  13.198  24.711  0.00  0.00    -0.346 N 
ATOM      4  C10 non d ame     -31.299  11.862  24.247  0.00  0.00     0.241 C 
ATOM      5  O4  non d ame     -30.274  11.791  23.654  0.00  0.00    -0.271 OA
ATOM      6  H19 non d ame     -32.693  13.280  25.216  0.00  0.00     0.163 HD
BRANCH   4   7
ATOM      7  C9  non d ame     -32.086  10.612  24.542  0.00  0.00     0.092 C 
ATOM      8  H11 non d ame     -32.917  10.537  23.841  0.00  0.00     0.088 H 
BRANCH   7   9
ATOM      9  N3  non d ame     -31.235   9.437  24.331  0.00  0.00    -0.346 N 
ATOM     10  C7  non d ame     -31.367   8.659  23.124  0.00  0.00     0.240 C 
ATOM     11  O3  non d ame     -32.153   8.963  22.312  0.00  0.00    -0.271 OA
ATOM     12  H10 non d ame     -30.553   9.161  25.023  0.00  0.00     0.163 HD
BRANCH  10  13
ATOM     13  C6  non d ame     -30.460   7.408  22.907  0.00  0.00     0.086 C 
ATOM     14  H6  non d ame     -30.549   6.678  23.712  0.00  0.00     0.086 H 
BRANCH  13  15
ATOM     15  N2  non d ame     -30.872   6.733  21.687  0.00  0.00    -0.343 N 
ATOM     16  C5  non d ame     -31.822   5.620  21.764  0.00  0.00     0.273 C 
ATOM     17  O2  non d ame     -32.246   5.274  22.811  0.00  0.00    -0.266 OA
ATOM     18  H5  non d ame     -30.503   7.034  20.796  0.00  0.00     0.163 HD
BRANCH  16  19
ATOM     19  C4  non d ame     -32.267   4.899  20.482  0.00  0.00     0.154 A 
ATOM     20  C1  non d ame     -32.502   3.497  20.316  0.00  0.00    -0.017 A 
ATOM     21  C2  non d ame     -32.889   3.351  18.965  0.00  0.00     0.077 A 
ATOM     22  H1  non d ame     -32.406   2.707  21.061  0.00  0.00     0.091 H 
ATOM     23  O1  non d ame     -32.876   4.536  18.428  0.00  0.00    -0.218 OA
ATOM     24  N1  non d ame     -32.516   5.455  19.293  0.00  0.00    -0.123 NA
BRANCH  21  25
ATOM     25  C3  non d ame     -33.255   2.047  18.268  0.00  0.00    -0.029 C 
ATOM     26  H2  non d ame     -33.370   2.226  17.199  0.00  0.00     0.036 H 
ATOM     27  H3  non d ame     -32.464   1.315  18.431  0.00  0.00     0.036 H 
ATOM     28  H4  non d ame     -34.191   1.667  18.676  0.00  0.00     0.036 H 
ENDBRANCH  21  25
ENDBRANCH  16  19
ENDBRANCH  13  15
BRANCH  13  29
ATOM     29  C8  non d ame     -29.020   7.840  22.797  0.00  0.00    -0.049 C 
ATOM     30  H7  non d ame     -28.447   7.404  23.615  0.00  0.00     0.030 H 
ATOM     31  H8  non d ame     -28.611   7.501  21.845  0.00  0.00     0.030 H 
ATOM     32  H9  non d ame     -28.962   8.927  22.851  0.00  0.00     0.030 H 
ENDBRANCH  13  29
ENDBRANCH  10  13
ENDBRANCH   7   9
BRANCH   7  33
ATOM     33  C11 non d ame     -32.570  10.640  26.022  0.00  0.00    -0.033 C 
ATOM     34  H12 non d ame     -32.037  11.447  26.526  0.00  0.00     0.042 H 
BRANCH  33  35
ATOM     35  C12 non d ame     -34.095  10.955  26.115  0.00  0.00    -0.071 C 
ATOM     36  H13 non d ame     -34.274  11.645  26.940  0.00  0.00     0.028 H 
ATOM     37  H14 non d ame     -34.431  11.408  25.183  0.00  0.00     0.028 H 
ATOM     38  H15 non d ame     -34.647  10.031  26.290  0.00  0.00     0.028 H 
ENDBRANCH  33  35
BRANCH  33  39
ATOM     39  C13 non d ame     -32.221   9.302  26.750  0.00  0.00    -0.071 C 
ATOM     40  H16 non d ame     -33.068   8.991  27.362  0.00  0.00     0.028 H 
ATOM     41  H17 non d ame     -32.005   8.531  26.009  0.00  0.00     0.028 H 
ATOM     42  H18 non d ame     -31.348   9.450  27.384  0.00  0.00     0.028 H 
ENDBRANCH  33  39
ENDBRANCH   7  33
ENDBRANCH   4   7
ENDBRANCH   1   3
BRANCH   1  43
ATOM     43  C15 non d ame     -31.442  15.476  25.515  0.00  0.00     0.240 C 
ATOM     44  O5  non d ame     -31.081  16.601  25.384  0.00  0.00    -0.271 OA
ATOM     45  N6  non d ame     -32.254  15.091  26.704  0.00  0.00    -0.355 N 
ATOM     46  H46 non d ame     -32.570  14.140  26.824  0.00  0.00     0.162 HD
BRANCH  45  47
ATOM     47  C20 non d ame     -32.599  16.112  27.717  0.00  0.00     0.013 C 
ATOM     48  H30 non d ame     -31.908  16.947  27.601  0.00  0.00     0.072 H 
BRANCH  47  49
ATOM     49  C21 non d ame     -32.459  15.514  29.098  0.00  0.00    -0.038 C 
ATOM     50  H31 non d ame     -31.468  15.804  29.446  0.00  0.00     0.036 H 
ATOM     51  H32 non d ame     -33.345  15.832  29.648  0.00  0.00     0.036 H 
BRANCH  49  52
ATOM     52  C22 non d ame     -32.483  13.970  29.087  0.00  0.00     0.018 C 
ATOM     53  H33 non d ame     -33.502  13.688  29.347  0.00  0.00     0.048 H 
ATOM     54  H34 non d ame     -32.064  13.675  28.125  0.00  0.00     0.048 H 
BRANCH  52  55
ATOM     55  C23 non d ame     -31.572  13.322  30.167  0.00  0.00     0.259 C 
ATOM     56  O7  non d ame     -30.663  13.929  30.633  0.00  0.00    -0.265 OA
BRANCH  55  57
ATOM     57  O8  non d ame     -31.828  11.986  30.584  0.00  0.00    -0.317 OA
BRANCH  57  58
ATOM     58  C29 non d ame     -32.795  11.301  29.783  0.00  0.00     0.052 C 
ATOM     59  H47 non d ame     -33.348  12.080  29.258  0.00  0.00     0.082 H 
ATOM     60  H48 non d ame     -32.235  10.556  29.219  0.00  0.00     0.082 H 
BRANCH  58  61
ATOM     61  C35 non d ame     -33.771  10.563  30.737  0.00  0.00    -0.034 A 
ATOM     62  C30 non d ame     -34.121   9.240  30.489  0.00  0.00    -0.075 A 
ATOM     63  C31 non d ame     -34.998   8.577  31.345  0.00  0.00    -0.082 A 
ATOM     64  H49 non d ame     -33.708   8.722  29.623  0.00  0.00     0.084 H 
ATOM     65  C32 non d ame     -35.529   9.243  32.453  0.00  0.00    -0.083 A 
ATOM     66  H50 non d ame     -35.269   7.539  31.149  0.00  0.00     0.083 H 
ATOM     67  C33 non d ame     -35.180  10.565  32.695  0.00  0.00    -0.082 A 
ATOM     68  H51 non d ame     -36.215   8.732  33.129  0.00  0.00     0.083 H 
ATOM     69  C34 non d ame     -34.301  11.231  31.843  0.00  0.00    -0.075 A 
ATOM     70  H52 non d ame     -35.597  11.083  33.559  0.00  0.00     0.083 H 
ATOM     71  H53 non d ame     -34.031  12.269  32.040  0.00  0.00     0.084 H 
ENDBRANCH  58  61
ENDBRANCH  57  58
ENDBRANCH  55  57
ENDBRANCH  52  55
ENDBRANCH  49  52
ENDBRANCH  47  49
BRANCH  47  72
ATOM     72  C24 non d ame     -34.038  16.581  27.508  0.00  0.00    -0.039 C 
ATOM     73  H35 non d ame     -34.438  15.945  26.718  0.00  0.00     0.036 H 
ATOM     74  H36 non d ame     -34.493  16.572  28.498  0.00  0.00     0.036 H 
BRANCH  72  75
ATOM     75  C25 non d ame     -34.097  18.091  26.974  0.00  0.00    -0.001 C 
ATOM     76  C26 non d ame     -32.610  18.783  27.086  0.00  0.00    -0.035 C 
ATOM     77  C27 non d ame     -32.728  19.966  27.736  0.00  0.00     0.085 C 
ATOM     78  H38 non d ame     -31.972  18.194  27.744  0.00  0.00     0.036 H 
ATOM     79  H39 non d ame     -32.256  19.071  26.096  0.00  0.00     0.036 H 
ATOM     80  N5  non d ame     -34.101  19.991  28.364  0.00  0.00    -0.049 N 
ATOM     81  H40 non d ame     -31.976  19.941  28.525  0.00  0.00     0.075 H 
ATOM     82  H41 non d ame     -32.679  20.730  26.961  0.00  0.00     0.075 H 
ATOM     83  C28 non d ame     -34.931  18.797  27.662  0.00  0.00     0.193 C 
ATOM     84  H42 non d ame     -33.973  19.763  29.339  0.00  0.00     0.280 HD
ATOM     85  H43 non d ame     -34.519  20.872  28.101  0.00  0.00     0.280 HD
ATOM     86  H44 non d ame     -35.680  19.017  26.900  0.00  0.00     0.129 H 
ATOM     87  H37 non d ame     -34.610  18.169  26.015  0.00  0.00     0.046 H 
BRANCH  83  88
ATOM     88  O6  non d ame     -35.608  18.020  28.651  0.00  0.00    -0.369 OA
ATOM     89  H45 non d ame     -36.526  18.297  28.702  0.00  0.00     0.212 HD
ENDBRANCH  83  88
ENDBRANCH  72  75
ENDBRANCH  47  72
ENDBRANCH  45  47
ENDBRANCH   1  43
BRANCH   1  90
ATOM     90  C16 non d ame     -31.447  14.932  23.060  0.00  0.00    -0.035 C 
ATOM     91  H21 non d ame     -31.813  14.062  22.516  0.00  0.00     0.037 H 
ATOM     92  H22 non d ame     -32.107  15.780  23.240  0.00  0.00     0.037 H 
BRANCH  90  93
ATOM     93  C17 non d ame     -30.233  15.483  22.245  0.00  0.00    -0.059 C 
ATOM     94  H23 non d ame     -30.225  16.567  22.357  0.00  0.00     0.038 H 
BRANCH  93  95
ATOM     95  C18 non d ame     -28.869  14.938  22.779  0.00  0.00    -0.073 C 
ATOM     96  H24 non d ame     -29.041  14.031  23.357  0.00  0.00     0.028 H 
ATOM     97  H25 non d ame     -28.214  14.714  21.938  0.00  0.00     0.028 H 
ATOM     98  H26 non d ame     -28.401  15.691  23.414  0.00  0.00     0.028 H 
ENDBRANCH  93  95
BRANCH  93  99
ATOM     99  C19 non d ame     -30.394  15.180  20.753  0.00  0.00    -0.073 C 
ATOM    100  H27 non d ame     -31.166  15.826  20.333  0.00  0.00     0.028 H 
ATOM    101  H28 non d ame     -29.449  15.363  20.241  0.00  0.00     0.028 H 
ATOM    102  H29 non d ame     -30.681  14.137  20.623  0.00  0.00     0.028 H 
ENDBRANCH  93  99
ENDBRANCH  90  93
ENDBRANCH   1  90
TORSDOF 26
ENDMDL
MODEL 14
REMARK VINA RESULT:      -6.6      2.490      4.559
REMARK  26 active torsions:
REMARK  status: ('A' for Active; 'I' for Inactive)
REMARK    1  A    between atoms: C2_2  and  C3_3 
REMARK    2  A    between atoms: C4_6  and  C5_7 
REMARK       I    between atoms: C5_7  and  N2_9 
REMARK    3  A    between atoms: N2_9  and  C6_10 
REMARK    4  A    between atoms: C6_10  and  C7_11 
REMARK    5  A    between atoms: C6_10  and  C8_13 
REMARK       I    between atoms: C7_11  and  N3_14 
REMARK    6  A    between atoms: N3_14  and  C9_15 
REMARK    7  A    between atoms: C9_15  and  C10_16 
REMARK    8  A    between atoms: C9_15  and  C11_18 
REMARK       I    between atoms: C10_16  and  N4_21 
REMARK    9  A    between atoms: C11_18  and  C12_19 
REMARK   10  A    between atoms: C11_18  and  C13_20 
REMARK   11  A    between atoms: N4_21  and  C14_22 
REMARK   12  A    between atoms: C14_22  and  C15_23 
REMARK   13  A    between atoms: C14_22  and  C16_25 
REMARK       I    between atoms: C15_23  and  N6_40 
REMARK   14  A    between atoms: C16_25  and  C17_26 
REMARK   15  A    between atoms: C17_26  and  C18_27 
REMARK   16  A    between atoms: C17_26  and  C19_28 
REMARK   17  A    between atoms: C20_29  and  C21_30 
REMARK   18  A    between atoms: C20_29  and  C24_33 
REMARK   19  A    between atoms: C20_29  and  N6_40 
REMARK   20  A    between atoms: C21_30  and  C22_31 
REMARK   21  A    between atoms: C22_31  and  C23_32 
REMARK   22  A    between atoms: C23_32  and  O8_43 
REMARK   23  A    between atoms: C24_33  and  C25_34 
REMARK   24  A    between atoms: C28_38  and  O6_39 
REMARK   25  A    between atoms: C29_42  and  O8_43 
REMARK   26  A    between atoms: C29_42  and  C35_49 
ROOT
ATOM      1  C14 non d ame     -31.181  14.409  24.542  0.00  0.00     0.089 C 
ATOM      2  H20 non d ame     -30.251  13.861  24.696  0.00  0.00     0.087 H 
ENDROOT
BRANCH   1   3
ATOM      3  N4  non d ame     -32.268  13.442  24.571  0.00  0.00    -0.346 N 
ATOM      4  C10 non d ame     -32.235  12.287  25.541  0.00  0.00     0.241 C 
ATOM      5  O4  non d ame     -31.321  12.156  26.286  0.00  0.00    -0.271 OA
ATOM      6  H19 non d ame     -33.036  13.570  23.927  0.00  0.00     0.163 HD
BRANCH   4   7
ATOM      7  C9  non d ame     -33.372  11.299  25.562  0.00  0.00     0.092 C 
ATOM      8  H11 non d ame     -33.863  11.298  24.589  0.00  0.00     0.088 H 
BRANCH   7   9
ATOM      9  N3  non d ame     -32.843   9.950  25.783  0.00  0.00    -0.346 N 
ATOM     10  C7  non d ame     -32.937   8.960  24.738  0.00  0.00     0.240 C 
ATOM     11  O3  non d ame     -33.436   9.231  23.715  0.00  0.00    -0.271 OA
ATOM     12  H10 non d ame     -32.411   9.701  26.661  0.00  0.00     0.163 HD
BRANCH  10  13
ATOM     13  C6  non d ame     -32.375   7.524  24.980  0.00  0.00     0.086 C 
ATOM     14  H6  non d ame     -31.407   7.529  25.481  0.00  0.00     0.086 H 
BRANCH  13  15
ATOM     15  N2  non d ame     -33.288   6.801  25.849  0.00  0.00    -0.343 N 
ATOM     16  C5  non d ame     -33.300   7.091  27.285  0.00  0.00     0.273 C 
ATOM     17  O2  non d ame     -32.570   7.906  27.731  0.00  0.00    -0.266 OA
ATOM     18  H5  non d ame     -33.908   6.104  25.460  0.00  0.00     0.163 HD
BRANCH  16  19
ATOM     19  C4  non d ame     -34.262   6.335  28.215  0.00  0.00     0.154 A 
ATOM     20  C1  non d ame     -35.649   6.610  28.433  0.00  0.00    -0.017 A 
ATOM     21  C2  non d ame     -36.070   5.638  29.368  0.00  0.00     0.077 A 
ATOM     22  H1  non d ame     -36.257   7.394  27.982  0.00  0.00     0.091 H 
ATOM     23  O1  non d ame     -35.038   4.896  29.646  0.00  0.00    -0.218 OA
ATOM     24  N1  non d ame     -33.971   5.284  28.987  0.00  0.00    -0.123 NA
BRANCH  21  25
ATOM     25  C3  non d ame     -37.473   5.486  29.941  0.00  0.00    -0.029 C 
ATOM     26  H2  non d ame     -37.493   5.874  30.959  0.00  0.00     0.036 H 
ATOM     27  H3  non d ame     -38.178   6.044  29.326  0.00  0.00     0.036 H 
ATOM     28  H4  non d ame     -37.751   4.433  29.948  0.00  0.00     0.036 H 
ENDBRANCH  21  25
ENDBRANCH  16  19
ENDBRANCH  13  15
BRANCH  13  29
ATOM     29  C8  non d ame     -32.239   6.806  23.662  0.00  0.00    -0.049 C 
ATOM     30  H7  non d ame     -32.432   7.503  22.847  0.00  0.00     0.030 H 
ATOM     31  H8  non d ame     -31.229   6.408  23.568  0.00  0.00     0.030 H 
ATOM     32  H9  non d ame     -32.958   5.988  23.618  0.00  0.00     0.030 H 
ENDBRANCH  13  29
ENDBRANCH  10  13
ENDBRANCH   7   9
BRANCH   7  33
ATOM     33  C11 non d ame     -34.354  11.663  26.713  0.00  0.00    -0.033 C 
ATOM     34  H12 non d ame     -33.758  12.017  27.554  0.00  0.00     0.042 H 
BRANCH  33  35
ATOM     35  C12 non d ame     -35.313  12.823  26.297  0.00  0.00    -0.071 C 
ATOM     36  H13 non d ame     -35.735  12.611  25.315  0.00  0.00     0.028 H 
ATOM     37  H14 non d ame     -36.117  12.909  27.027  0.00  0.00     0.028 H 
ATOM     38  H15 non d ame     -34.755  13.759  26.258  0.00  0.00     0.028 H 
ENDBRANCH  33  35
BRANCH  33  39
ATOM     39  C13 non d ame     -35.156  10.407  27.183  0.00  0.00    -0.071 C 
ATOM     40  H16 non d ame     -34.639   9.504  26.856  0.00  0.00     0.028 H 
ATOM     41  H17 non d ame     -35.231  10.410  28.271  0.00  0.00     0.028 H 
ATOM     42  H18 non d ame     -36.156  10.431  26.750  0.00  0.00     0.028 H 
ENDBRANCH  33  39
ENDBRANCH   7  33
ENDBRANCH   4   7
ENDBRANCH   1   3
BRANCH   1  43
ATOM     43  C15 non d ame     -31.430  15.468  25.653  0.00  0.00     0.240 C 
ATOM     44  O5  non d ame     -30.979  16.562  25.538  0.00  0.00    -0.271 OA
ATOM     45  N6  non d ame     -32.240  15.123  26.856  0.00  0.00    -0.355 N 
ATOM     46  H46 non d ame     -32.633  14.199  26.962  0.00  0.00     0.162 HD
BRANCH  45  47
ATOM     47  C20 non d ame     -32.469  16.142  27.902  0.00  0.00     0.013 C 
ATOM     48  H30 non d ame     -31.789  16.973  27.716  0.00  0.00     0.072 H 
BRANCH  47  49
ATOM     49  C21 non d ame     -32.185  15.538  29.259  0.00  0.00    -0.038 C 
ATOM     50  H31 non d ame     -31.099  15.477  29.334  0.00  0.00     0.036 H 
ATOM     51  H32 non d ame     -32.748  16.139  29.973  0.00  0.00     0.036 H 
BRANCH  49  52
ATOM     52  C22 non d ame     -32.713  14.093  29.394  0.00  0.00     0.018 C 
ATOM     53  H33 non d ame     -33.388  14.103  30.249  0.00  0.00     0.048 H 
ATOM     54  H34 non d ame     -33.089  13.822  28.406  0.00  0.00     0.048 H 
BRANCH  52  55
ATOM     55  C23 non d ame     -31.610  13.052  29.732  0.00  0.00     0.259 C 
ATOM     56  O7  non d ame     -30.519  13.158  29.272  0.00  0.00    -0.265 OA
BRANCH  55  57
ATOM     57  O8  non d ame     -31.921  11.961  30.589  0.00  0.00    -0.317 OA
BRANCH  57  58
ATOM     58  C29 non d ame     -32.588  10.877  29.935  0.00  0.00     0.052 C 
ATOM     59  H47 non d ame     -33.057  11.311  29.051  0.00  0.00     0.082 H 
ATOM     60  H48 non d ame     -31.839  10.093  29.825  0.00  0.00     0.082 H 
BRANCH  58  61
ATOM     61  C35 non d ame     -33.704  10.360  30.880  0.00  0.00    -0.034 A 
ATOM     62  C30 non d ame     -34.193  11.178  31.894  0.00  0.00    -0.075 A 
ATOM     63  C31 non d ame     -35.195  10.714  32.744  0.00  0.00    -0.082 A 
ATOM     64  H49 non d ame     -33.790  12.183  32.023  0.00  0.00     0.084 H 
ATOM     65  C32 non d ame     -35.708   9.424  32.579  0.00  0.00    -0.083 A 
ATOM     66  H50 non d ame     -35.577  11.358  33.536  0.00  0.00     0.083 H 
ATOM     67  C33 non d ame     -35.215   8.611  31.568  0.00  0.00    -0.082 A 
ATOM     68  H51 non d ame     -36.493   9.054  33.238  0.00  0.00     0.083 H 
ATOM     69  C34 non d ame     -34.215   9.071  30.715  0.00  0.00    -0.075 A 
ATOM     70  H52 non d ame     -35.616   7.604  31.443  0.00  0.00     0.083 H 
ATOM     71  H53 non d ame     -33.833   8.426  29.923  0.00  0.00     0.084 H 
ENDBRANCH  58  61
ENDBRANCH  57  58
ENDBRANCH  55  57
ENDBRANCH  52  55
ENDBRANCH  49  52
ENDBRANCH  47  49
BRANCH  47  72
ATOM     72  C24 non d ame     -33.919  16.619  27.850  0.00  0.00    -0.039 C 
ATOM     73  H35 non d ame     -34.440  15.897  27.221  0.00  0.00     0.036 H 
ATOM     74  H36 non d ame     -34.218  16.752  28.890  0.00  0.00     0.036 H 
BRANCH  72  75
ATOM     75  C25 non d ame     -34.047  18.048  27.135  0.00  0.00    -0.001 C 
ATOM     76  C26 non d ame     -32.617  18.854  27.236  0.00  0.00    -0.035 C 
ATOM     77  C27 non d ame     -32.849  20.093  27.731  0.00  0.00     0.085 C 
ATOM     78  H38 non d ame     -31.980  18.393  27.990  0.00  0.00     0.036 H 
ATOM     79  H39 non d ame     -32.227  19.048  26.236  0.00  0.00     0.036 H 
ATOM     80  N5  non d ame     -34.254  20.092  28.284  0.00  0.00    -0.049 N 
ATOM     81  H40 non d ame     -32.144  20.215  28.553  0.00  0.00     0.075 H 
ATOM     82  H41 non d ame     -32.806  20.763  26.873  0.00  0.00     0.075 H 
ATOM     83  C28 non d ame     -34.963  18.768  27.691  0.00  0.00     0.193 C 
ATOM     84  H42 non d ame     -34.168  19.990  29.285  0.00  0.00     0.280 HD
ATOM     85  H43 non d ame     -34.714  20.904  27.896  0.00  0.00     0.280 HD
ATOM     86  H44 non d ame     -35.680  18.842  26.874  0.00  0.00     0.129 H 
ATOM     87  H37 non d ame     -34.508  17.976  26.150  0.00  0.00     0.046 H 
BRANCH  83  88
ATOM     88  O6  non d ame     -35.643  18.065  28.733  0.00  0.00    -0.369 OA
ATOM     89  H45 non d ame     -36.488  18.488  28.905  0.00  0.00     0.212 HD
ENDBRANCH  83  88
ENDBRANCH  72  75
ENDBRANCH  47  72
ENDBRANCH  45  47
ENDBRANCH   1  43
BRANCH   1  90
ATOM     90  C16 non d ame     -31.159  15.089  23.182  0.00  0.00    -0.035 C 
ATOM     91  H21 non d ame     -32.114  14.841  22.720  0.00  0.00     0.037 H 
ATOM     92  H22 non d ame     -30.904  16.129  23.384  0.00  0.00     0.037 H 
BRANCH  90  93
ATOM     93  C17 non d ame     -30.052  14.541  22.226  0.00  0.00    -0.059 C 
ATOM     94  H23 non d ame     -30.092  13.453  22.262  0.00  0.00     0.038 H 
BRANCH  93  95
ATOM     95  C18 non d ame     -30.284  14.978  20.744  0.00  0.00    -0.073 C 
ATOM     96  H24 non d ame     -30.043  16.035  20.634  0.00  0.00     0.028 H 
ATOM     97  H25 non d ame     -29.644  14.390  20.087  0.00  0.00     0.028 H 
ATOM     98  H26 non d ame     -31.328  14.814  20.477  0.00  0.00     0.028 H 
ENDBRANCH  93  95
BRANCH  93  99
ATOM     99  C19 non d ame     -28.659  14.960  22.705  0.00  0.00    -0.073 C 
ATOM    100  H27 non d ame     -28.582  16.048  22.691  0.00  0.00     0.028 H 
ATOM    101  H28 non d ame     -28.500  14.598  23.721  0.00  0.00     0.028 H 
ATOM    102  H29 non d ame     -27.904  14.534  22.045  0.00  0.00     0.028 H 
ENDBRANCH  93  99
ENDBRANCH  90  93
ENDBRANCH   1  90
TORSDOF 26
ENDMDL
MODEL 15
REMARK VINA RESULT:      -6.6      3.006      7.995
REMARK  26 active torsions:
REMARK  status: ('A' for Active; 'I' for Inactive)
REMARK    1  A    between atoms: C2_2  and  C3_3 
REMARK    2  A    between atoms: C4_6  and  C5_7 
REMARK       I    between atoms: C5_7  and  N2_9 
REMARK    3  A    between atoms: N2_9  and  C6_10 
REMARK    4  A    between atoms: C6_10  and  C7_11 
REMARK    5  A    between atoms: C6_10  and  C8_13 
REMARK       I    between atoms: C7_11  and  N3_14 
REMARK    6  A    between atoms: N3_14  and  C9_15 
REMARK    7  A    between atoms: C9_15  and  C10_16 
REMARK    8  A    between atoms: C9_15  and  C11_18 
REMARK       I    between atoms: C10_16  and  N4_21 
REMARK    9  A    between atoms: C11_18  and  C12_19 
REMARK   10  A    between atoms: C11_18  and  C13_20 
REMARK   11  A    between atoms: N4_21  and  C14_22 
REMARK   12  A    between atoms: C14_22  and  C15_23 
REMARK   13  A    between atoms: C14_22  and  C16_25 
REMARK       I    between atoms: C15_23  and  N6_40 
REMARK   14  A    between atoms: C16_25  and  C17_26 
REMARK   15  A    between atoms: C17_26  and  C18_27 
REMARK   16  A    between atoms: C17_26  and  C19_28 
REMARK   17  A    between atoms: C20_29  and  C21_30 
REMARK   18  A    between atoms: C20_29  and  C24_33 
REMARK   19  A    between atoms: C20_29  and  N6_40 
REMARK   20  A    between atoms: C21_30  and  C22_31 
REMARK   21  A    between atoms: C22_31  and  C23_32 
REMARK   22  A    between atoms: C23_32  and  O8_43 
REMARK   23  A    between atoms: C24_33  and  C25_34 
REMARK   24  A    between atoms: C28_38  and  O6_39 
REMARK   25  A    between atoms: C29_42  and  O8_43 
REMARK   26  A    between atoms: C29_42  and  C35_49 
ROOT
ATOM      1  C14 non d ame     -35.092   8.754  27.137  0.00  0.00     0.089 C 
ATOM      2  H20 non d ame     -34.943   7.990  27.901  0.00  0.00     0.087 H 
ENDROOT
BRANCH   1   3
ATOM      3  N4  non d ame     -34.080   9.780  27.341  0.00  0.00    -0.346 N 
ATOM      4  C10 non d ame     -33.340   9.870  28.651  0.00  0.00     0.241 C 
ATOM      5  O4  non d ame     -33.577   9.107  29.529  0.00  0.00    -0.271 OA
ATOM      6  H19 non d ame     -33.895  10.421  26.582  0.00  0.00     0.163 HD
BRANCH   4   7
ATOM      7  C9  non d ame     -32.292  10.935  28.842  0.00  0.00     0.092 C 
ATOM      8  H11 non d ame     -31.372  10.626  28.346  0.00  0.00     0.088 H 
BRANCH   7   9
ATOM      9  N3  non d ame     -32.734  12.177  28.202  0.00  0.00    -0.346 N 
ATOM     10  C7  non d ame     -31.950  12.759  27.140  0.00  0.00     0.240 C 
ATOM     11  O3  non d ame     -30.960  12.242  26.790  0.00  0.00    -0.271 OA
ATOM     12  H10 non d ame     -33.585  12.636  28.494  0.00  0.00     0.163 HD
BRANCH  10  13
ATOM     13  C6  non d ame     -32.424  14.083  26.464  0.00  0.00     0.086 C 
ATOM     14  H6  non d ame     -32.079  14.973  26.991  0.00  0.00     0.086 H 
BRANCH  13  15
ATOM     15  N2  non d ame     -31.869  14.153  25.122  0.00  0.00    -0.343 N 
ATOM     16  C5  non d ame     -31.186  15.373  24.687  0.00  0.00     0.273 C 
ATOM     17  O2  non d ame     -31.091  16.293  25.422  0.00  0.00    -0.266 OA
ATOM     18  H5  non d ame     -31.957  13.362  24.500  0.00  0.00     0.163 HD
BRANCH  16  19
ATOM     19  C4  non d ame     -30.593  15.459  23.272  0.00  0.00     0.154 A 
ATOM     20  C1  non d ame     -31.311  15.536  22.037  0.00  0.00    -0.017 A 
ATOM     21  C2  non d ame     -30.313  15.597  21.039  0.00  0.00     0.077 A 
ATOM     22  H1  non d ame     -32.391  15.545  21.887  0.00  0.00     0.091 H 
ATOM     23  O1  non d ame     -29.160  15.561  21.641  0.00  0.00    -0.218 OA
ATOM     24  N1  non d ame     -29.298  15.480  22.945  0.00  0.00    -0.123 NA
BRANCH  21  25
ATOM     25  C3  non d ame     -30.544  15.690  19.536  0.00  0.00    -0.029 C 
ATOM     26  H2  non d ame     -30.343  14.722  19.077  0.00  0.00     0.036 H 
ATOM     27  H3  non d ame     -31.578  15.975  19.345  0.00  0.00     0.036 H 
ATOM     28  H4  non d ame     -29.876  16.439  19.111  0.00  0.00     0.036 H 
ENDBRANCH  21  25
ENDBRANCH  16  19
ENDBRANCH  13  15
BRANCH  13  29
ATOM     29  C8  non d ame     -33.930  14.107  26.401  0.00  0.00    -0.049 C 
ATOM     30  H7  non d ame     -34.336  13.439  27.162  0.00  0.00     0.030 H 
ATOM     31  H8  non d ame     -34.285  15.121  26.583  0.00  0.00     0.030 H 
ATOM     32  H9  non d ame     -34.259  13.777  25.416  0.00  0.00     0.030 H 
ENDBRANCH  13  29
ENDBRANCH  10  13
ENDBRANCH   7   9
BRANCH   7  33
ATOM     33  C11 non d ame     -32.080  11.187  30.364  0.00  0.00    -0.033 C 
ATOM     34  H12 non d ame     -31.953  10.216  30.843  0.00  0.00     0.042 H 
BRANCH  33  35
ATOM     35  C12 non d ame     -30.783  12.013  30.628  0.00  0.00    -0.071 C 
ATOM     36  H13 non d ame     -30.350  11.715  31.583  0.00  0.00     0.028 H 
ATOM     37  H14 non d ame     -30.065  11.828  29.830  0.00  0.00     0.028 H 
ATOM     38  H15 non d ame     -31.028  13.075  30.657  0.00  0.00     0.028 H 
ENDBRANCH  33  35
BRANCH  33  39
ATOM     39  C13 non d ame     -33.330  11.878  30.996  0.00  0.00    -0.071 C 
ATOM     40  H16 non d ame     -33.801  11.198  31.707  0.00  0.00     0.028 H 
ATOM     41  H17 non d ame     -33.021  12.787  31.513  0.00  0.00     0.028 H 
ATOM     42  H18 non d ame     -34.041  12.132  30.210  0.00  0.00     0.028 H 
ENDBRANCH  33  39
ENDBRANCH   7  33
ENDBRANCH   4   7
ENDBRANCH   1   3
BRANCH   1  43
ATOM     43  C15 non d ame     -34.936   8.183  25.699  0.00  0.00     0.240 C 
ATOM     44  O5  non d ame     -35.900   7.863  25.082  0.00  0.00    -0.271 OA
ATOM     45  N6  non d ame     -33.584   8.044  25.085  0.00  0.00    -0.355 N 
ATOM     46  H46 non d ame     -32.758   8.318  25.597  0.00  0.00     0.162 HD
BRANCH  45  47
ATOM     47  C20 non d ame     -33.453   7.501  23.716  0.00  0.00     0.013 C 
ATOM     48  H30 non d ame     -34.453   7.263  23.352  0.00  0.00     0.072 H 
BRANCH  47  49
ATOM     49  C21 non d ame     -32.605   6.250  23.754  0.00  0.00    -0.038 C 
ATOM     50  H31 non d ame     -33.203   5.475  23.274  0.00  0.00     0.036 H 
ATOM     51  H32 non d ame     -31.641   6.535  23.333  0.00  0.00     0.036 H 
BRANCH  49  52
ATOM     52  C22 non d ame     -32.326   5.759  25.191  0.00  0.00     0.018 C 
ATOM     53  H33 non d ame     -31.335   5.308  25.161  0.00  0.00     0.048 H 
ATOM     54  H34 non d ame     -32.516   6.615  25.838  0.00  0.00     0.048 H 
BRANCH  52  55
ATOM     55  C23 non d ame     -33.291   4.639  25.668  0.00  0.00     0.259 C 
ATOM     56  O7  non d ame     -33.512   3.698  24.977  0.00  0.00    -0.265 OA
BRANCH  55  57
ATOM     57  O8  non d ame     -33.921   4.756  26.939  0.00  0.00    -0.317 OA
BRANCH  57  58
ATOM     58  C29 non d ame     -35.349   4.814  26.878  0.00  0.00     0.052 C 
ATOM     59  H47 non d ame     -35.582   5.615  26.176  0.00  0.00     0.082 H 
ATOM     60  H48 non d ame     -35.677   3.796  26.672  0.00  0.00     0.082 H 
BRANCH  58  61
ATOM     61  C35 non d ame     -35.871   5.223  28.281  0.00  0.00    -0.034 A 
ATOM     62  C30 non d ame     -34.992   5.736  29.230  0.00  0.00    -0.075 A 
ATOM     63  C31 non d ame     -35.461   6.103  30.490  0.00  0.00    -0.082 A 
ATOM     64  H49 non d ame     -33.935   5.849  28.986  0.00  0.00     0.084 H 
ATOM     65  C32 non d ame     -36.815   5.954  30.801  0.00  0.00    -0.083 A 
ATOM     66  H50 non d ame     -34.770   6.506  31.231  0.00  0.00     0.083 H 
ATOM     67  C33 non d ame     -37.688   5.439  29.852  0.00  0.00    -0.082 A 
ATOM     68  H51 non d ame     -37.191   6.239  31.784  0.00  0.00     0.083 H 
ATOM     69  C34 non d ame     -37.224   5.073  28.591  0.00  0.00    -0.075 A 
ATOM     70  H52 non d ame     -38.744   5.322  30.099  0.00  0.00     0.083 H 
ATOM     71  H53 non d ame     -37.916   4.670  27.851  0.00  0.00     0.084 H 
ENDBRANCH  58  61
ENDBRANCH  57  58
ENDBRANCH  55  57
ENDBRANCH  52  55
ENDBRANCH  49  52
ENDBRANCH  47  49
BRANCH  47  72
ATOM     72  C24 non d ame     -32.792   8.538  22.810  0.00  0.00    -0.039 C 
ATOM     73  H35 non d ame     -32.659   8.041  21.849  0.00  0.00     0.036 H 
ATOM     74  H36 non d ame     -33.419   9.427  22.881  0.00  0.00     0.036 H 
BRANCH  72  75
ATOM     75  C25 non d ame     -31.335   8.944  23.338  0.00  0.00    -0.001 C 
ATOM     76  C26 non d ame     -31.299  10.545  23.709  0.00  0.00    -0.035 C 
ATOM     77  C27 non d ame     -30.240  11.114  23.086  0.00  0.00     0.085 C 
ATOM     78  H38 non d ame     -32.157  11.051  23.266  0.00  0.00     0.036 H 
ATOM     79  H39 non d ame     -31.074  10.679  24.767  0.00  0.00     0.036 H 
ATOM     80  N5  non d ame     -29.742  10.119  22.066  0.00  0.00    -0.049 N 
ATOM     81  H40 non d ame     -30.640  11.985  22.567  0.00  0.00     0.075 H 
ATOM     82  H41 non d ame     -29.481  11.240  23.858  0.00  0.00     0.075 H 
ATOM     83  C28 non d ame     -30.432   8.710  22.445  0.00  0.00     0.193 C 
ATOM     84  H42 non d ame     -30.100  10.422  21.171  0.00  0.00     0.280 HD
ATOM     85  H43 non d ame     -28.745  10.038  22.209  0.00  0.00     0.280 HD
ATOM     86  H44 non d ame     -29.858   7.928  22.943  0.00  0.00     0.129 H 
ATOM     87  H37 non d ame     -30.962   8.251  24.094  0.00  0.00     0.046 H 
BRANCH  83  88
ATOM     88  O6  non d ame     -30.977   8.097  21.275  0.00  0.00    -0.369 OA
ATOM     89  H45 non d ame     -30.640   8.542  20.494  0.00  0.00     0.212 HD
ENDBRANCH  83  88
ENDBRANCH  72  75
ENDBRANCH  47  72
ENDBRANCH  45  47
ENDBRANCH   1  43
BRANCH   1  90
ATOM     90  C16 non d ame     -36.470   9.378  27.293  0.00  0.00    -0.035 C 
ATOM     91  H21 non d ame     -36.289  10.439  27.459  0.00  0.00     0.037 H 
ATOM     92  H22 non d ame     -37.035   9.051  26.420  0.00  0.00     0.037 H 
BRANCH  90  93
ATOM     93  C17 non d ame     -37.252   8.864  28.544  0.00  0.00    -0.059 C 
ATOM     94  H23 non d ame     -36.863   7.877  28.795  0.00  0.00     0.038 H 
BRANCH  93  95
ATOM     95  C18 non d ame     -37.047   9.787  29.787  0.00  0.00    -0.073 C 
ATOM     96  H24 non d ame     -36.755   9.182  30.645  0.00  0.00     0.028 H 
ATOM     97  H25 non d ame     -36.265  10.515  29.575  0.00  0.00     0.028 H 
ATOM     98  H26 non d ame     -37.978  10.308  30.010  0.00  0.00     0.028 H 
ENDBRANCH  93  95
BRANCH  93  99
ATOM     99  C19 non d ame     -38.741   8.699  28.227  0.00  0.00    -0.073 C 
ATOM    100  H27 non d ame     -38.930   9.005  27.198  0.00  0.00     0.028 H 
ATOM    101  H28 non d ame     -39.026   7.654  28.354  0.00  0.00     0.028 H 
ATOM    102  H29 non d ame     -39.327   9.319  28.905  0.00  0.00     0.028 H 
ENDBRANCH  93  99
ENDBRANCH  90  93
ENDBRANCH   1  90
TORSDOF 26
ENDMDL
MODEL 16
REMARK VINA RESULT:      -6.6      2.890      8.910
REMARK  26 active torsions:
REMARK  status: ('A' for Active; 'I' for Inactive)
REMARK    1  A    between atoms: C2_2  and  C3_3 
REMARK    2  A    between atoms: C4_6  and  C5_7 
REMARK       I    between atoms: C5_7  and  N2_9 
REMARK    3  A    between atoms: N2_9  and  C6_10 
REMARK    4  A    between atoms: C6_10  and  C7_11 
REMARK    5  A    between atoms: C6_10  and  C8_13 
REMARK       I    between atoms: C7_11  and  N3_14 
REMARK    6  A    between atoms: N3_14  and  C9_15 
REMARK    7  A    between atoms: C9_15  and  C10_16 
REMARK    8  A    between atoms: C9_15  and  C11_18 
REMARK       I    between atoms: C10_16  and  N4_21 
REMARK    9  A    between atoms: C11_18  and  C12_19 
REMARK   10  A    between atoms: C11_18  and  C13_20 
REMARK   11  A    between atoms: N4_21  and  C14_22 
REMARK   12  A    between atoms: C14_22  and  C15_23 
REMARK   13  A    between atoms: C14_22  and  C16_25 
REMARK       I    between atoms: C15_23  and  N6_40 
REMARK   14  A    between atoms: C16_25  and  C17_26 
REMARK   15  A    between atoms: C17_26  and  C18_27 
REMARK   16  A    between atoms: C17_26  and  C19_28 
REMARK   17  A    between atoms: C20_29  and  C21_30 
REMARK   18  A    between atoms: C20_29  and  C24_33 
REMARK   19  A    between atoms: C20_29  and  N6_40 
REMARK   20  A    between atoms: C21_30  and  C22_31 
REMARK   21  A    between atoms: C22_31  and  C23_32 
REMARK   22  A    between atoms: C23_32  and  O8_43 
REMARK   23  A    between atoms: C24_33  and  C25_34 
REMARK   24  A    between atoms: C28_38  and  O6_39 
REMARK   25  A    between atoms: C29_42  and  O8_43 
REMARK   26  A    between atoms: C29_42  and  C35_49 
ROOT
ATOM      1  C14 non d ame     -33.676   6.945  27.871  0.00  0.00     0.089 C 
ATOM      2  H20 non d ame     -33.159   6.582  28.760  0.00  0.00     0.087 H 
ENDROOT
BRANCH   1   3
ATOM      3  N4  non d ame     -34.229   8.253  28.189  0.00  0.00    -0.346 N 
ATOM      4  C10 non d ame     -34.814   8.522  29.553  0.00  0.00     0.241 C 
ATOM      5  O4  non d ame     -34.831   7.668  30.377  0.00  0.00    -0.271 OA
ATOM      6  H19 non d ame     -34.207   8.965  27.473  0.00  0.00     0.163 HD
BRANCH   4   7
ATOM      7  C9  non d ame     -35.377   9.883  29.867  0.00  0.00     0.092 C 
ATOM      8  H11 non d ame     -35.498   9.981  30.945  0.00  0.00     0.088 H 
BRANCH   7   9
ATOM      9  N3  non d ame     -34.426  10.915  29.442  0.00  0.00    -0.346 N 
ATOM     10  C7  non d ame     -33.289  11.232  30.271  0.00  0.00     0.240 C 
ATOM     11  O3  non d ame     -33.124  10.667  31.283  0.00  0.00    -0.271 OA
ATOM     12  H10 non d ame     -34.555  11.412  28.573  0.00  0.00     0.163 HD
BRANCH  10  13
ATOM     13  C6  non d ame     -32.282  12.333  29.816  0.00  0.00     0.086 C 
ATOM     14  H6  non d ame     -31.772  12.080  28.887  0.00  0.00     0.086 H 
BRANCH  13  15
ATOM     15  N2  non d ame     -33.012  13.565  29.568  0.00  0.00    -0.343 N 
ATOM     16  C5  non d ame     -32.403  14.610  28.742  0.00  0.00     0.273 C 
ATOM     17  O2  non d ame     -31.325  14.451  28.284  0.00  0.00    -0.266 OA
ATOM     18  H5  non d ame     -33.932  13.694  29.965  0.00  0.00     0.163 HD
BRANCH  16  19
ATOM     19  C4  non d ame     -33.164  15.917  28.470  0.00  0.00     0.154 A 
ATOM     20  C1  non d ame     -34.483  16.054  27.932  0.00  0.00    -0.017 A 
ATOM     21  C2  non d ame     -34.712  17.447  27.882  0.00  0.00     0.077 A 
ATOM     22  H1  non d ame     -35.169  15.264  27.626  0.00  0.00     0.091 H 
ATOM     23  O1  non d ame     -33.645  18.032  28.340  0.00  0.00    -0.218 OA
ATOM     24  N1  non d ame     -32.727  17.161  28.689  0.00  0.00    -0.123 NA
BRANCH  21  25
ATOM     25  C3  non d ame     -35.977  18.135  27.384  0.00  0.00    -0.029 C 
ATOM     26  H2  non d ame     -36.742  18.095  28.158  0.00  0.00     0.036 H 
ATOM     27  H3  non d ame     -35.754  19.176  27.147  0.00  0.00     0.036 H 
ATOM     28  H4  non d ame     -36.338  17.629  26.489  0.00  0.00     0.036 H 
ENDBRANCH  21  25
ENDBRANCH  16  19
ENDBRANCH  13  15
BRANCH  13  29
ATOM     29  C8  non d ame     -31.251  12.552  30.894  0.00  0.00    -0.049 C 
ATOM     30  H7  non d ame     -31.189  13.615  31.127  0.00  0.00     0.030 H 
ATOM     31  H8  non d ame     -31.538  12.000  31.788  0.00  0.00     0.030 H 
ATOM     32  H9  non d ame     -30.280  12.199  30.545  0.00  0.00     0.030 H 
ENDBRANCH  13  29
ENDBRANCH  10  13
ENDBRANCH   7   9
BRANCH   7  33
ATOM     33  C11 non d ame     -36.721  10.076  29.106  0.00  0.00    -0.033 C 
ATOM     34  H12 non d ame     -37.020   9.104  28.714  0.00  0.00     0.042 H 
BRANCH  33  35
ATOM     35  C12 non d ame     -37.852  10.563  30.065  0.00  0.00    -0.071 C 
ATOM     36  H13 non d ame     -38.071  11.612  29.866  0.00  0.00     0.028 H 
ATOM     37  H14 non d ame     -38.749   9.967  29.901  0.00  0.00     0.028 H 
ATOM     38  H15 non d ame     -37.525  10.450  31.099  0.00  0.00     0.028 H 
ENDBRANCH  33  35
BRANCH  33  39
ATOM     39  C13 non d ame     -36.545  11.051  27.898  0.00  0.00    -0.071 C 
ATOM     40  H16 non d ame     -35.867  11.857  28.177  0.00  0.00     0.028 H 
ATOM     41  H17 non d ame     -36.132  10.506  27.048  0.00  0.00     0.028 H 
ATOM     42  H18 non d ame     -37.514  11.468  27.624  0.00  0.00     0.028 H 
ENDBRANCH  33  39
ENDBRANCH   7  33
ENDBRANCH   4   7
ENDBRANCH   1   3
BRANCH   1  43
ATOM     43  C15 non d ame     -32.717   7.095  26.655  0.00  0.00     0.240 C 
ATOM     44  O5  non d ame     -31.803   6.346  26.527  0.00  0.00    -0.271 OA
ATOM     45  N6  non d ame     -32.944   8.167  25.645  0.00  0.00    -0.355 N 
ATOM     46  H46 non d ame     -33.720   8.807  25.740  0.00  0.00     0.162 HD
BRANCH  45  47
ATOM     47  C20 non d ame     -32.024   8.296  24.494  0.00  0.00     0.013 C 
ATOM     48  H30 non d ame     -31.024   8.027  24.832  0.00  0.00     0.072 H 
BRANCH  47  49
ATOM     49  C21 non d ame     -32.036   9.726  24.002  0.00  0.00    -0.038 C 
ATOM     50  H31 non d ame     -31.445   9.727  23.085  0.00  0.00     0.036 H 
ATOM     51  H32 non d ame     -33.086  10.018  23.974  0.00  0.00     0.036 H 
BRANCH  49  52
ATOM     52  C22 non d ame     -31.336  10.700  24.974  0.00  0.00     0.018 C 
ATOM     53  H33 non d ame     -30.956  10.083  25.787  0.00  0.00     0.048 H 
ATOM     54  H34 non d ame     -30.646  11.282  24.363  0.00  0.00     0.048 H 
BRANCH  52  55
ATOM     55  C23 non d ame     -32.298  11.728  25.631  0.00  0.00     0.259 C 
ATOM     56  O7  non d ame     -33.000  11.406  26.535  0.00  0.00    -0.265 OA
BRANCH  55  57
ATOM     57  O8  non d ame     -32.342  13.059  25.132  0.00  0.00    -0.317 OA
BRANCH  57  58
ATOM     58  C29 non d ame     -31.074  13.721  25.126  0.00  0.00     0.052 C 
ATOM     59  H47 non d ame     -31.190  14.587  25.777  0.00  0.00     0.082 H 
ATOM     60  H48 non d ame     -30.339  12.953  25.368  0.00  0.00     0.082 H 
BRANCH  58  61
ATOM     61  C35 non d ame     -30.802  14.223  23.683  0.00  0.00    -0.034 A 
ATOM     62  C30 non d ame     -31.359  15.421  23.247  0.00  0.00    -0.075 A 
ATOM     63  C31 non d ame     -31.115  15.873  21.950  0.00  0.00    -0.082 A 
ATOM     64  H49 non d ame     -31.986  16.006  23.920  0.00  0.00     0.084 H 
ATOM     65  C32 non d ame     -30.313  15.120  21.088  0.00  0.00    -0.083 A 
ATOM     66  H50 non d ame     -31.552  16.813  21.612  0.00  0.00     0.083 H 
ATOM     67  C33 non d ame     -29.763  13.923  21.527  0.00  0.00    -0.082 A 
ATOM     68  H51 non d ame     -30.117  15.466  20.073  0.00  0.00     0.083 H 
ATOM     69  C34 non d ame     -30.002  13.469  22.823  0.00  0.00    -0.075 A 
ATOM     70  H52 non d ame     -29.140  13.337  20.852  0.00  0.00     0.083 H 
ATOM     71  H53 non d ame     -29.565  12.529  23.161  0.00  0.00     0.084 H 
ENDBRANCH  58  61
ENDBRANCH  57  58
ENDBRANCH  55  57
ENDBRANCH  52  55
ENDBRANCH  49  52
ENDBRANCH  47  49
BRANCH  47  72
ATOM     72  C24 non d ame     -32.473   7.366  23.368  0.00  0.00    -0.039 C 
ATOM     73  H35 non d ame     -31.644   6.674  23.216  0.00  0.00     0.036 H 
ATOM     74  H36 non d ame     -33.448   6.988  23.675  0.00  0.00     0.036 H 
BRANCH  72  75
ATOM     75  C25 non d ame     -32.685   8.159  21.993  0.00  0.00    -0.001 C 
ATOM     76  C26 non d ame     -34.288   8.247  21.639  0.00  0.00    -0.035 C 
ATOM     77  C27 non d ame     -34.479   7.816  20.369  0.00  0.00     0.085 C 
ATOM     78  H38 non d ame     -34.843   7.527  22.238  0.00  0.00     0.036 H 
ATOM     79  H39 non d ame     -34.607   9.289  21.604  0.00  0.00     0.036 H 
ATOM     80  N5  non d ame     -33.202   7.135  19.937  0.00  0.00    -0.049 N 
ATOM     81  H40 non d ame     -35.275   7.074  20.430  0.00  0.00     0.075 H 
ATOM     82  H41 non d ame     -34.619   8.717  19.773  0.00  0.00     0.075 H 
ATOM     83  C28 non d ame     -32.082   7.569  21.015  0.00  0.00     0.193 C 
ATOM     84  H42 non d ame     -33.364   6.142  20.023  0.00  0.00     0.280 HD
ATOM     85  H43 non d ame     -32.957   7.531  19.041  0.00  0.00     0.280 HD
ATOM     86  H44 non d ame     -31.332   8.319  20.763  0.00  0.00     0.129 H 
ATOM     87  H37 non d ame     -32.118   9.090  21.961  0.00  0.00     0.046 H 
BRANCH  83  88
ATOM     88  O6  non d ame     -31.346   6.424  21.448  0.00  0.00    -0.369 OA
ATOM     89  H45 non d ame     -31.869   5.928  22.083  0.00  0.00     0.212 HD
ENDBRANCH  83  88
ENDBRANCH  72  75
ENDBRANCH  47  72
ENDBRANCH  45  47
ENDBRANCH   1  43
BRANCH   1  90
ATOM     90  C16 non d ame     -34.811   6.000  27.513  0.00  0.00    -0.035 C 
ATOM     91  H21 non d ame     -35.693   6.407  28.008  0.00  0.00     0.037 H 
ATOM     92  H22 non d ame     -34.786   5.917  26.427  0.00  0.00     0.037 H 
BRANCH  90  93
ATOM     93  C17 non d ame     -34.622   4.554  28.072  0.00  0.00    -0.059 C 
ATOM     94  H23 non d ame     -35.582   4.224  28.469  0.00  0.00     0.038 H 
BRANCH  93  95
ATOM     95  C18 non d ame     -34.195   3.543  26.959  0.00  0.00    -0.073 C 
ATOM     96  H24 non d ame     -34.217   4.040  25.989  0.00  0.00     0.028 H 
ATOM     97  H25 non d ame     -33.186   3.186  27.160  0.00  0.00     0.028 H 
ATOM     98  H26 non d ame     -34.885   2.700  26.951  0.00  0.00     0.028 H 
ENDBRANCH  93  95
BRANCH  93  99
ATOM     99  C19 non d ame     -33.622   4.541  29.231  0.00  0.00    -0.073 C 
ATOM    100  H27 non d ame     -33.626   3.559  29.704  0.00  0.00     0.028 H 
ATOM    101  H28 non d ame     -32.623   4.758  28.852  0.00  0.00     0.028 H 
ATOM    102  H29 non d ame     -33.904   5.299  29.962  0.00  0.00     0.028 H 
ENDBRANCH  93  99
ENDBRANCH  90  93
ENDBRANCH   1  90
TORSDOF 26
ENDMDL
MODEL 17
REMARK VINA RESULT:      -6.6      2.952      6.883
REMARK  26 active torsions:
REMARK  status: ('A' for Active; 'I' for Inactive)
REMARK    1  A    between atoms: C2_2  and  C3_3 
REMARK    2  A    between atoms: C4_6  and  C5_7 
REMARK       I    between atoms: C5_7  and  N2_9 
REMARK    3  A    between atoms: N2_9  and  C6_10 
REMARK    4  A    between atoms: C6_10  and  C7_11 
REMARK    5  A    between atoms: C6_10  and  C8_13 
REMARK       I    between atoms: C7_11  and  N3_14 
REMARK    6  A    between atoms: N3_14  and  C9_15 
REMARK    7  A    between atoms: C9_15  and  C10_16 
REMARK    8  A    between atoms: C9_15  and  C11_18 
REMARK       I    between atoms: C10_16  and  N4_21 
REMARK    9  A    between atoms: C11_18  and  C12_19 
REMARK   10  A    between atoms: C11_18  and  C13_20 
REMARK   11  A    between atoms: N4_21  and  C14_22 
REMARK   12  A    between atoms: C14_22  and  C15_23 
REMARK   13  A    between atoms: C14_22  and  C16_25 
REMARK       I    between atoms: C15_23  and  N6_40 
REMARK   14  A    between atoms: C16_25  and  C17_26 
REMARK   15  A    between atoms: C17_26  and  C18_27 
REMARK   16  A    between atoms: C17_26  and  C19_28 
REMARK   17  A    between atoms: C20_29  and  C21_30 
REMARK   18  A    between atoms: C20_29  and  C24_33 
REMARK   19  A    between atoms: C20_29  and  N6_40 
REMARK   20  A    between atoms: C21_30  and  C22_31 
REMARK   21  A    between atoms: C22_31  and  C23_32 
REMARK   22  A    between atoms: C23_32  and  O8_43 
REMARK   23  A    between atoms: C24_33  and  C25_34 
REMARK   24  A    between atoms: C28_38  and  O6_39 
REMARK   25  A    between atoms: C29_42  and  O8_43 
REMARK   26  A    between atoms: C29_42  and  C35_49 
ROOT
ATOM      1  C14 non d ame     -30.973  13.797  24.059  0.00  0.00     0.089 C 
ATOM      2  H20 non d ame     -29.986  13.700  24.512  0.00  0.00     0.087 H 
ENDROOT
BRANCH   1   3
ATOM      3  N4  non d ame     -31.584  12.476  24.053  0.00  0.00    -0.346 N 
ATOM      4  C10 non d ame     -31.502  11.593  25.272  0.00  0.00     0.241 C 
ATOM      5  O4  non d ame     -30.937  11.966  26.247  0.00  0.00    -0.271 OA
ATOM      6  H19 non d ame     -32.058  12.176  23.213  0.00  0.00     0.163 HD
BRANCH   4   7
ATOM      7  C9  non d ame     -32.145  10.231  25.250  0.00  0.00     0.092 C 
ATOM      8  H11 non d ame     -32.998  10.249  24.572  0.00  0.00     0.088 H 
BRANCH   7   9
ATOM      9  N3  non d ame     -31.193   9.249  24.722  0.00  0.00    -0.346 N 
ATOM     10  C7  non d ame     -31.013   9.114  23.297  0.00  0.00     0.240 C 
ATOM     11  O3  non d ame     -31.627   9.786  22.562  0.00  0.00    -0.271 OA
ATOM     12  H10 non d ame     -30.657   8.662  25.344  0.00  0.00     0.163 HD
BRANCH  10  13
ATOM     13  C6  non d ame     -30.000   8.066  22.741  0.00  0.00     0.086 C 
ATOM     14  H6  non d ame     -29.493   7.510  23.530  0.00  0.00     0.086 H 
BRANCH  13  15
ATOM     15  N2  non d ame     -30.723   7.090  21.943  0.00  0.00    -0.343 N 
ATOM     16  C5  non d ame     -31.567   6.095  22.610  0.00  0.00     0.273 C 
ATOM     17  O2  non d ame     -31.655   6.088  23.788  0.00  0.00    -0.266 OA
ATOM     18  H5  non d ame     -30.639   7.102  20.936  0.00  0.00     0.163 HD
BRANCH  16  19
ATOM     19  C4  non d ame     -32.338   5.058  21.778  0.00  0.00     0.154 A 
ATOM     20  C1  non d ame     -32.257   4.850  20.365  0.00  0.00    -0.017 A 
ATOM     21  C2  non d ame     -33.154   3.791  20.101  0.00  0.00     0.077 A 
ATOM     22  H1  non d ame     -31.641   5.385  19.641  0.00  0.00     0.091 H 
ATOM     23  O1  non d ame     -33.682   3.439  21.237  0.00  0.00    -0.218 OA
ATOM     24  N1  non d ame     -33.222   4.164  22.230  0.00  0.00    -0.123 NA
BRANCH  21  25
ATOM     25  C3  non d ame     -33.448   3.175  18.740  0.00  0.00    -0.029 C 
ATOM     26  H2  non d ame     -33.286   2.099  18.785  0.00  0.00     0.036 H 
ATOM     27  H3  non d ame     -34.483   3.376  18.466  0.00  0.00     0.036 H 
ATOM     28  H4  non d ame     -32.784   3.611  17.993  0.00  0.00     0.036 H 
ENDBRANCH  21  25
ENDBRANCH  16  19
ENDBRANCH  13  15
BRANCH  13  29
ATOM     29  C8  non d ame     -28.966   8.762  21.893  0.00  0.00    -0.049 C 
ATOM     30  H7  non d ame     -28.760   8.163  21.006  0.00  0.00     0.030 H 
ATOM     31  H8  non d ame     -29.342   9.740  21.592  0.00  0.00     0.030 H 
ATOM     32  H9  non d ame     -28.048   8.887  22.469  0.00  0.00     0.030 H 
ENDBRANCH  13  29
ENDBRANCH  10  13
ENDBRANCH   7   9
BRANCH   7  33
ATOM     33  C11 non d ame     -32.554   9.827  26.697  0.00  0.00    -0.033 C 
ATOM     34  H12 non d ame     -31.832  10.275  27.380  0.00  0.00     0.042 H 
BRANCH  33  35
ATOM     35  C12 non d ame     -33.962  10.388  27.067  0.00  0.00    -0.071 C 
ATOM     36  H13 non d ame     -34.216  11.206  26.393  0.00  0.00     0.028 H 
ATOM     37  H14 non d ame     -34.705   9.596  26.974  0.00  0.00     0.028 H 
ATOM     38  H15 non d ame     -33.948  10.755  28.093  0.00  0.00     0.028 H 
ENDBRANCH  33  35
BRANCH  33  39
ATOM     39  C13 non d ame     -32.496   8.276  26.882  0.00  0.00    -0.071 C 
ATOM     40  H16 non d ame     -31.586   8.009  27.419  0.00  0.00     0.028 H 
ATOM     41  H17 non d ame     -33.365   7.945  27.451  0.00  0.00     0.028 H 
ATOM     42  H18 non d ame     -32.497   7.793  25.904  0.00  0.00     0.028 H 
ENDBRANCH  33  39
ENDBRANCH   7  33
ENDBRANCH   4   7
ENDBRANCH   1   3
BRANCH   1  43
ATOM     43  C15 non d ame     -31.893  14.764  24.859  0.00  0.00     0.240 C 
ATOM     44  O5  non d ame     -32.779  15.330  24.305  0.00  0.00    -0.271 OA
ATOM     45  N6  non d ame     -31.673  14.978  26.318  0.00  0.00    -0.355 N 
ATOM     46  H46 non d ame     -30.927  14.500  26.800  0.00  0.00     0.162 HD
BRANCH  45  47
ATOM     47  C20 non d ame     -32.557  15.900  27.064  0.00  0.00     0.013 C 
ATOM     48  H30 non d ame     -33.551  15.845  26.620  0.00  0.00     0.072 H 
BRANCH  47  49
ATOM     49  C21 non d ame     -32.019  17.309  26.952  0.00  0.00    -0.038 C 
ATOM     50  H31 non d ame     -31.678  17.574  27.953  0.00  0.00     0.036 H 
ATOM     51  H32 non d ame     -31.312  17.288  26.122  0.00  0.00     0.036 H 
BRANCH  49  52
ATOM     52  C22 non d ame     -33.107  18.337  26.574  0.00  0.00     0.018 C 
ATOM     53  H33 non d ame     -32.592  19.122  26.020  0.00  0.00     0.048 H 
ATOM     54  H34 non d ame     -33.902  17.764  26.095  0.00  0.00     0.048 H 
BRANCH  52  55
ATOM     55  C23 non d ame     -33.760  19.037  27.798  0.00  0.00     0.259 C 
ATOM     56  O7  non d ame     -33.312  20.051  28.224  0.00  0.00    -0.265 OA
BRANCH  55  57
ATOM     57  O8  non d ame     -34.896  18.443  28.415  0.00  0.00    -0.317 OA
BRANCH  57  58
ATOM     58  C29 non d ame     -36.113  18.614  27.682  0.00  0.00     0.052 C 
ATOM     59  H47 non d ame     -36.909  18.603  28.427  0.00  0.00     0.082 H 
ATOM     60  H48 non d ame     -35.961  19.495  27.059  0.00  0.00     0.082 H 
BRANCH  58  61
ATOM     61  C35 non d ame     -36.291  17.382  26.755  0.00  0.00    -0.034 A 
ATOM     62  C30 non d ame     -36.129  16.098  27.265  0.00  0.00    -0.075 A 
ATOM     63  C31 non d ame     -36.289  14.991  26.432  0.00  0.00    -0.082 A 
ATOM     64  H49 non d ame     -35.877  15.958  28.316  0.00  0.00     0.084 H 
ATOM     65  C32 non d ame     -36.608  15.173  25.084  0.00  0.00    -0.083 A 
ATOM     66  H50 non d ame     -36.163  13.986  26.834  0.00  0.00     0.083 H 
ATOM     67  C33 non d ame     -36.765  16.456  24.579  0.00  0.00    -0.082 A 
ATOM     68  H51 non d ame     -36.735  14.313  24.426  0.00  0.00     0.083 H 
ATOM     69  C34 non d ame     -36.609  17.565  25.408  0.00  0.00    -0.075 A 
ATOM     70  H52 non d ame     -37.012  16.595  23.526  0.00  0.00     0.083 H 
ATOM     71  H53 non d ame     -36.735  18.570  25.005  0.00  0.00     0.084 H 
ENDBRANCH  58  61
ENDBRANCH  57  58
ENDBRANCH  55  57
ENDBRANCH  52  55
ENDBRANCH  49  52
ENDBRANCH  47  49
BRANCH  47  72
ATOM     72  C24 non d ame     -32.609  15.489  28.534  0.00  0.00    -0.039 C 
ATOM     73  H35 non d ame     -32.346  16.386  29.095  0.00  0.00     0.036 H 
ATOM     74  H36 non d ame     -33.587  15.028  28.672  0.00  0.00     0.036 H 
BRANCH  72  75
ATOM     75  C25 non d ame     -31.509  14.377  28.877  0.00  0.00    -0.001 C 
ATOM     76  C26 non d ame     -32.247  12.958  29.259  0.00  0.00    -0.035 C 
ATOM     77  C27 non d ame     -31.753  12.512  30.438  0.00  0.00     0.085 C 
ATOM     78  H38 non d ame     -33.302  13.131  29.473  0.00  0.00     0.036 H 
ATOM     79  H39 non d ame     -31.955  12.182  28.551  0.00  0.00     0.036 H 
ATOM     80  N5  non d ame     -30.986  13.656  31.056  0.00  0.00    -0.049 N 
ATOM     81  H40 non d ame     -32.625  12.293  31.055  0.00  0.00     0.075 H 
ATOM     82  H41 non d ame     -31.056  11.716  30.179  0.00  0.00     0.075 H 
ATOM     83  C28 non d ame     -30.775  14.738  29.877  0.00  0.00     0.193 C 
ATOM     84  H42 non d ame     -31.590  14.059  31.758  0.00  0.00     0.280 HD
ATOM     85  H43 non d ame     -30.084  13.286  31.318  0.00  0.00     0.280 HD
ATOM     86  H44 non d ame     -29.807  14.840  29.385  0.00  0.00     0.129 H 
ATOM     87  H37 non d ame     -30.714  14.337  28.132  0.00  0.00     0.046 H 
BRANCH  83  88
ATOM     88  O6  non d ame     -31.107  16.047  30.343  0.00  0.00    -0.369 OA
ATOM     89  H45 non d ame     -31.159  16.041  31.302  0.00  0.00     0.212 HD
ENDBRANCH  83  88
ENDBRANCH  72  75
ENDBRANCH  47  72
ENDBRANCH  45  47
ENDBRANCH   1  43
BRANCH   1  90
ATOM     90  C16 non d ame     -30.837  14.288  22.627  0.00  0.00    -0.035 C 
ATOM     91  H21 non d ame     -30.499  13.423  22.056  0.00  0.00     0.037 H 
ATOM     92  H22 non d ame     -31.792  14.757  22.391  0.00  0.00     0.037 H 
BRANCH  90  93
ATOM     93  C17 non d ame     -29.746  15.390  22.443  0.00  0.00    -0.059 C 
ATOM     94  H23 non d ame     -29.944  16.176  23.172  0.00  0.00     0.038 H 
BRANCH  93  95
ATOM     95  C18 non d ame     -28.306  14.845  22.710  0.00  0.00    -0.073 C 
ATOM     96  H24 non d ame     -27.840  15.425  23.506  0.00  0.00     0.028 H 
ATOM     97  H25 non d ame     -28.364  13.799  23.009  0.00  0.00     0.028 H 
ATOM     98  H26 non d ame     -27.711  14.931  21.801  0.00  0.00     0.028 H 
ENDBRANCH  93  95
BRANCH  93  99
ATOM     99  C19 non d ame     -29.839  16.025  21.053  0.00  0.00    -0.073 C 
ATOM    100  H27 non d ame     -30.176  15.278  20.334  0.00  0.00     0.028 H 
ATOM    101  H28 non d ame     -30.549  16.852  21.078  0.00  0.00     0.028 H 
ATOM    102  H29 non d ame     -28.859  16.398  20.758  0.00  0.00     0.028 H 
ENDBRANCH  93  99
ENDBRANCH  90  93
ENDBRANCH   1  90
TORSDOF 26
ENDMDL
MODEL 18
REMARK VINA RESULT:      -6.4      1.677      5.286
REMARK  26 active torsions:
REMARK  status: ('A' for Active; 'I' for Inactive)
REMARK    1  A    between atoms: C2_2  and  C3_3 
REMARK    2  A    between atoms: C4_6  and  C5_7 
REMARK       I    between atoms: C5_7  and  N2_9 
REMARK    3  A    between atoms: N2_9  and  C6_10 
REMARK    4  A    between atoms: C6_10  and  C7_11 
REMARK    5  A    between atoms: C6_10  and  C8_13 
REMARK       I    between atoms: C7_11  and  N3_14 
REMARK    6  A    between atoms: N3_14  and  C9_15 
REMARK    7  A    between atoms: C9_15  and  C10_16 
REMARK    8  A    between atoms: C9_15  and  C11_18 
REMARK       I    between atoms: C10_16  and  N4_21 
REMARK    9  A    between atoms: C11_18  and  C12_19 
REMARK   10  A    between atoms: C11_18  and  C13_20 
REMARK   11  A    between atoms: N4_21  and  C14_22 
REMARK   12  A    between atoms: C14_22  and  C15_23 
REMARK   13  A    between atoms: C14_22  and  C16_25 
REMARK       I    between atoms: C15_23  and  N6_40 
REMARK   14  A    between atoms: C16_25  and  C17_26 
REMARK   15  A    between atoms: C17_26  and  C18_27 
REMARK   16  A    between atoms: C17_26  and  C19_28 
REMARK   17  A    between atoms: C20_29  and  C21_30 
REMARK   18  A    between atoms: C20_29  and  C24_33 
REMARK   19  A    between atoms: C20_29  and  N6_40 
REMARK   20  A    between atoms: C21_30  and  C22_31 
REMARK   21  A    between atoms: C22_31  and  C23_32 
REMARK   22  A    between atoms: C23_32  and  O8_43 
REMARK   23  A    between atoms: C24_33  and  C25_34 
REMARK   24  A    between atoms: C28_38  and  O6_39 
REMARK   25  A    between atoms: C29_42  and  O8_43 
REMARK   26  A    between atoms: C29_42  and  C35_49 
ROOT
ATOM      1  C14 non d ame     -32.326   9.217  23.939  0.00  0.00     0.089 C 
ATOM      2  H20 non d ame     -31.891   8.346  24.431  0.00  0.00     0.087 H 
ENDROOT
BRANCH   1   3
ATOM      3  N4  non d ame     -33.632   9.450  24.537  0.00  0.00    -0.346 N 
ATOM      4  C10 non d ame     -33.881   9.102  25.983  0.00  0.00     0.241 C 
ATOM      5  O4  non d ame     -33.014   8.633  26.645  0.00  0.00    -0.271 OA
ATOM      6  H19 non d ame     -34.357   9.847  23.956  0.00  0.00     0.163 HD
BRANCH   4   7
ATOM      7  C9  non d ame     -35.237   9.356  26.588  0.00  0.00     0.092 C 
ATOM      8  H11 non d ame     -35.124   9.543  27.655  0.00  0.00     0.088 H 
BRANCH   7   9
ATOM      9  N3  non d ame     -35.818  10.564  25.995  0.00  0.00    -0.346 N 
ATOM     10  C7  non d ame     -35.640  11.841  26.642  0.00  0.00     0.240 C 
ATOM     11  O3  non d ame     -35.033  11.914  27.640  0.00  0.00    -0.271 OA
ATOM     12  H10 non d ame     -36.346  10.516  25.135  0.00  0.00     0.163 HD
BRANCH  10  13
ATOM     13  C6  non d ame     -36.264  13.123  26.008  0.00  0.00     0.086 C 
ATOM     14  H6  non d ame     -37.090  13.524  26.594  0.00  0.00     0.086 H 
BRANCH  13  15
ATOM     15  N2  non d ame     -35.250  14.163  25.952  0.00  0.00    -0.343 N 
ATOM     16  C5  non d ame     -35.472  15.425  26.661  0.00  0.00     0.273 C 
ATOM     17  O2  non d ame     -36.471  15.595  27.270  0.00  0.00    -0.266 OA
ATOM     18  H5  non d ame     -34.401  14.010  25.427  0.00  0.00     0.163 HD
BRANCH  16  19
ATOM     19  C4  non d ame     -34.408  16.533  26.612  0.00  0.00     0.154 A 
ATOM     20  C1  non d ame     -34.207  17.581  27.565  0.00  0.00    -0.017 A 
ATOM     21  C2  non d ame     -33.115  18.324  27.064  0.00  0.00     0.077 A 
ATOM     22  H1  non d ame     -34.768  17.774  28.480  0.00  0.00     0.091 H 
ATOM     23  O1  non d ame     -32.739  17.758  25.955  0.00  0.00    -0.218 OA
ATOM     24  N1  non d ame     -33.479  16.712  25.670  0.00  0.00    -0.123 NA
BRANCH  21  25
ATOM     25  C3  non d ame     -32.492  19.557  27.706  0.00  0.00    -0.029 C 
ATOM     26  H2  non d ame     -33.151  19.931  28.489  0.00  0.00     0.036 H 
ATOM     27  H3  non d ame     -31.528  19.293  28.139  0.00  0.00     0.036 H 
ATOM     28  H4  non d ame     -32.352  20.328  26.950  0.00  0.00     0.036 H 
ENDBRANCH  21  25
ENDBRANCH  16  19
ENDBRANCH  13  15
BRANCH  13  29
ATOM     29  C8  non d ame     -36.759  12.810  24.619  0.00  0.00    -0.049 C 
ATOM     30  H7  non d ame     -37.845  12.905  24.590  0.00  0.00     0.030 H 
ATOM     31  H8  non d ame     -36.315  13.507  23.909  0.00  0.00     0.030 H 
ATOM     32  H9  non d ame     -36.477  11.791  24.353  0.00  0.00     0.030 H 
ENDBRANCH  13  29
ENDBRANCH  10  13
ENDBRANCH   7   9
BRANCH   7  33
ATOM     33  C11 non d ame     -36.168   8.141  26.301  0.00  0.00    -0.033 C 
ATOM     34  H12 non d ame     -35.545   7.333  25.917  0.00  0.00     0.042 H 
BRANCH  33  35
ATOM     35  C12 non d ame     -36.850   7.627  27.606  0.00  0.00    -0.071 C 
ATOM     36  H13 non d ame     -37.358   8.455  28.102  0.00  0.00     0.028 H 
ATOM     37  H14 non d ame     -37.575   6.853  27.357  0.00  0.00     0.028 H 
ATOM     38  H15 non d ame     -36.093   7.215  28.274  0.00  0.00     0.028 H 
ENDBRANCH  33  35
BRANCH  33  39
ATOM     39  C13 non d ame     -37.228   8.495  25.209  0.00  0.00    -0.071 C 
ATOM     40  H16 non d ame     -37.424   9.567  25.226  0.00  0.00     0.028 H 
ATOM     41  H17 non d ame     -36.848   8.210  24.227  0.00  0.00     0.028 H 
ATOM     42  H18 non d ame     -38.152   7.952  25.410  0.00  0.00     0.028 H 
ENDBRANCH  33  39
ENDBRANCH   7  33
ENDBRANCH   4   7
ENDBRANCH   1   3
BRANCH   1  43
ATOM     43  C15 non d ame     -31.459  10.494  24.129  0.00  0.00     0.240 C 
ATOM     44  O5  non d ame     -30.308  10.476  23.835  0.00  0.00    -0.271 OA
ATOM     45  N6  non d ame     -32.067  11.743  24.670  0.00  0.00    -0.355 N 
ATOM     46  H46 non d ame     -33.045  11.772  24.919  0.00  0.00     0.162 HD
BRANCH  45  47
ATOM     47  C20 non d ame     -31.229  12.950  24.843  0.00  0.00     0.013 C 
ATOM     48  H30 non d ame     -30.261  12.755  24.382  0.00  0.00     0.072 H 
BRANCH  47  49
ATOM     49  C21 non d ame     -31.053  13.228  26.319  0.00  0.00    -0.038 C 
ATOM     50  H31 non d ame     -29.977  13.308  26.477  0.00  0.00     0.036 H 
ATOM     51  H32 non d ame     -31.701  14.077  26.538  0.00  0.00     0.036 H 
BRANCH  49  52
ATOM     52  C22 non d ame     -31.540  12.065  27.210  0.00  0.00     0.018 C 
ATOM     53  H33 non d ame     -32.612  11.988  27.034  0.00  0.00     0.048 H 
ATOM     54  H34 non d ame     -30.887  11.222  26.979  0.00  0.00     0.048 H 
BRANCH  52  55
ATOM     55  C23 non d ame     -31.374  12.330  28.732  0.00  0.00     0.259 C 
ATOM     56  O7  non d ame     -30.293  12.347  29.227  0.00  0.00    -0.265 OA
BRANCH  55  57
ATOM     57  O8  non d ame     -32.530  12.541  29.533  0.00  0.00    -0.317 OA
BRANCH  57  58
ATOM     58  C29 non d ame     -32.429  12.003  30.854  0.00  0.00     0.052 C 
ATOM     59  H47 non d ame     -31.457  11.513  30.900  0.00  0.00     0.082 H 
ATOM     60  H48 non d ame     -32.655  12.830  31.528  0.00  0.00     0.082 H 
BRANCH  58  61
ATOM     61  C35 non d ame     -33.532  10.923  31.017  0.00  0.00    -0.034 A 
ATOM     62  C30 non d ame     -33.600   9.858  30.125  0.00  0.00    -0.075 A 
ATOM     63  C31 non d ame     -34.591   8.888  30.271  0.00  0.00    -0.082 A 
ATOM     64  H49 non d ame     -32.878   9.783  29.312  0.00  0.00     0.084 H 
ATOM     65  C32 non d ame     -35.517   8.987  31.312  0.00  0.00    -0.083 A 
ATOM     66  H50 non d ame     -34.641   8.053  29.571  0.00  0.00     0.083 H 
ATOM     67  C33 non d ame     -35.447  10.054  32.198  0.00  0.00    -0.082 A 
ATOM     68  H51 non d ame     -36.295   8.233  31.434  0.00  0.00     0.083 H 
ATOM     69  C34 non d ame     -34.457  11.024  32.057  0.00  0.00    -0.075 A 
ATOM     70  H52 non d ame     -36.173  10.130  33.008  0.00  0.00     0.083 H 
ATOM     71  H53 non d ame     -34.408  11.859  32.758  0.00  0.00     0.084 H 
ENDBRANCH  58  61
ENDBRANCH  57  58
ENDBRANCH  55  57
ENDBRANCH  52  55
ENDBRANCH  49  52
ENDBRANCH  47  49
BRANCH  47  72
ATOM     72  C24 non d ame     -31.904  14.147  24.176  0.00  0.00    -0.039 C 
ATOM     73  H35 non d ame     -32.837  13.762  23.764  0.00  0.00     0.036 H 
ATOM     74  H36 non d ame     -31.924  14.929  24.935  0.00  0.00     0.036 H 
BRANCH  72  75
ATOM     75  C25 non d ame     -31.040  14.704  22.947  0.00  0.00    -0.001 C 
ATOM     76  C26 non d ame     -29.986  13.551  22.435  0.00  0.00    -0.035 C 
ATOM     77  C27 non d ame     -28.744  14.090  22.375  0.00  0.00     0.085 C 
ATOM     78  H38 non d ame     -29.889  12.771  23.190  0.00  0.00     0.036 H 
ATOM     79  H39 non d ame     -30.197  13.284  21.399  0.00  0.00     0.036 H 
ATOM     80  N5  non d ame     -28.800  15.408  23.110  0.00  0.00    -0.049 N 
ATOM     81  H40 non d ame     -28.102  13.403  22.925  0.00  0.00     0.075 H 
ATOM     82  H41 non d ame     -28.560  14.281  21.318  0.00  0.00     0.075 H 
ATOM     83  C28 non d ame     -30.367  15.753  23.286  0.00  0.00     0.193 C 
ATOM     84  H42 non d ame     -28.402  15.243  24.024  0.00  0.00     0.280 HD
ATOM     85  H43 non d ame     -28.386  16.095  22.496  0.00  0.00     0.280 HD
ATOM     86  H44 non d ame     -30.842  16.505  22.656  0.00  0.00     0.129 H 
ATOM     87  H37 non d ame     -31.661  15.180  22.188  0.00  0.00     0.046 H 
BRANCH  83  88
ATOM     88  O6  non d ame     -30.636  16.154  24.630  0.00  0.00    -0.369 OA
ATOM     89  H45 non d ame     -30.851  17.090  24.648  0.00  0.00     0.212 HD
ENDBRANCH  83  88
ENDBRANCH  72  75
ENDBRANCH  47  72
ENDBRANCH  45  47
ENDBRANCH   1  43
BRANCH   1  90
ATOM     90  C16 non d ame     -32.503   8.935  22.455  0.00  0.00    -0.035 C 
ATOM     91  H21 non d ame     -33.536   8.607  22.345  0.00  0.00     0.037 H 
ATOM     92  H22 non d ame     -32.160   9.836  21.947  0.00  0.00     0.037 H 
BRANCH  90  93
ATOM     93  C17 non d ame     -31.611   7.765  21.929  0.00  0.00    -0.059 C 
ATOM     94  H23 non d ame     -30.750   8.206  21.427  0.00  0.00     0.038 H 
BRANCH  93  95
ATOM     95  C18 non d ame     -31.077   6.864  23.088  0.00  0.00    -0.073 C 
ATOM     96  H24 non d ame     -31.910   6.331  23.547  0.00  0.00     0.028 H 
ATOM     97  H25 non d ame     -30.363   6.144  22.689  0.00  0.00     0.028 H 
ATOM     98  H26 non d ame     -30.587   7.486  23.836  0.00  0.00     0.028 H 
ENDBRANCH  93  95
BRANCH  93  99
ATOM     99  C19 non d ame     -32.364   6.929  20.891  0.00  0.00    -0.073 C 
ATOM    100  H27 non d ame     -33.421   7.196  20.906  0.00  0.00     0.028 H 
ATOM    101  H28 non d ame     -31.954   7.125  19.899  0.00  0.00     0.028 H 
ATOM    102  H29 non d ame     -32.252   5.871  21.126  0.00  0.00     0.028 H 
ENDBRANCH  93  99
ENDBRANCH  90  93
ENDBRANCH   1  90
TORSDOF 26
ENDMDL
MODEL 19
REMARK VINA RESULT:      -6.4      3.474      9.132
REMARK  26 active torsions:
REMARK  status: ('A' for Active; 'I' for Inactive)
REMARK    1  A    between atoms: C2_2  and  C3_3 
REMARK    2  A    between atoms: C4_6  and  C5_7 
REMARK       I    between atoms: C5_7  and  N2_9 
REMARK    3  A    between atoms: N2_9  and  C6_10 
REMARK    4  A    between atoms: C6_10  and  C7_11 
REMARK    5  A    between atoms: C6_10  and  C8_13 
REMARK       I    between atoms: C7_11  and  N3_14 
REMARK    6  A    between atoms: N3_14  and  C9_15 
REMARK    7  A    between atoms: C9_15  and  C10_16 
REMARK    8  A    between atoms: C9_15  and  C11_18 
REMARK       I    between atoms: C10_16  and  N4_21 
REMARK    9  A    between atoms: C11_18  and  C12_19 
REMARK   10  A    between atoms: C11_18  and  C13_20 
REMARK   11  A    between atoms: N4_21  and  C14_22 
REMARK   12  A    between atoms: C14_22  and  C15_23 
REMARK   13  A    between atoms: C14_22  and  C16_25 
REMARK       I    between atoms: C15_23  and  N6_40 
REMARK   14  A    between atoms: C16_25  and  C17_26 
REMARK   15  A    between atoms: C17_26  and  C18_27 
REMARK   16  A    between atoms: C17_26  and  C19_28 
REMARK   17  A    between atoms: C20_29  and  C21_30 
REMARK   18  A    between atoms: C20_29  and  C24_33 
REMARK   19  A    between atoms: C20_29  and  N6_40 
REMARK   20  A    between atoms: C21_30  and  C22_31 
REMARK   21  A    between atoms: C22_31  and  C23_32 
REMARK   22  A    between atoms: C23_32  and  O8_43 
REMARK   23  A    between atoms: C24_33  and  C25_34 
REMARK   24  A    between atoms: C28_38  and  O6_39 
REMARK   25  A    between atoms: C29_42  and  O8_43 
REMARK   26  A    between atoms: C29_42  and  C35_49 
ROOT
ATOM      1  C14 non d ame     -34.912   8.361  31.205  0.00  0.00     0.089 C 
ATOM      2  H20 non d ame     -34.468   8.386  32.201  0.00  0.00     0.087 H 
ENDROOT
BRANCH   1   3
ATOM      3  N4  non d ame     -34.042   9.119  30.319  0.00  0.00    -0.346 N 
ATOM      4  C10 non d ame     -33.511  10.466  30.740  0.00  0.00     0.241 C 
ATOM      5  O4  non d ame     -33.800  10.921  31.798  0.00  0.00    -0.271 OA
ATOM      6  H19 non d ame     -33.810   8.715  29.422  0.00  0.00     0.163 HD
BRANCH   4   7
ATOM      7  C9  non d ame     -32.607  11.234  29.812  0.00  0.00     0.092 C 
ATOM      8  H11 non d ame     -31.932  10.539  29.313  0.00  0.00     0.088 H 
BRANCH   7   9
ATOM      9  N3  non d ame     -33.411  11.881  28.771  0.00  0.00    -0.346 N 
ATOM     10  C7  non d ame     -33.613  11.222  27.504  0.00  0.00     0.240 C 
ATOM     11  O3  non d ame     -33.135  10.173  27.304  0.00  0.00    -0.271 OA
ATOM     12  H10 non d ame     -33.829  12.787  28.928  0.00  0.00     0.163 HD
BRANCH  10  13
ATOM     13  C6  non d ame     -34.467  11.917  26.398  0.00  0.00     0.086 C 
ATOM     14  H6  non d ame     -35.174  12.640  26.804  0.00  0.00     0.086 H 
BRANCH  13  15
ATOM     15  N2  non d ame     -33.582  12.654  25.512  0.00  0.00    -0.343 N 
ATOM     16  C5  non d ame     -33.157  14.007  25.878  0.00  0.00     0.273 C 
ATOM     17  O2  non d ame     -33.535  14.494  26.886  0.00  0.00    -0.266 OA
ATOM     18  H5  non d ame     -33.266  12.231  24.650  0.00  0.00     0.163 HD
BRANCH  16  19
ATOM     19  C4  non d ame     -32.219  14.797  24.951  0.00  0.00     0.154 A 
ATOM     20  C1  non d ame     -31.081  14.297  24.243  0.00  0.00    -0.017 A 
ATOM     21  C2  non d ame     -30.571  15.412  23.542  0.00  0.00     0.077 A 
ATOM     22  H1  non d ame     -30.685  13.281  24.239  0.00  0.00     0.091 H 
ATOM     23  O1  non d ame     -31.335  16.428  23.820  0.00  0.00    -0.218 OA
ATOM     24  N1  non d ame     -32.304  16.093  24.641  0.00  0.00    -0.123 NA
BRANCH  21  25
ATOM     25  C3  non d ame     -29.352  15.423  22.628  0.00  0.00    -0.029 C 
ATOM     26  H2  non d ame     -28.503  15.853  23.159  0.00  0.00     0.036 H 
ATOM     27  H3  non d ame     -29.114  14.402  22.329  0.00  0.00     0.036 H 
ATOM     28  H4  non d ame     -29.567  16.019  21.742  0.00  0.00     0.036 H 
ENDBRANCH  21  25
ENDBRANCH  16  19
ENDBRANCH  13  15
BRANCH  13  29
ATOM     29  C8  non d ame     -35.229  10.875  25.618  0.00  0.00    -0.049 C 
ATOM     30  H7  non d ame     -35.806  11.361  24.831  0.00  0.00     0.030 H 
ATOM     31  H8  non d ame     -34.527  10.171  25.172  0.00  0.00     0.030 H 
ATOM     32  H9  non d ame     -35.904  10.342  26.288  0.00  0.00     0.030 H 
ENDBRANCH  13  29
ENDBRANCH  10  13
ENDBRANCH   7   9
BRANCH   7  33
ATOM     33  C11 non d ame     -31.838  12.320  30.619  0.00  0.00    -0.033 C 
ATOM     34  H12 non d ame     -32.383  12.489  31.548  0.00  0.00     0.042 H 
BRANCH  33  35
ATOM     35  C12 non d ame     -30.403  11.837  30.999  0.00  0.00    -0.071 C 
ATOM     36  H13 non d ame     -30.023  12.441  31.823  0.00  0.00     0.028 H 
ATOM     37  H14 non d ame     -30.441  10.791  31.303  0.00  0.00     0.028 H 
ATOM     38  H15 non d ame     -29.744  11.942  30.138  0.00  0.00     0.028 H 
ENDBRANCH  33  35
BRANCH  33  39
ATOM     39  C13 non d ame     -31.791  13.671  29.835  0.00  0.00    -0.071 C 
ATOM     40  H16 non d ame     -30.942  13.664  29.151  0.00  0.00     0.028 H 
ATOM     41  H17 non d ame     -32.714  13.795  29.268  0.00  0.00     0.028 H 
ATOM     42  H18 non d ame     -31.684  14.496  30.539  0.00  0.00     0.028 H 
ENDBRANCH  33  39
ENDBRANCH   7  33
ENDBRANCH   4   7
ENDBRANCH   1   3
BRANCH   1  43
ATOM     43  C15 non d ame     -35.039   6.912  30.655  0.00  0.00     0.240 C 
ATOM     44  O5  non d ame     -35.674   6.105  31.255  0.00  0.00    -0.271 OA
ATOM     45  N6  non d ame     -34.375   6.531  29.376  0.00  0.00    -0.355 N 
ATOM     46  H46 non d ame     -33.836   7.208  28.856  0.00  0.00     0.162 HD
BRANCH  45  47
ATOM     47  C20 non d ame     -34.506   5.149  28.866  0.00  0.00     0.013 C 
ATOM     48  H30 non d ame     -34.872   4.524  29.680  0.00  0.00     0.072 H 
BRANCH  47  49
ATOM     49  C21 non d ame     -33.153   4.656  28.405  0.00  0.00    -0.038 C 
ATOM     50  H31 non d ame     -32.422   5.293  28.903  0.00  0.00     0.036 H 
ATOM     51  H32 non d ame     -33.154   3.581  28.588  0.00  0.00     0.036 H 
BRANCH  49  52
ATOM     52  C22 non d ame     -32.932   4.841  26.888  0.00  0.00     0.018 C 
ATOM     53  H33 non d ame     -32.261   4.037  26.587  0.00  0.00     0.048 H 
ATOM     54  H34 non d ame     -33.928   4.912  26.451  0.00  0.00     0.048 H 
BRANCH  52  55
ATOM     55  C23 non d ame     -32.207   6.165  26.518  0.00  0.00     0.259 C 
ATOM     56  O7  non d ame     -31.911   6.947  27.362  0.00  0.00    -0.265 OA
BRANCH  55  57
ATOM     57  O8  non d ame     -31.910   6.438  25.154  0.00  0.00    -0.317 OA
BRANCH  57  58
ATOM     58  C29 non d ame     -32.709   7.477  24.581  0.00  0.00     0.052 C 
ATOM     59  H47 non d ame     -33.341   6.988  23.840  0.00  0.00     0.082 H 
ATOM     60  H48 non d ame     -33.162   8.000  25.424  0.00  0.00     0.082 H 
BRANCH  58  61
ATOM     61  C35 non d ame     -31.760   8.461  23.846  0.00  0.00    -0.034 A 
ATOM     62  C30 non d ame     -31.845   9.828  24.096  0.00  0.00    -0.075 A 
ATOM     63  C31 non d ame     -30.993  10.712  23.436  0.00  0.00    -0.082 A 
ATOM     64  H49 non d ame     -32.578  10.206  24.808  0.00  0.00     0.084 H 
ATOM     65  C32 non d ame     -30.055  10.225  22.520  0.00  0.00    -0.083 A 
ATOM     66  H50 non d ame     -31.060  11.782  23.634  0.00  0.00     0.083 H 
ATOM     67  C33 non d ame     -29.977   8.862  22.272  0.00  0.00    -0.082 A 
ATOM     68  H51 non d ame     -29.385  10.910  22.000  0.00  0.00     0.083 H 
ATOM     69  C34 non d ame     -30.825   7.974  22.932  0.00  0.00    -0.075 A 
ATOM     70  H52 non d ame     -29.246   8.486  21.556  0.00  0.00     0.083 H 
ATOM     71  H53 non d ame     -30.757   6.904  22.732  0.00  0.00     0.084 H 
ENDBRANCH  58  61
ENDBRANCH  57  58
ENDBRANCH  55  57
ENDBRANCH  52  55
ENDBRANCH  49  52
ENDBRANCH  47  49
BRANCH  47  72
ATOM     72  C24 non d ame     -35.484   5.122  27.694  0.00  0.00    -0.039 C 
ATOM     73  H35 non d ame     -35.513   6.144  27.316  0.00  0.00     0.036 H 
ATOM     74  H36 non d ame     -35.143   4.312  27.049  0.00  0.00     0.036 H 
BRANCH  72  75
ATOM     75  C25 non d ame     -36.969   4.753  28.169  0.00  0.00    -0.001 C 
ATOM     76  C26 non d ame     -37.416   3.303  27.534  0.00  0.00    -0.035 C 
ATOM     77  C27 non d ame     -38.620   3.445  26.928  0.00  0.00     0.085 C 
ATOM     78  H38 non d ame     -36.750   3.032  26.716  0.00  0.00     0.036 H 
ATOM     79  H39 non d ame     -37.617   2.590  28.334  0.00  0.00     0.036 H 
ATOM     80  N5  non d ame     -38.881   4.927  26.807  0.00  0.00    -0.049 N 
ATOM     81  H40 non d ame     -38.495   3.023  25.931  0.00  0.00     0.075 H 
ATOM     82  H41 non d ame     -39.345   3.012  27.616  0.00  0.00     0.075 H 
ATOM     83  C28 non d ame     -37.818   5.647  27.787  0.00  0.00     0.193 C 
ATOM     84  H42 non d ame     -38.662   5.180  25.854  0.00  0.00     0.280 HD
ATOM     85  H43 non d ame     -39.810   5.084  27.170  0.00  0.00     0.280 HD
ATOM     86  H44 non d ame     -38.135   6.045  28.751  0.00  0.00     0.129 H 
ATOM     87  H37 non d ame     -37.104   4.887  29.243  0.00  0.00     0.046 H 
BRANCH  83  88
ATOM     88  O6  non d ame     -37.187   6.737  27.113  0.00  0.00    -0.369 OA
ATOM     89  H45 non d ame     -36.427   7.031  27.622  0.00  0.00     0.212 HD
ENDBRANCH  83  88
ENDBRANCH  72  75
ENDBRANCH  47  72
ENDBRANCH  45  47
ENDBRANCH   1  43
BRANCH   1  90
ATOM     90  C16 non d ame     -36.283   9.018  31.236  0.00  0.00    -0.035 C 
ATOM     91  H21 non d ame     -36.863   8.441  31.955  0.00  0.00     0.037 H 
ATOM     92  H22 non d ame     -36.092  10.076  31.414  0.00  0.00     0.037 H 
BRANCH  90  93
ATOM     93  C17 non d ame     -37.050   8.930  29.878  0.00  0.00    -0.059 C 
ATOM     94  H23 non d ame     -36.518   8.222  29.243  0.00  0.00     0.038 H 
BRANCH  93  95
ATOM     95  C18 non d ame     -38.510   8.404  30.059  0.00  0.00    -0.073 C 
ATOM     96  H24 non d ame     -38.640   7.487  29.484  0.00  0.00     0.028 H 
ATOM     97  H25 non d ame     -38.694   8.199  31.114  0.00  0.00     0.028 H 
ATOM     98  H26 non d ame     -39.214   9.157  29.707  0.00  0.00     0.028 H 
ENDBRANCH  93  95
BRANCH  93  99
ATOM     99  C19 non d ame     -37.044  10.281  29.159  0.00  0.00    -0.073 C 
ATOM    100  H27 non d ame     -37.211  10.126  28.092  0.00  0.00     0.028 H 
ATOM    101  H28 non d ame     -37.836  10.912  29.562  0.00  0.00     0.028 H 
ATOM    102  H29 non d ame     -36.081  10.768  29.309  0.00  0.00     0.028 H 
ENDBRANCH  93  99
ENDBRANCH  90  93
ENDBRANCH   1  90
TORSDOF 26
ENDMDL
MODEL 20
REMARK VINA RESULT:      -6.4      2.186      4.085
REMARK  26 active torsions:
REMARK  status: ('A' for Active; 'I' for Inactive)
REMARK    1  A    between atoms: C2_2  and  C3_3 
REMARK    2  A    between atoms: C4_6  and  C5_7 
REMARK       I    between atoms: C5_7  and  N2_9 
REMARK    3  A    between atoms: N2_9  and  C6_10 
REMARK    4  A    between atoms: C6_10  and  C7_11 
REMARK    5  A    between atoms: C6_10  and  C8_13 
REMARK       I    between atoms: C7_11  and  N3_14 
REMARK    6  A    between atoms: N3_14  and  C9_15 
REMARK    7  A    between atoms: C9_15  and  C10_16 
REMARK    8  A    between atoms: C9_15  and  C11_18 
REMARK       I    between atoms: C10_16  and  N4_21 
REMARK    9  A    between atoms: C11_18  and  C12_19 
REMARK   10  A    between atoms: C11_18  and  C13_20 
REMARK   11  A    between atoms: N4_21  and  C14_22 
REMARK   12  A    between atoms: C14_22  and  C15_23 
REMARK   13  A    between atoms: C14_22  and  C16_25 
REMARK       I    between atoms: C15_23  and  N6_40 
REMARK   14  A    between atoms: C16_25  and  C17_26 
REMARK   15  A    between atoms: C17_26  and  C18_27 
REMARK   16  A    between atoms: C17_26  and  C19_28 
REMARK   17  A    between atoms: C20_29  and  C21_30 
REMARK   18  A    between atoms: C20_29  and  C24_33 
REMARK   19  A    between atoms: C20_29  and  N6_40 
REMARK   20  A    between atoms: C21_30  and  C22_31 
REMARK   21  A    between atoms: C22_31  and  C23_32 
REMARK   22  A    between atoms: C23_32  and  O8_43 
REMARK   23  A    between atoms: C24_33  and  C25_34 
REMARK   24  A    between atoms: C28_38  and  O6_39 
REMARK   25  A    between atoms: C29_42  and  O8_43 
REMARK   26  A    between atoms: C29_42  and  C35_49 
ROOT
ATOM      1  C14 non d ame     -30.674  14.344  23.629  0.00  0.00     0.089 C 
ATOM      2  H20 non d ame     -29.591  14.407  23.526  0.00  0.00     0.087 H 
ENDROOT
BRANCH   1   3
ATOM      3  N4  non d ame     -31.007  12.957  23.917  0.00  0.00    -0.346 N 
ATOM      4  C10 non d ame     -30.354  11.840  23.143  0.00  0.00     0.241 C 
ATOM      5  O4  non d ame     -29.565  12.082  22.290  0.00  0.00    -0.271 OA
ATOM      6  H19 non d ame     -31.683  12.772  24.645  0.00  0.00     0.163 HD
BRANCH   4   7
ATOM      7  C9  non d ame     -30.706  10.410  23.458  0.00  0.00     0.092 C 
ATOM      8  H11 non d ame     -30.209  10.114  24.382  0.00  0.00     0.088 H 
BRANCH   7   9
ATOM      9  N3  non d ame     -32.150  10.302  23.690  0.00  0.00    -0.346 N 
ATOM     10  C7  non d ame     -32.676  10.420  25.027  0.00  0.00     0.240 C 
ATOM     11  O3  non d ame     -31.952  10.600  25.929  0.00  0.00    -0.271 OA
ATOM     12  H10 non d ame     -32.787  10.144  22.922  0.00  0.00     0.163 HD
BRANCH  10  13
ATOM     13  C6  non d ame     -34.213  10.300  25.268  0.00  0.00     0.086 C 
ATOM     14  H6  non d ame     -34.787  10.311  24.341  0.00  0.00     0.086 H 
BRANCH  13  15
ATOM     15  N2  non d ame     -34.492   9.029  25.915  0.00  0.00    -0.343 N 
ATOM     16  C5  non d ame     -34.479   7.798  25.121  0.00  0.00     0.273 C 
ATOM     17  O2  non d ame     -34.246   7.841  23.963  0.00  0.00    -0.266 OA
ATOM     18  H5  non d ame     -34.692   9.001  26.904  0.00  0.00     0.163 HD
BRANCH  16  19
ATOM     19  C4  non d ame     -34.770   6.446  25.793  0.00  0.00     0.154 A 
ATOM     20  C1  non d ame     -33.823   5.430  26.137  0.00  0.00    -0.017 A 
ATOM     21  C2  non d ame     -34.592   4.401  26.724  0.00  0.00     0.077 A 
ATOM     22  H1  non d ame     -32.744   5.438  25.984  0.00  0.00     0.091 H 
ATOM     23  O1  non d ame     -35.833   4.791  26.715  0.00  0.00    -0.218 OA
ATOM     24  N1  non d ame     -35.962   5.981  26.176  0.00  0.00    -0.123 NA
BRANCH  21  25
ATOM     25  C3  non d ame     -34.065   3.080  27.268  0.00  0.00    -0.029 C 
ATOM     26  H2  non d ame     -32.990   3.020  27.099  0.00  0.00     0.036 H 
ATOM     27  H3  non d ame     -34.268   3.020  28.337  0.00  0.00     0.036 H 
ATOM     28  H4  non d ame     -34.559   2.253  26.758  0.00  0.00     0.036 H 
ENDBRANCH  21  25
ENDBRANCH  16  19
ENDBRANCH  13  15
BRANCH  13  29
ATOM     29  C8  non d ame     -34.678  11.437  26.142  0.00  0.00    -0.049 C 
ATOM     30  H7  non d ame     -33.814  12.001  26.494  0.00  0.00     0.030 H 
ATOM     31  H8  non d ame     -35.330  12.094  25.567  0.00  0.00     0.030 H 
ATOM     32  H9  non d ame     -35.225  11.039  26.997  0.00  0.00     0.030 H 
ENDBRANCH  13  29
ENDBRANCH  10  13
ENDBRANCH   7   9
BRANCH   7  33
ATOM     33  C11 non d ame     -30.306   9.501  22.260  0.00  0.00    -0.033 C 
ATOM     34  H12 non d ame     -30.181  10.143  21.388  0.00  0.00     0.042 H 
BRANCH  33  35
ATOM     35  C12 non d ame     -28.942   8.788  22.518  0.00  0.00    -0.071 C 
ATOM     36  H13 non d ame     -28.205   9.521  22.847  0.00  0.00     0.028 H 
ATOM     37  H14 non d ame     -29.069   8.029  23.289  0.00  0.00     0.028 H 
ATOM     38  H15 non d ame     -28.598   8.317  21.597  0.00  0.00     0.028 H 
ENDBRANCH  33  35
BRANCH  33  39
ATOM     39  C13 non d ame     -31.434   8.467  21.941  0.00  0.00    -0.071 C 
ATOM     40  H16 non d ame     -32.035   8.832  21.108  0.00  0.00     0.028 H 
ATOM     41  H17 non d ame     -30.985   7.510  21.674  0.00  0.00     0.028 H 
ATOM     42  H18 non d ame     -32.067   8.338  22.818  0.00  0.00     0.028 H 
ENDBRANCH  33  39
ENDBRANCH   7  33
ENDBRANCH   4   7
ENDBRANCH   1   3
BRANCH   1  43
ATOM     43  C15 non d ame     -31.208  15.233  24.788  0.00  0.00     0.240 C 
ATOM     44  O5  non d ame     -30.690  16.278  25.018  0.00  0.00    -0.271 OA
ATOM     45  N6  non d ame     -32.370  14.785  25.608  0.00  0.00    -0.355 N 
ATOM     46  H46 non d ame     -32.821  13.902  25.419  0.00  0.00     0.162 HD
BRANCH  45  47
ATOM     47  C20 non d ame     -32.866  15.643  26.706  0.00  0.00     0.013 C 
ATOM     48  H30 non d ame     -32.051  16.297  27.015  0.00  0.00     0.072 H 
BRANCH  47  49
ATOM     49  C21 non d ame     -33.296  14.771  27.865  0.00  0.00    -0.038 C 
ATOM     50  H31 non d ame     -34.327  15.053  28.078  0.00  0.00     0.036 H 
ATOM     51  H32 non d ame     -33.059  13.749  27.568  0.00  0.00     0.036 H 
BRANCH  49  52
ATOM     52  C22 non d ame     -32.492  15.049  29.153  0.00  0.00     0.018 C 
ATOM     53  H33 non d ame     -32.026  16.022  29.007  0.00  0.00     0.048 H 
ATOM     54  H34 non d ame     -33.191  14.897  29.976  0.00  0.00     0.048 H 
BRANCH  52  55
ATOM     55  C23 non d ame     -31.327  14.048  29.392  0.00  0.00     0.259 C 
ATOM     56  O7  non d ame     -30.521  13.847  28.542  0.00  0.00    -0.265 OA
BRANCH  55  57
ATOM     57  O8  non d ame     -31.240  13.364  30.636  0.00  0.00    -0.317 OA
BRANCH  57  58
ATOM     58  C29 non d ame     -30.964  11.966  30.513  0.00  0.00     0.052 C 
ATOM     59  H47 non d ame     -30.434  11.852  29.567  0.00  0.00     0.082 H 
ATOM     60  H48 non d ame     -30.481  11.677  31.446  0.00  0.00     0.082 H 
BRANCH  58  61
ATOM     61  C35 non d ame     -32.319  11.217  30.410  0.00  0.00    -0.034 A 
ATOM     62  C30 non d ame     -32.565  10.365  29.338  0.00  0.00    -0.075 A 
ATOM     63  C31 non d ame     -33.783   9.693  29.245  0.00  0.00    -0.082 A 
ATOM     64  H49 non d ame     -31.804  10.224  28.571  0.00  0.00     0.084 H 
ATOM     65  C32 non d ame     -34.758   9.877  30.229  0.00  0.00    -0.083 A 
ATOM     66  H50 non d ame     -33.972   9.024  28.405  0.00  0.00     0.083 H 
ATOM     67  C33 non d ame     -34.510  10.731  31.295  0.00  0.00    -0.082 A 
ATOM     68  H51 non d ame     -35.713   9.355  30.165  0.00  0.00     0.083 H 
ATOM     69  C34 non d ame     -33.293  11.403  31.393  0.00  0.00    -0.075 A 
ATOM     70  H52 non d ame     -35.274  10.874  32.060  0.00  0.00     0.083 H 
ATOM     71  H53 non d ame     -33.105  12.071  32.234  0.00  0.00     0.084 H 
ENDBRANCH  58  61
ENDBRANCH  57  58
ENDBRANCH  55  57
ENDBRANCH  52  55
ENDBRANCH  49  52
ENDBRANCH  47  49
BRANCH  47  72
ATOM     72  C24 non d ame     -34.055  16.468  26.220  0.00  0.00    -0.039 C 
ATOM     73  H35 non d ame     -34.395  15.978  25.307  0.00  0.00     0.036 H 
ATOM     74  H36 non d ame     -34.724  16.547  27.077  0.00  0.00     0.036 H 
BRANCH  72  75
ATOM     75  C25 non d ame     -33.619  17.958  25.823  0.00  0.00    -0.001 C 
ATOM     76  C26 non d ame     -32.565  18.549  26.938  0.00  0.00    -0.035 C 
ATOM     77  C27 non d ame     -33.006  19.760  27.356  0.00  0.00     0.085 C 
ATOM     78  H38 non d ame     -32.596  17.941  27.841  0.00  0.00     0.036 H 
ATOM     79  H39 non d ame     -31.609  18.775  26.465  0.00  0.00     0.036 H 
ATOM     80  N5  non d ame     -34.429  19.902  26.874  0.00  0.00    -0.049 N 
ATOM     81  H40 non d ame     -33.002  19.711  28.445  0.00  0.00     0.075 H 
ATOM     82  H41 non d ame     -32.382  20.490  26.842  0.00  0.00     0.075 H 
ATOM     83  C28 non d ame     -34.642  18.745  25.769  0.00  0.00     0.193 C 
ATOM     84  H42 non d ame     -35.021  19.702  27.667  0.00  0.00     0.280 HD
ATOM     85  H43 non d ame     -34.487  20.800  26.415  0.00  0.00     0.280 HD
ATOM     86  H44 non d ame     -34.648  18.989  24.706  0.00  0.00     0.129 H 
ATOM     87  H37 non d ame     -33.330  18.038  24.775  0.00  0.00     0.046 H 
BRANCH  83  88
ATOM     88  O6  non d ame     -35.868  18.053  26.009  0.00  0.00    -0.369 OA
ATOM     89  H45 non d ame     -36.587  18.513  25.568  0.00  0.00     0.212 HD
ENDBRANCH  83  88
ENDBRANCH  72  75
ENDBRANCH  47  72
ENDBRANCH  45  47
ENDBRANCH   1  43
BRANCH   1  90
ATOM     90  C16 non d ame     -31.339  14.753  22.324  0.00  0.00    -0.035 C 
ATOM     91  H21 non d ame     -31.488  13.825  21.772  0.00  0.00     0.037 H 
ATOM     92  H22 non d ame     -32.199  15.358  22.615  0.00  0.00     0.037 H 
BRANCH  90  93
ATOM     93  C17 non d ame     -30.445  15.663  21.423  0.00  0.00    -0.059 C 
ATOM     94  H23 non d ame     -30.737  16.697  21.603  0.00  0.00     0.038 H 
BRANCH  93  95
ATOM     95  C18 non d ame     -28.928  15.528  21.772  0.00  0.00    -0.073 C 
ATOM     96  H24 non d ame     -28.532  14.615  21.329  0.00  0.00     0.028 H 
ATOM     97  H25 non d ame     -28.386  16.387  21.376  0.00  0.00     0.028 H 
ATOM     98  H26 non d ame     -28.806  15.490  22.854  0.00  0.00     0.028 H 
ENDBRANCH  93  95
BRANCH  93  99
ATOM     99  C19 non d ame     -30.690  15.373  19.940  0.00  0.00    -0.073 C 
ATOM    100  H27 non d ame     -29.829  15.703  19.358  0.00  0.00     0.028 H 
ATOM    101  H28 non d ame     -30.836  14.302  19.797  0.00  0.00     0.028 H 
ATOM    102  H29 non d ame     -31.580  15.908  19.607  0.00  0.00     0.028 H 
ENDBRANCH  93  99
ENDBRANCH  90  93
ENDBRANCH   1  90
TORSDOF 26
ENDMDL
