MODEL 1
REMARK VINA RESULT:      -7.5      0.000      0.000
REMARK  26 active torsions:
REMARK  status: ('A' for Active; 'I' for Inactive)
REMARK    1  A    between atoms: C2_2  and  C3_3 
REMARK    2  A    between atoms: C4_6  and  C5_7 
REMARK       I    between atoms: C5_7  and  N2_9 
REMARK    3  A    between atoms: N2_9  and  C6_10 
REMARK    4  A    between atoms: C6_10  and  C7_11 
REMARK    5  A    between atoms: C6_10  and  C8_13 
REMARK       I    between atoms: C7_11  and  N3_14 
REMARK    6  A    between atoms: N3_14  and  C9_15 
REMARK    7  A    between atoms: C9_15  and  C10_16 
REMARK    8  A    between atoms: C9_15  and  C11_18 
REMARK       I    between atoms: C10_16  and  N4_21 
REMARK    9  A    between atoms: C11_18  and  C12_19 
REMARK   10  A    between atoms: C11_18  and  C13_20 
REMARK   11  A    between atoms: N4_21  and  C14_22 
REMARK   12  A    between atoms: C14_22  and  C15_23 
REMARK   13  A    between atoms: C14_22  and  C16_25 
REMARK       I    between atoms: C15_23  and  N6_40 
REMARK   14  A    between atoms: C16_25  and  C17_26 
REMARK   15  A    between atoms: C17_26  and  C18_27 
REMARK   16  A    between atoms: C17_26  and  C19_28 
REMARK   17  A    between atoms: C20_29  and  C21_30 
REMARK   18  A    between atoms: C20_29  and  C24_33 
REMARK   19  A    between atoms: C20_29  and  N6_40 
REMARK   20  A    between atoms: C21_30  and  C22_31 
REMARK   21  A    between atoms: C22_31  and  C23_32 
REMARK   22  A    between atoms: C23_32  and  O8_43 
REMARK   23  A    between atoms: C24_33  and  C25_34 
REMARK   24  A    between atoms: C28_38  and  O6_39 
REMARK   25  A    between atoms: C29_42  and  O8_43 
REMARK   26  A    between atoms: C29_42  and  C35_49 
ROOT
ATOM      1  C14 non d ame     -30.725  14.255  23.846  0.00  0.00     0.089 C 
ATOM      2  H20 non d ame     -29.644  14.269  23.708  0.00  0.00     0.087 H 
ENDROOT
BRANCH   1   3
ATOM      3  N4  non d ame     -31.122  12.871  24.062  0.00  0.00    -0.346 N 
ATOM      4  C10 non d ame     -30.485  11.763  23.262  0.00  0.00     0.241 C 
ATOM      5  O4  non d ame     -29.657  12.009  22.447  0.00  0.00    -0.271 OA
ATOM      6  H19 non d ame     -31.829  12.683  24.758  0.00  0.00     0.163 HD
BRANCH   4   7
ATOM      7  C9  non d ame     -30.903  10.336  23.502  0.00  0.00     0.092 C 
ATOM      8  H11 non d ame     -30.464   9.987  24.437  0.00  0.00     0.088 H 
BRANCH   7   9
ATOM      9  N3  non d ame     -32.360  10.273  23.657  0.00  0.00    -0.346 N 
ATOM     10  C7  non d ame     -32.947  10.314  24.974  0.00  0.00     0.240 C 
ATOM     11  O3  non d ame     -32.262  10.396  25.920  0.00  0.00    -0.271 OA
ATOM     12  H10 non d ame     -32.963  10.200  22.850  0.00  0.00     0.163 HD
BRANCH  10  13
ATOM     13  C6  non d ame     -34.497  10.243  25.132  0.00  0.00     0.086 C 
ATOM     14  H6  non d ame     -34.805   9.884  26.114  0.00  0.00     0.086 H 
BRANCH  13  15
ATOM     15  N2  non d ame     -35.048  11.580  24.987  0.00  0.00    -0.343 N 
ATOM     16  C5  non d ame     -35.541  12.289  26.170  0.00  0.00     0.273 C 
ATOM     17  O2  non d ame     -35.493  11.774  27.233  0.00  0.00    -0.266 OA
ATOM     18  H5  non d ame     -35.087  12.012  24.075  0.00  0.00     0.163 HD
BRANCH  16  19
ATOM     19  C4  non d ame     -36.124  13.704  26.032  0.00  0.00     0.154 A 
ATOM     20  C1  non d ame     -36.181  14.504  24.847  0.00  0.00    -0.017 A 
ATOM     21  C2  non d ame     -36.804  15.706  25.250  0.00  0.00     0.077 A 
ATOM     22  H1  non d ame     -35.825  14.251  23.848  0.00  0.00     0.091 H 
ATOM     23  O1  non d ame     -37.071  15.598  26.518  0.00  0.00    -0.218 OA
ATOM     24  N1  non d ame     -36.683  14.439  26.998  0.00  0.00    -0.123 NA
BRANCH  21  25
ATOM     25  C3  non d ame     -37.109  16.905  24.361  0.00  0.00    -0.029 C 
ATOM     26  H2  non d ame     -38.046  17.362  24.676  0.00  0.00     0.036 H 
ATOM     27  H3  non d ame     -36.303  17.634  24.447  0.00  0.00     0.036 H 
ATOM     28  H4  non d ame     -37.193  16.578  23.325  0.00  0.00     0.036 H 
ENDBRANCH  21  25
ENDBRANCH  16  19
ENDBRANCH  13  15
BRANCH  13  29
ATOM     29  C8  non d ame     -35.072   9.331  24.078  0.00  0.00    -0.049 C 
ATOM     30  H7  non d ame     -34.581   8.359  24.132  0.00  0.00     0.030 H 
ATOM     31  H8  non d ame     -36.141   9.208  24.248  0.00  0.00     0.030 H 
ATOM     32  H9  non d ame     -34.908   9.767  23.092  0.00  0.00     0.030 H 
ENDBRANCH  13  29
ENDBRANCH  10  13
ENDBRANCH   7   9
BRANCH   7  33
ATOM     33  C11 non d ame     -30.474   9.459  22.290  0.00  0.00    -0.033 C 
ATOM     34  H12 non d ame     -30.338  10.122  21.436  0.00  0.00     0.042 H 
BRANCH  33  35
ATOM     35  C12 non d ame     -29.110   8.750  22.556  0.00  0.00    -0.071 C 
ATOM     36  H13 non d ame     -29.250   7.669  22.530  0.00  0.00     0.028 H 
ATOM     37  H14 non d ame     -28.393   9.041  21.788  0.00  0.00     0.028 H 
ATOM     38  H15 non d ame     -28.733   9.043  23.536  0.00  0.00     0.028 H 
ENDBRANCH  33  35
BRANCH  33  39
ATOM     39  C13 non d ame     -31.588   8.425  21.926  0.00  0.00    -0.071 C 
ATOM     40  H16 non d ame     -32.227   8.839  21.146  0.00  0.00     0.028 H 
ATOM     41  H17 non d ame     -31.126   7.504  21.567  0.00  0.00     0.028 H 
ATOM     42  H18 non d ame     -32.186   8.209  22.811  0.00  0.00     0.028 H 
ENDBRANCH  33  39
ENDBRANCH   7  33
ENDBRANCH   4   7
ENDBRANCH   1   3
BRANCH   1  43
ATOM     43  C15 non d ame     -31.172  15.096  25.076  0.00  0.00     0.240 C 
ATOM     44  O5  non d ame     -30.811  16.223  25.183  0.00  0.00    -0.271 OA
ATOM     45  N6  non d ame     -32.057  14.498  26.116  0.00  0.00    -0.355 N 
ATOM     46  H46 non d ame     -32.373  13.543  26.033  0.00  0.00     0.162 HD
BRANCH  45  47
ATOM     47  C20 non d ame     -32.474  15.311  27.279  0.00  0.00     0.013 C 
ATOM     48  H30 non d ame     -31.578  15.740  27.727  0.00  0.00     0.072 H 
BRANCH  47  49
ATOM     49  C21 non d ame     -33.179  14.426  28.281  0.00  0.00    -0.038 C 
ATOM     50  H31 non d ame     -33.931  15.057  28.755  0.00  0.00     0.036 H 
ATOM     51  H32 non d ame     -33.484  13.538  27.725  0.00  0.00     0.036 H 
BRANCH  49  52
ATOM     52  C22 non d ame     -32.246  13.935  29.409  0.00  0.00     0.018 C 
ATOM     53  H33 non d ame     -31.424  14.650  29.444  0.00  0.00     0.048 H 
ATOM     54  H34 non d ame     -32.885  13.796  30.281  0.00  0.00     0.048 H 
BRANCH  52  55
ATOM     55  C23 non d ame     -31.597  12.552  29.128  0.00  0.00     0.259 C 
ATOM     56  O7  non d ame     -30.882  12.399  28.191  0.00  0.00    -0.265 OA
BRANCH  55  57
ATOM     57  O8  non d ame     -31.877  11.461  29.998  0.00  0.00    -0.317 OA
BRANCH  57  58
ATOM     58  C29 non d ame     -32.872  10.561  29.502  0.00  0.00     0.052 C 
ATOM     59  H47 non d ame     -33.433  11.124  28.755  0.00  0.00     0.082 H 
ATOM     60  H48 non d ame     -32.335   9.658  29.213  0.00  0.00     0.082 H 
BRANCH  58  61
ATOM     61  C35 non d ame     -33.828  10.211  30.673  0.00  0.00    -0.034 A 
ATOM     62  C30 non d ame     -34.351   8.927  30.786  0.00  0.00    -0.075 A 
ATOM     63  C31 non d ame     -35.210   8.613  31.838  0.00  0.00    -0.082 A 
ATOM     64  H49 non d ame     -34.089   8.168  30.049  0.00  0.00     0.084 H 
ATOM     65  C32 non d ame     -35.547   9.590  32.779  0.00  0.00    -0.083 A 
ATOM     66  H50 non d ame     -35.617   7.605  31.924  0.00  0.00     0.083 H 
ATOM     67  C33 non d ame     -35.025  10.870  32.661  0.00  0.00    -0.082 A 
ATOM     68  H51 non d ame     -36.217   9.352  33.605  0.00  0.00     0.083 H 
ATOM     69  C34 non d ame     -34.164  11.188  31.612  0.00  0.00    -0.075 A 
ATOM     70  H52 non d ame     -35.292  11.631  33.396  0.00  0.00     0.083 H 
ATOM     71  H53 non d ame     -33.757  12.196  31.527  0.00  0.00     0.084 H 
ENDBRANCH  58  61
ENDBRANCH  57  58
ENDBRANCH  55  57
ENDBRANCH  52  55
ENDBRANCH  49  52
ENDBRANCH  47  49
BRANCH  47  72
ATOM     72  C24 non d ame     -33.421  16.419  26.821  0.00  0.00    -0.039 C 
ATOM     73  H35 non d ame     -32.919  16.901  25.982  0.00  0.00     0.036 H 
ATOM     74  H36 non d ame     -34.385  15.933  26.674  0.00  0.00     0.036 H 
BRANCH  72  75
ATOM     75  C25 non d ame     -33.621  17.533  27.955  0.00  0.00    -0.001 C 
ATOM     76  C26 non d ame     -35.209  17.945  28.061  0.00  0.00    -0.035 C 
ATOM     77  C27 non d ame     -35.316  19.294  27.992  0.00  0.00     0.085 C 
ATOM     78  H38 non d ame     -35.744  17.601  27.176  0.00  0.00     0.036 H 
ATOM     79  H39 non d ame     -35.591  17.710  29.055  0.00  0.00     0.036 H 
ATOM     80  N5  non d ame     -33.981  19.818  27.521  0.00  0.00    -0.049 N 
ATOM     81  H40 non d ame     -36.065  19.487  27.224  0.00  0.00     0.075 H 
ATOM     82  H41 non d ame     -35.486  19.625  29.016  0.00  0.00     0.075 H 
ATOM     83  C28 non d ame     -32.939  18.597  27.690  0.00  0.00     0.193 C 
ATOM     84  H42 non d ame     -34.084  20.019  26.536  0.00  0.00     0.280 HD
ATOM     85  H43 non d ame     -33.721  20.554  28.162  0.00  0.00     0.280 HD
ATOM     86  H44 non d ame     -32.227  18.587  28.516  0.00  0.00     0.129 H 
ATOM     87  H37 non d ame     -33.113  17.273  28.884  0.00  0.00     0.046 H 
BRANCH  83  88
ATOM     88  O6  non d ame     -32.152  18.453  26.506  0.00  0.00    -0.369 OA
ATOM     89  H45 non d ame     -31.502  19.158  26.466  0.00  0.00     0.212 HD
ENDBRANCH  83  88
ENDBRANCH  72  75
ENDBRANCH  47  72
ENDBRANCH  45  47
ENDBRANCH   1  43
BRANCH   1  90
ATOM     90  C16 non d ame     -31.410  14.778  22.593  0.00  0.00    -0.035 C 
ATOM     91  H21 non d ame     -31.688  13.891  22.024  0.00  0.00     0.037 H 
ATOM     92  H22 non d ame     -32.182  15.460  22.950  0.00  0.00     0.037 H 
BRANCH  90  93
ATOM     93  C17 non d ame     -30.472  15.617  21.669  0.00  0.00    -0.059 C 
ATOM     94  H23 non d ame     -30.726  16.668  21.806  0.00  0.00     0.038 H 
BRANCH  93  95
ATOM     95  C18 non d ame     -28.965  15.439  22.043  0.00  0.00    -0.073 C 
ATOM     96  H24 non d ame     -28.376  15.329  21.133  0.00  0.00     0.028 H 
ATOM     97  H25 non d ame     -28.621  16.315  22.593  0.00  0.00     0.028 H 
ATOM     98  H26 non d ame     -28.847  14.551  22.662  0.00  0.00     0.028 H 
ENDBRANCH  93  95
BRANCH  93  99
ATOM     99  C19 non d ame     -30.711  15.280  20.195  0.00  0.00    -0.073 C 
ATOM    100  H27 non d ame     -29.759  15.279  19.663  0.00  0.00     0.028 H 
ATOM    101  H28 non d ame     -31.171  14.295  20.117  0.00  0.00     0.028 H 
ATOM    102  H29 non d ame     -31.373  16.025  19.755  0.00  0.00     0.028 H 
ENDBRANCH  93  99
ENDBRANCH  90  93
ENDBRANCH   1  90
TORSDOF 26
ENDMDL
MODEL 2
REMARK VINA RESULT:      -7.4      1.621      2.416
REMARK  26 active torsions:
REMARK  status: ('A' for Active; 'I' for Inactive)
REMARK    1  A    between atoms: C2_2  and  C3_3 
REMARK    2  A    between atoms: C4_6  and  C5_7 
REMARK       I    between atoms: C5_7  and  N2_9 
REMARK    3  A    between atoms: N2_9  and  C6_10 
REMARK    4  A    between atoms: C6_10  and  C7_11 
REMARK    5  A    between atoms: C6_10  and  C8_13 
REMARK       I    between atoms: C7_11  and  N3_14 
REMARK    6  A    between atoms: N3_14  and  C9_15 
REMARK    7  A    between atoms: C9_15  and  C10_16 
REMARK    8  A    between atoms: C9_15  and  C11_18 
REMARK       I    between atoms: C10_16  and  N4_21 
REMARK    9  A    between atoms: C11_18  and  C12_19 
REMARK   10  A    between atoms: C11_18  and  C13_20 
REMARK   11  A    between atoms: N4_21  and  C14_22 
REMARK   12  A    between atoms: C14_22  and  C15_23 
REMARK   13  A    between atoms: C14_22  and  C16_25 
REMARK       I    between atoms: C15_23  and  N6_40 
REMARK   14  A    between atoms: C16_25  and  C17_26 
REMARK   15  A    between atoms: C17_26  and  C18_27 
REMARK   16  A    between atoms: C17_26  and  C19_28 
REMARK   17  A    between atoms: C20_29  and  C21_30 
REMARK   18  A    between atoms: C20_29  and  C24_33 
REMARK   19  A    between atoms: C20_29  and  N6_40 
REMARK   20  A    between atoms: C21_30  and  C22_31 
REMARK   21  A    between atoms: C22_31  and  C23_32 
REMARK   22  A    between atoms: C23_32  and  O8_43 
REMARK   23  A    between atoms: C24_33  and  C25_34 
REMARK   24  A    between atoms: C28_38  and  O6_39 
REMARK   25  A    between atoms: C29_42  and  O8_43 
REMARK   26  A    between atoms: C29_42  and  C35_49 
ROOT
ATOM      1  C14 non d ame     -31.154  14.060  24.430  0.00  0.00     0.089 C 
ATOM      2  H20 non d ame     -30.174  13.620  24.621  0.00  0.00     0.087 H 
ENDROOT
BRANCH   1   3
ATOM      3  N4  non d ame     -32.151  13.026  24.660  0.00  0.00    -0.346 N 
ATOM      4  C10 non d ame     -31.868  11.893  25.614  0.00  0.00     0.241 C 
ATOM      5  O4  non d ame     -30.828  11.833  26.183  0.00  0.00    -0.271 OA
ATOM      6  H19 non d ame     -33.029  13.094  24.165  0.00  0.00     0.163 HD
BRANCH   4   7
ATOM      7  C9  non d ame     -32.914  10.834  25.845  0.00  0.00     0.092 C 
ATOM      8  H11 non d ame     -33.077  10.718  26.916  0.00  0.00     0.088 H 
BRANCH   7   9
ATOM      9  N3  non d ame     -34.186  11.267  25.258  0.00  0.00    -0.346 N 
ATOM     10  C7  non d ame     -35.250  11.738  26.110  0.00  0.00     0.240 C 
ATOM     11  O3  non d ame     -35.100  11.773  27.271  0.00  0.00    -0.271 OA
ATOM     12  H10 non d ame     -34.330  11.241  24.259  0.00  0.00     0.163 HD
BRANCH  10  13
ATOM     13  C6  non d ame     -36.602  12.194  25.480  0.00  0.00     0.086 C 
ATOM     14  H6  non d ame     -37.461  11.952  26.104  0.00  0.00     0.086 H 
BRANCH  13  15
ATOM     15  N2  non d ame     -36.589  13.640  25.333  0.00  0.00    -0.343 N 
ATOM     16  C5  non d ame     -37.533  14.452  26.105  0.00  0.00     0.273 C 
ATOM     17  O2  non d ame     -38.300  13.932  26.839  0.00  0.00    -0.266 OA
ATOM     18  H5  non d ame     -35.932  14.076  24.702  0.00  0.00     0.163 HD
BRANCH  16  19
ATOM     19  C4  non d ame     -37.529  15.982  25.961  0.00  0.00     0.154 A 
ATOM     20  C1  non d ame     -37.178  16.740  24.800  0.00  0.00    -0.017 A 
ATOM     21  C2  non d ame     -37.340  18.090  25.185  0.00  0.00     0.077 A 
ATOM     22  H1  non d ame     -36.856  16.368  23.827  0.00  0.00     0.091 H 
ATOM     23  O1  non d ame     -37.739  18.095  26.423  0.00  0.00    -0.218 OA
ATOM     24  N1  non d ame     -37.856  16.877  26.898  0.00  0.00    -0.123 NA
BRANCH  21  25
ATOM     25  C3  non d ame     -37.094  19.312  24.310  0.00  0.00    -0.029 C 
ATOM     26  H2  non d ame     -36.534  20.057  24.875  0.00  0.00     0.036 H 
ATOM     27  H3  non d ame     -36.521  19.020  23.430  0.00  0.00     0.036 H 
ATOM     28  H4  non d ame     -38.049  19.735  23.998  0.00  0.00     0.036 H 
ENDBRANCH  21  25
ENDBRANCH  16  19
ENDBRANCH  13  15
BRANCH  13  29
ATOM     29  C8  non d ame     -36.778  11.540  24.133  0.00  0.00    -0.049 C 
ATOM     30  H7  non d ame     -37.841  11.433  23.918  0.00  0.00     0.030 H 
ATOM     31  H8  non d ame     -36.313  12.158  23.366  0.00  0.00     0.030 H 
ATOM     32  H9  non d ame     -36.308  10.557  24.143  0.00  0.00     0.030 H 
ENDBRANCH  13  29
ENDBRANCH  10  13
ENDBRANCH   7   9
BRANCH   7  33
ATOM     33  C11 non d ame     -32.462   9.504  25.174  0.00  0.00    -0.033 C 
ATOM     34  H12 non d ame     -31.389   9.403  25.333  0.00  0.00     0.042 H 
BRANCH  33  35
ATOM     35  C12 non d ame     -33.153   8.271  25.836  0.00  0.00    -0.071 C 
ATOM     36  H13 non d ame     -33.004   7.391  25.209  0.00  0.00     0.028 H 
ATOM     37  H14 non d ame     -32.717   8.094  26.818  0.00  0.00     0.028 H 
ATOM     38  H15 non d ame     -34.220   8.465  25.941  0.00  0.00     0.028 H 
ENDBRANCH  33  35
BRANCH  33  39
ATOM     39  C13 non d ame     -32.721   9.539  23.633  0.00  0.00    -0.071 C 
ATOM     40  H16 non d ame     -32.023  10.233  23.164  0.00  0.00     0.028 H 
ATOM     41  H17 non d ame     -32.576   8.541  23.218  0.00  0.00     0.028 H 
ATOM     42  H18 non d ame     -33.743   9.866  23.444  0.00  0.00     0.028 H 
ENDBRANCH  33  39
ENDBRANCH   7  33
ENDBRANCH   4   7
ENDBRANCH   1   3
BRANCH   1  43
ATOM     43  C15 non d ame     -31.454  15.258  25.377  0.00  0.00     0.240 C 
ATOM     44  O5  non d ame     -30.949  16.314  25.172  0.00  0.00    -0.271 OA
ATOM     45  N6  non d ame     -32.378  15.089  26.534  0.00  0.00    -0.355 N 
ATOM     46  H46 non d ame     -32.817  14.198  26.715  0.00  0.00     0.162 HD
BRANCH  45  47
ATOM     47  C20 non d ame     -32.655  16.238  27.424  0.00  0.00     0.013 C 
ATOM     48  H30 non d ame     -31.934  17.022  27.193  0.00  0.00     0.072 H 
BRANCH  47  49
ATOM     49  C21 non d ame     -32.502  15.803  28.864  0.00  0.00    -0.038 C 
ATOM     50  H31 non d ame     -31.490  16.088  29.152  0.00  0.00     0.036 H 
ATOM     51  H32 non d ame     -33.358  16.223  29.391  0.00  0.00     0.036 H 
BRANCH  49  52
ATOM     52  C22 non d ame     -32.590  14.271  29.040  0.00  0.00     0.018 C 
ATOM     53  H33 non d ame     -33.055  14.112  30.012  0.00  0.00     0.048 H 
ATOM     54  H34 non d ame     -33.073  13.898  28.136  0.00  0.00     0.048 H 
BRANCH  52  55
ATOM     55  C23 non d ame     -31.206  13.567  29.107  0.00  0.00     0.259 C 
ATOM     56  O7  non d ame     -30.240  14.092  28.656  0.00  0.00    -0.265 OA
BRANCH  55  57
ATOM     57  O8  non d ame     -31.107  12.280  29.703  0.00  0.00    -0.317 OA
BRANCH  57  58
ATOM     58  C29 non d ame     -31.858  12.139  30.913  0.00  0.00     0.052 C 
ATOM     59  H47 non d ame     -31.159  11.741  31.649  0.00  0.00     0.082 H 
ATOM     60  H48 non d ame     -32.332  13.106  31.080  0.00  0.00     0.082 H 
BRANCH  58  61
ATOM     61  C35 non d ame     -32.968  11.083  30.668  0.00  0.00    -0.034 A 
ATOM     62  C30 non d ame     -32.904  10.250  29.556  0.00  0.00    -0.075 A 
ATOM     63  C31 non d ame     -33.901   9.301  29.335  0.00  0.00    -0.082 A 
ATOM     64  H49 non d ame     -32.072  10.340  28.857  0.00  0.00     0.084 H 
ATOM     65  C32 non d ame     -34.968   9.189  30.231  0.00  0.00    -0.083 A 
ATOM     66  H50 non d ame     -33.847   8.648  28.464  0.00  0.00     0.083 H 
ATOM     67  C33 non d ame     -35.030  10.025  31.338  0.00  0.00    -0.082 A 
ATOM     68  H51 non d ame     -35.752   8.450  30.067  0.00  0.00     0.083 H 
ATOM     69  C34 non d ame     -34.034  10.973  31.563  0.00  0.00    -0.075 A 
ATOM     70  H52 non d ame     -35.865   9.937  32.033  0.00  0.00     0.083 H 
ATOM     71  H53 non d ame     -34.089  11.626  32.435  0.00  0.00     0.084 H 
ENDBRANCH  58  61
ENDBRANCH  57  58
ENDBRANCH  55  57
ENDBRANCH  52  55
ENDBRANCH  49  52
ENDBRANCH  47  49
BRANCH  47  72
ATOM     72  C24 non d ame     -34.078  16.741  27.192  0.00  0.00    -0.039 C 
ATOM     73  H35 non d ame     -34.443  16.189  26.325  0.00  0.00     0.036 H 
ATOM     74  H36 non d ame     -34.582  16.640  28.153  0.00  0.00     0.036 H 
BRANCH  72  75
ATOM     75  C25 non d ame     -34.102  18.295  26.806  0.00  0.00    -0.001 C 
ATOM     76  C26 non d ame     -32.579  18.912  26.871  0.00  0.00    -0.035 C 
ATOM     77  C27 non d ame     -32.594  20.031  27.635  0.00  0.00     0.085 C 
ATOM     78  H38 non d ame     -31.925  18.236  27.422  0.00  0.00     0.036 H 
ATOM     79  H39 non d ame     -32.281  19.278  25.889  0.00  0.00     0.036 H 
ATOM     80  N5  non d ame     -33.916  20.051  28.363  0.00  0.00    -0.049 N 
ATOM     81  H40 non d ame     -31.791  19.899  28.360  0.00  0.00     0.075 H 
ATOM     82  H41 non d ame     -32.562  20.863  26.932  0.00  0.00     0.075 H 
ATOM     83  C28 non d ame     -34.850  18.966  27.617  0.00  0.00     0.193 C 
ATOM     84  H42 non d ame     -33.732  19.726  29.301  0.00  0.00     0.280 HD
ATOM     85  H43 non d ame     -34.309  20.970  28.214  0.00  0.00     0.280 HD
ATOM     86  H44 non d ame     -35.639  19.289  26.937  0.00  0.00     0.129 H 
ATOM     87  H37 non d ame     -34.676  18.487  25.900  0.00  0.00     0.046 H 
BRANCH  83  88
ATOM     88  O6  non d ame     -35.493  18.127  28.577  0.00  0.00    -0.369 OA
ATOM     89  H45 non d ame     -34.835  17.758  29.171  0.00  0.00     0.212 HD
ENDBRANCH  83  88
ENDBRANCH  72  75
ENDBRANCH  47  72
ENDBRANCH  45  47
ENDBRANCH   1  43
BRANCH   1  90
ATOM     90  C16 non d ame     -31.239  14.519  22.983  0.00  0.00    -0.035 C 
ATOM     91  H21 non d ame     -32.010  13.897  22.529  0.00  0.00     0.037 H 
ATOM     92  H22 non d ame     -31.368  15.600  23.030  0.00  0.00     0.037 H 
BRANCH  90  93
ATOM     93  C17 non d ame     -29.931  14.265  22.167  0.00  0.00    -0.059 C 
ATOM     94  H23 non d ame     -30.108  14.603  21.146  0.00  0.00     0.038 H 
BRANCH  93  95
ATOM     95  C18 non d ame     -28.719  15.072  22.733  0.00  0.00    -0.073 C 
ATOM     96  H24 non d ame     -28.811  16.118  22.443  0.00  0.00     0.028 H 
ATOM     97  H25 non d ame     -28.707  14.997  23.820  0.00  0.00     0.028 H 
ATOM     98  H26 non d ame     -27.792  14.664  22.331  0.00  0.00     0.028 H 
ENDBRANCH  93  95
BRANCH  93  99
ATOM     99  C19 non d ame     -29.609  12.770  22.103  0.00  0.00    -0.073 C 
ATOM    100  H27 non d ame     -30.445  12.237  21.650  0.00  0.00     0.028 H 
ATOM    101  H28 non d ame     -28.713  12.617  21.501  0.00  0.00     0.028 H 
ATOM    102  H29 non d ame     -29.437  12.391  23.110  0.00  0.00     0.028 H 
ENDBRANCH  93  99
ENDBRANCH  90  93
ENDBRANCH   1  90
TORSDOF 26
ENDMDL
MODEL 3
REMARK VINA RESULT:      -7.4      3.018      7.331
REMARK  26 active torsions:
REMARK  status: ('A' for Active; 'I' for Inactive)
REMARK    1  A    between atoms: C2_2  and  C3_3 
REMARK    2  A    between atoms: C4_6  and  C5_7 
REMARK       I    between atoms: C5_7  and  N2_9 
REMARK    3  A    between atoms: N2_9  and  C6_10 
REMARK    4  A    between atoms: C6_10  and  C7_11 
REMARK    5  A    between atoms: C6_10  and  C8_13 
REMARK       I    between atoms: C7_11  and  N3_14 
REMARK    6  A    between atoms: N3_14  and  C9_15 
REMARK    7  A    between atoms: C9_15  and  C10_16 
REMARK    8  A    between atoms: C9_15  and  C11_18 
REMARK       I    between atoms: C10_16  and  N4_21 
REMARK    9  A    between atoms: C11_18  and  C12_19 
REMARK   10  A    between atoms: C11_18  and  C13_20 
REMARK   11  A    between atoms: N4_21  and  C14_22 
REMARK   12  A    between atoms: C14_22  and  C15_23 
REMARK   13  A    between atoms: C14_22  and  C16_25 
REMARK       I    between atoms: C15_23  and  N6_40 
REMARK   14  A    between atoms: C16_25  and  C17_26 
REMARK   15  A    between atoms: C17_26  and  C18_27 
REMARK   16  A    between atoms: C17_26  and  C19_28 
REMARK   17  A    between atoms: C20_29  and  C21_30 
REMARK   18  A    between atoms: C20_29  and  C24_33 
REMARK   19  A    between atoms: C20_29  and  N6_40 
REMARK   20  A    between atoms: C21_30  and  C22_31 
REMARK   21  A    between atoms: C22_31  and  C23_32 
REMARK   22  A    between atoms: C23_32  and  O8_43 
REMARK   23  A    between atoms: C24_33  and  C25_34 
REMARK   24  A    between atoms: C28_38  and  O6_39 
REMARK   25  A    between atoms: C29_42  and  O8_43 
REMARK   26  A    between atoms: C29_42  and  C35_49 
ROOT
ATOM      1  C14 non d ame     -31.120  13.745  24.718  0.00  0.00     0.089 C 
ATOM      2  H20 non d ame     -30.116  13.698  25.140  0.00  0.00     0.087 H 
ENDROOT
BRANCH   1   3
ATOM      3  N4  non d ame     -31.486  12.399  24.304  0.00  0.00    -0.346 N 
ATOM      4  C10 non d ame     -31.358  11.245  25.267  0.00  0.00     0.241 C 
ATOM      5  O4  non d ame     -30.955  11.425  26.369  0.00  0.00    -0.271 OA
ATOM      6  H19 non d ame     -31.824  12.267  23.362  0.00  0.00     0.163 HD
BRANCH   4   7
ATOM      7  C9  non d ame     -31.746   9.859  24.824  0.00  0.00     0.092 C 
ATOM      8  H11 non d ame     -31.033   9.140  25.228  0.00  0.00     0.088 H 
BRANCH   7   9
ATOM      9  N3  non d ame     -33.062   9.520  25.374  0.00  0.00    -0.346 N 
ATOM     10  C7  non d ame     -33.159   8.697  26.555  0.00  0.00     0.240 C 
ATOM     11  O3  non d ame     -32.189   8.298  27.073  0.00  0.00    -0.271 OA
ATOM     12  H10 non d ame     -33.908   9.856  24.937  0.00  0.00     0.163 HD
BRANCH  10  13
ATOM     13  C6  non d ame     -34.563   8.337  27.134  0.00  0.00     0.086 C 
ATOM     14  H6  non d ame     -35.099   7.613  26.521  0.00  0.00     0.086 H 
BRANCH  13  15
ATOM     15  N2  non d ame     -34.391   7.729  28.443  0.00  0.00    -0.343 N 
ATOM     16  C5  non d ame     -34.742   6.320  28.635  0.00  0.00     0.273 C 
ATOM     17  O2  non d ame     -35.165   5.686  27.732  0.00  0.00    -0.266 OA
ATOM     18  H5  non d ame     -34.032   8.279  29.210  0.00  0.00     0.163 HD
BRANCH  16  19
ATOM     19  C4  non d ame     -34.564   5.664  30.013  0.00  0.00     0.154 A 
ATOM     20  C1  non d ame     -33.615   4.656  30.374  0.00  0.00    -0.017 A 
ATOM     21  C2  non d ame     -33.862   4.398  31.741  0.00  0.00     0.077 A 
ATOM     22  H1  non d ame     -32.862   4.185  29.742  0.00  0.00     0.091 H 
ATOM     23  O1  non d ame     -34.839   5.172  32.112  0.00  0.00    -0.218 OA
ATOM     24  N1  non d ame     -35.266   5.920  31.120  0.00  0.00    -0.123 NA
BRANCH  21  25
ATOM     25  C3  non d ame     -33.119   3.398  32.618  0.00  0.00    -0.029 C 
ATOM     26  H2  non d ame     -33.617   3.322  33.584  0.00  0.00     0.036 H 
ATOM     27  H3  non d ame     -33.116   2.422  32.133  0.00  0.00     0.036 H 
ATOM     28  H4  non d ame     -32.093   3.734  32.764  0.00  0.00     0.036 H 
ENDBRANCH  21  25
ENDBRANCH  16  19
ENDBRANCH  13  15
BRANCH  13  29
ATOM     29  C8  non d ame     -35.397   9.588  27.251  0.00  0.00    -0.049 C 
ATOM     30  H7  non d ame     -36.256   9.393  27.893  0.00  0.00     0.030 H 
ATOM     31  H8  non d ame     -34.794  10.387  27.682  0.00  0.00     0.030 H 
ATOM     32  H9  non d ame     -35.744   9.888  26.262  0.00  0.00     0.030 H 
ENDBRANCH  13  29
ENDBRANCH  10  13
ENDBRANCH   7   9
BRANCH   7  33
ATOM     33  C11 non d ame     -31.809   9.810  23.269  0.00  0.00    -0.033 C 
ATOM     34  H12 non d ame     -32.000  10.823  22.916  0.00  0.00     0.042 H 
BRANCH  33  35
ATOM     35  C12 non d ame     -30.448   9.350  22.660  0.00  0.00    -0.071 C 
ATOM     36  H13 non d ame     -30.167   8.387  23.085  0.00  0.00     0.028 H 
ATOM     37  H14 non d ame     -30.548   9.254  21.579  0.00  0.00     0.028 H 
ATOM     38  H15 non d ame     -29.679  10.087  22.890  0.00  0.00     0.028 H 
ENDBRANCH  33  35
BRANCH  33  39
ATOM     39  C13 non d ame     -32.983   8.900  22.785  0.00  0.00    -0.071 C 
ATOM     40  H16 non d ame     -33.700   9.499  22.223  0.00  0.00     0.028 H 
ATOM     41  H17 non d ame     -32.590   8.109  22.146  0.00  0.00     0.028 H 
ATOM     42  H18 non d ame     -33.478   8.455  23.648  0.00  0.00     0.028 H 
ENDBRANCH  33  39
ENDBRANCH   7  33
ENDBRANCH   4   7
ENDBRANCH   1   3
BRANCH   1  43
ATOM     43  C15 non d ame     -32.169  14.248  25.752  0.00  0.00     0.240 C 
ATOM     44  O5  non d ame     -33.294  14.427  25.413  0.00  0.00    -0.271 OA
ATOM     45  N6  non d ame     -31.771  14.497  27.167  0.00  0.00    -0.355 N 
ATOM     46  H46 non d ame     -30.820  14.343  27.467  0.00  0.00     0.162 HD
BRANCH  45  47
ATOM     47  C20 non d ame     -32.780  14.973  28.138  0.00  0.00     0.013 C 
ATOM     48  H30 non d ame     -33.767  14.769  27.724  0.00  0.00     0.072 H 
BRANCH  47  49
ATOM     49  C21 non d ame     -32.606  16.460  28.350  0.00  0.00    -0.038 C 
ATOM     50  H31 non d ame     -32.861  16.640  29.395  0.00  0.00     0.036 H 
ATOM     51  H32 non d ame     -31.607  16.695  27.984  0.00  0.00     0.036 H 
BRANCH  49  52
ATOM     52  C22 non d ame     -33.589  17.304  27.510  0.00  0.00     0.018 C 
ATOM     53  H33 non d ame     -34.294  16.594  27.079  0.00  0.00     0.048 H 
ATOM     54  H34 non d ame     -33.945  18.091  28.174  0.00  0.00     0.048 H 
BRANCH  52  55
ATOM     55  C23 non d ame     -32.922  18.028  26.307  0.00  0.00     0.259 C 
ATOM     56  O7  non d ame     -32.004  17.533  25.738  0.00  0.00    -0.265 OA
BRANCH  55  57
ATOM     57  O8  non d ame     -33.414  19.299  25.900  0.00  0.00    -0.317 OA
BRANCH  57  58
ATOM     58  C29 non d ame     -34.084  20.024  26.935  0.00  0.00     0.052 C 
ATOM     59  H47 non d ame     -34.092  19.361  27.801  0.00  0.00     0.082 H 
ATOM     60  H48 non d ame     -33.582  20.989  26.992  0.00  0.00     0.082 H 
BRANCH  58  61
ATOM     61  C35 non d ame     -35.550  20.259  26.483  0.00  0.00    -0.034 A 
ATOM     62  C30 non d ame     -36.005  19.719  25.284  0.00  0.00    -0.075 A 
ATOM     63  C31 non d ame     -37.322  19.931  24.878  0.00  0.00    -0.082 A 
ATOM     64  H49 non d ame     -35.329  19.132  24.662  0.00  0.00     0.084 H 
ATOM     65  C32 non d ame     -38.185  20.687  25.676  0.00  0.00    -0.083 A 
ATOM     66  H50 non d ame     -37.675  19.505  23.939  0.00  0.00     0.083 H 
ATOM     67  C33 non d ame     -37.726  21.226  26.870  0.00  0.00    -0.082 A 
ATOM     68  H51 non d ame     -39.216  20.856  25.366  0.00  0.00     0.083 H 
ATOM     69  C34 non d ame     -36.411  21.015  27.281  0.00  0.00    -0.075 A 
ATOM     70  H52 non d ame     -38.401  21.817  27.489  0.00  0.00     0.083 H 
ATOM     71  H53 non d ame     -36.059  21.441  28.220  0.00  0.00     0.084 H 
ENDBRANCH  58  61
ENDBRANCH  57  58
ENDBRANCH  55  57
ENDBRANCH  52  55
ENDBRANCH  49  52
ENDBRANCH  47  49
BRANCH  47  72
ATOM     72  C24 non d ame     -32.601  14.244  29.468  0.00  0.00    -0.039 C 
ATOM     73  H35 non d ame     -31.917  14.863  30.049  0.00  0.00     0.036 H 
ATOM     74  H36 non d ame     -33.611  14.057  29.834  0.00  0.00     0.036 H 
BRANCH  72  75
ATOM     75  C25 non d ame     -31.898  12.818  29.272  0.00  0.00    -0.001 C 
ATOM     76  C26 non d ame     -33.034  11.629  29.270  0.00  0.00    -0.035 C 
ATOM     77  C27 non d ame     -32.668  10.674  30.158  0.00  0.00     0.085 C 
ATOM     78  H38 non d ame     -33.972  12.007  29.675  0.00  0.00     0.036 H 
ATOM     79  H39 non d ame     -33.025  11.105  28.314  0.00  0.00     0.036 H 
ATOM     80  N5  non d ame     -31.559  11.257  31.001  0.00  0.00    -0.049 N 
ATOM     81  H40 non d ame     -33.543  10.509  30.786  0.00  0.00     0.075 H 
ATOM     82  H41 non d ame     -32.266   9.858  29.559  0.00  0.00     0.075 H 
ATOM     83  C28 non d ame     -31.056  12.578  30.221  0.00  0.00     0.193 C 
ATOM     84  H42 non d ame     -31.982  11.540  31.874  0.00  0.00     0.280 HD
ATOM     85  H43 non d ame     -30.812  10.577  30.999  0.00  0.00     0.280 HD
ATOM     86  H44 non d ame     -30.122  12.567  29.659  0.00  0.00     0.129 H 
ATOM     87  H37 non d ame     -31.181  12.820  28.451  0.00  0.00     0.046 H 
BRANCH  83  88
ATOM     88  O6  non d ame     -30.942  13.673  31.130  0.00  0.00    -0.369 OA
ATOM     89  H45 non d ame     -30.801  14.485  30.637  0.00  0.00     0.212 HD
ENDBRANCH  83  88
ENDBRANCH  72  75
ENDBRANCH  47  72
ENDBRANCH  45  47
ENDBRANCH   1  43
BRANCH   1  90
ATOM     90  C16 non d ame     -31.125  14.656  23.501  0.00  0.00    -0.035 C 
ATOM     91  H21 non d ame     -32.094  14.500  23.027  0.00  0.00     0.037 H 
ATOM     92  H22 non d ame     -30.856  15.643  23.878  0.00  0.00     0.037 H 
BRANCH  90  93
ATOM     93  C17 non d ame     -30.048  14.282  22.434  0.00  0.00    -0.059 C 
ATOM     94  H23 non d ame     -29.967  13.196  22.412  0.00  0.00     0.038 H 
BRANCH  93  95
ATOM     95  C18 non d ame     -30.447  14.760  21.001  0.00  0.00    -0.073 C 
ATOM     96  H24 non d ame     -31.528  14.690  20.883  0.00  0.00     0.028 H 
ATOM     97  H25 non d ame     -30.133  15.793  20.861  0.00  0.00     0.028 H 
ATOM     98  H26 non d ame     -29.959  14.128  20.259  0.00  0.00     0.028 H 
ENDBRANCH  93  95
BRANCH  93  99
ATOM     99  C19 non d ame     -28.674  14.832  22.828  0.00  0.00    -0.073 C 
ATOM    100  H27 non d ame     -28.085  15.018  21.929  0.00  0.00     0.028 H 
ATOM    101  H28 non d ame     -28.800  15.764  23.379  0.00  0.00     0.028 H 
ATOM    102  H29 non d ame     -28.159  14.106  23.457  0.00  0.00     0.028 H 
ENDBRANCH  93  99
ENDBRANCH  90  93
ENDBRANCH   1  90
TORSDOF 26
ENDMDL
MODEL 4
REMARK VINA RESULT:      -7.3      3.382      6.655
REMARK  26 active torsions:
REMARK  status: ('A' for Active; 'I' for Inactive)
REMARK    1  A    between atoms: C2_2  and  C3_3 
REMARK    2  A    between atoms: C4_6  and  C5_7 
REMARK       I    between atoms: C5_7  and  N2_9 
REMARK    3  A    between atoms: N2_9  and  C6_10 
REMARK    4  A    between atoms: C6_10  and  C7_11 
REMARK    5  A    between atoms: C6_10  and  C8_13 
REMARK       I    between atoms: C7_11  and  N3_14 
REMARK    6  A    between atoms: N3_14  and  C9_15 
REMARK    7  A    between atoms: C9_15  and  C10_16 
REMARK    8  A    between atoms: C9_15  and  C11_18 
REMARK       I    between atoms: C10_16  and  N4_21 
REMARK    9  A    between atoms: C11_18  and  C12_19 
REMARK   10  A    between atoms: C11_18  and  C13_20 
REMARK   11  A    between atoms: N4_21  and  C14_22 
REMARK   12  A    between atoms: C14_22  and  C15_23 
REMARK   13  A    between atoms: C14_22  and  C16_25 
REMARK       I    between atoms: C15_23  and  N6_40 
REMARK   14  A    between atoms: C16_25  and  C17_26 
REMARK   15  A    between atoms: C17_26  and  C18_27 
REMARK   16  A    between atoms: C17_26  and  C19_28 
REMARK   17  A    between atoms: C20_29  and  C21_30 
REMARK   18  A    between atoms: C20_29  and  C24_33 
REMARK   19  A    between atoms: C20_29  and  N6_40 
REMARK   20  A    between atoms: C21_30  and  C22_31 
REMARK   21  A    between atoms: C22_31  and  C23_32 
REMARK   22  A    between atoms: C23_32  and  O8_43 
REMARK   23  A    between atoms: C24_33  and  C25_34 
REMARK   24  A    between atoms: C28_38  and  O6_39 
REMARK   25  A    between atoms: C29_42  and  O8_43 
REMARK   26  A    between atoms: C29_42  and  C35_49 
ROOT
ATOM      1  C14 non d ame     -32.645  10.441  25.798  0.00  0.00     0.089 C 
ATOM      2  H20 non d ame     -33.540  10.514  25.179  0.00  0.00     0.087 H 
ENDROOT
BRANCH   1   3
ATOM      3  N4  non d ame     -32.135   9.084  25.674  0.00  0.00    -0.346 N 
ATOM      4  C10 non d ame     -32.954   8.023  24.984  0.00  0.00     0.241 C 
ATOM      5  O4  non d ame     -34.023   8.284  24.538  0.00  0.00    -0.271 OA
ATOM      6  H19 non d ame     -31.225   8.881  26.062  0.00  0.00     0.163 HD
BRANCH   4   7
ATOM      7  C9  non d ame     -32.409   6.624  24.859  0.00  0.00     0.092 C 
ATOM      8  H11 non d ame     -31.344   6.632  25.094  0.00  0.00     0.088 H 
BRANCH   7   9
ATOM      9  N3  non d ame     -33.063   5.755  25.842  0.00  0.00    -0.346 N 
ATOM     10  C7  non d ame     -32.698   5.840  27.235  0.00  0.00     0.240 C 
ATOM     11  O3  non d ame     -31.880   6.601  27.582  0.00  0.00    -0.271 OA
ATOM     12  H10 non d ame     -33.770   5.092  25.557  0.00  0.00     0.163 HD
BRANCH  10  13
ATOM     13  C6  non d ame     -33.396   4.910  28.275  0.00  0.00     0.086 C 
ATOM     14  H6  non d ame     -32.788   4.740  29.164  0.00  0.00     0.086 H 
BRANCH  13  15
ATOM     15  N2  non d ame     -34.623   5.545  28.727  0.00  0.00    -0.343 N 
ATOM     16  C5  non d ame     -34.962   5.529  30.152  0.00  0.00     0.273 C 
ATOM     17  O2  non d ame     -34.242   5.000  30.926  0.00  0.00    -0.266 OA
ATOM     18  H5  non d ame     -35.234   5.992  28.058  0.00  0.00     0.163 HD
BRANCH  16  19
ATOM     19  C4  non d ame     -36.255   6.197  30.643  0.00  0.00     0.154 A 
ATOM     20  C1  non d ame     -36.543   7.598  30.682  0.00  0.00    -0.017 A 
ATOM     21  C2  non d ame     -37.850   7.686  31.211  0.00  0.00     0.077 A 
ATOM     22  H1  non d ame     -35.902   8.425  30.374  0.00  0.00     0.091 H 
ATOM     23  O1  non d ame     -38.256   6.472  31.444  0.00  0.00    -0.218 OA
ATOM     24  N1  non d ame     -37.343   5.586  31.121  0.00  0.00    -0.123 NA
BRANCH  21  25
ATOM     25  C3  non d ame     -38.638   8.965  31.462  0.00  0.00    -0.029 C 
ATOM     26  H2  non d ame     -38.045   9.642  32.077  0.00  0.00     0.036 H 
ATOM     27  H3  non d ame     -38.864   9.444  30.509  0.00  0.00     0.036 H 
ATOM     28  H4  non d ame     -39.567   8.725  31.977  0.00  0.00     0.036 H 
ENDBRANCH  21  25
ENDBRANCH  16  19
ENDBRANCH  13  15
BRANCH  13  29
ATOM     29  C8  non d ame     -33.707   3.580  27.636  0.00  0.00    -0.049 C 
ATOM     30  H7  non d ame     -33.042   2.818  28.042  0.00  0.00     0.030 H 
ATOM     31  H8  non d ame     -34.741   3.310  27.846  0.00  0.00     0.030 H 
ATOM     32  H9  non d ame     -33.561   3.652  26.558  0.00  0.00     0.030 H 
ENDBRANCH  13  29
ENDBRANCH  10  13
ENDBRANCH   7   9
BRANCH   7  33
ATOM     33  C11 non d ame     -32.688   6.084  23.426  0.00  0.00    -0.033 C 
ATOM     34  H12 non d ame     -33.510   6.667  23.010  0.00  0.00     0.042 H 
BRANCH  33  35
ATOM     35  C12 non d ame     -31.452   6.283  22.493  0.00  0.00    -0.071 C 
ATOM     36  H13 non d ame     -31.218   7.345  22.422  0.00  0.00     0.028 H 
ATOM     37  H14 non d ame     -30.597   5.749  22.905  0.00  0.00     0.028 H 
ATOM     38  H15 non d ame     -31.680   5.894  21.501  0.00  0.00     0.028 H 
ENDBRANCH  33  35
BRANCH  33  39
ATOM     39  C13 non d ame     -33.130   4.586  23.469  0.00  0.00    -0.071 C 
ATOM     40  H16 non d ame     -32.286   3.951  23.200  0.00  0.00     0.028 H 
ATOM     41  H17 non d ame     -33.468   4.336  24.475  0.00  0.00     0.028 H 
ATOM     42  H18 non d ame     -33.945   4.428  22.763  0.00  0.00     0.028 H 
ENDBRANCH  33  39
ENDBRANCH   7  33
ENDBRANCH   4   7
ENDBRANCH   1   3
BRANCH   1  43
ATOM     43  C15 non d ame     -31.534  11.431  25.342  0.00  0.00     0.240 C 
ATOM     44  O5  non d ame     -30.433  11.032  25.143  0.00  0.00    -0.271 OA
ATOM     45  N6  non d ame     -31.847  12.875  25.146  0.00  0.00    -0.355 N 
ATOM     46  H46 non d ame     -32.780  13.225  25.308  0.00  0.00     0.162 HD
BRANCH  45  47
ATOM     47  C20 non d ame     -30.780  13.803  24.712  0.00  0.00     0.013 C 
ATOM     48  H30 non d ame     -29.829  13.414  25.073  0.00  0.00     0.072 H 
BRANCH  47  49
ATOM     49  C21 non d ame     -31.036  15.171  25.303  0.00  0.00    -0.038 C 
ATOM     50  H31 non d ame     -30.493  15.190  26.247  0.00  0.00     0.036 H 
ATOM     51  H32 non d ame     -30.788  15.883  24.515  0.00  0.00     0.036 H 
BRANCH  49  52
ATOM     52  C22 non d ame     -32.523  15.405  25.650  0.00  0.00     0.018 C 
ATOM     53  H33 non d ame     -32.961  15.876  24.770  0.00  0.00     0.048 H 
ATOM     54  H34 non d ame     -32.900  14.443  25.998  0.00  0.00     0.048 H 
BRANCH  52  55
ATOM     55  C23 non d ame     -32.743  16.401  26.822  0.00  0.00     0.259 C 
ATOM     56  O7  non d ame     -32.886  17.561  26.609  0.00  0.00    -0.265 OA
BRANCH  55  57
ATOM     57  O8  non d ame     -32.759  15.912  28.158  0.00  0.00    -0.317 OA
BRANCH  57  58
ATOM     58  C29 non d ame     -33.450  14.669  28.314  0.00  0.00     0.052 C 
ATOM     59  H47 non d ame     -34.305  14.885  28.954  0.00  0.00     0.082 H 
ATOM     60  H48 non d ame     -33.607  14.290  27.305  0.00  0.00     0.082 H 
BRANCH  58  61
ATOM     61  C35 non d ame     -32.508  13.690  29.065  0.00  0.00    -0.034 A 
ATOM     62  C30 non d ame     -31.169  13.593  28.701  0.00  0.00    -0.075 A 
ATOM     63  C31 non d ame     -30.324  12.713  29.375  0.00  0.00    -0.082 A 
ATOM     64  H49 non d ame     -30.782  14.206  27.886  0.00  0.00     0.084 H 
ATOM     65  C32 non d ame     -30.823  11.927  30.417  0.00  0.00    -0.083 A 
ATOM     66  H50 non d ame     -29.275  12.641  29.088  0.00  0.00     0.083 H 
ATOM     67  C33 non d ame     -32.160  12.025  30.775  0.00  0.00    -0.082 A 
ATOM     68  H51 non d ame     -30.168  11.237  30.950  0.00  0.00     0.083 H 
ATOM     69  C34 non d ame     -33.008  12.904  30.105  0.00  0.00    -0.075 A 
ATOM     70  H52 non d ame     -32.547  11.408  31.587  0.00  0.00     0.083 H 
ATOM     71  H53 non d ame     -34.058  12.976  30.393  0.00  0.00     0.084 H 
ENDBRANCH  58  61
ENDBRANCH  57  58
ENDBRANCH  55  57
ENDBRANCH  52  55
ENDBRANCH  49  52
ENDBRANCH  47  49
BRANCH  47  72
ATOM     72  C24 non d ame     -30.769  13.900  23.187  0.00  0.00    -0.039 C 
ATOM     73  H35 non d ame     -30.118  13.094  22.850  0.00  0.00     0.036 H 
ATOM     74  H36 non d ame     -31.818  13.914  22.890  0.00  0.00     0.036 H 
BRANCH  72  75
ATOM     75  C25 non d ame     -30.118  15.275  22.686  0.00  0.00    -0.001 C 
ATOM     76  C26 non d ame     -31.251  16.182  21.912  0.00  0.00    -0.035 C 
ATOM     77  C27 non d ame     -30.759  16.561  20.708  0.00  0.00     0.085 C 
ATOM     78  H38 non d ame     -32.111  15.565  21.654  0.00  0.00     0.036 H 
ATOM     79  H39 non d ame     -31.396  17.127  22.437  0.00  0.00     0.036 H 
ATOM     80  N5  non d ame     -29.528  15.726  20.452  0.00  0.00    -0.049 N 
ATOM     81  H40 non d ame     -31.528  16.294  19.983  0.00  0.00     0.075 H 
ATOM     82  H41 non d ame     -30.463  17.602  20.830  0.00  0.00     0.075 H 
ATOM     83  C28 non d ame     -29.140  15.059  21.870  0.00  0.00     0.193 C 
ATOM     84  H42 non d ame     -29.806  14.992  19.817  0.00  0.00     0.280 HD
ATOM     85  H43 non d ame     -28.796  16.371  20.189  0.00  0.00     0.280 HD
ATOM     86  H44 non d ame     -28.305  15.446  22.454  0.00  0.00     0.129 H 
ATOM     87  H37 non d ame     -29.538  15.766  23.467  0.00  0.00     0.046 H 
BRANCH  83  88
ATOM     88  O6  non d ame     -28.876  13.665  21.703  0.00  0.00    -0.369 OA
ATOM     89  H45 non d ame     -29.535  13.282  21.119  0.00  0.00     0.212 HD
ENDBRANCH  83  88
ENDBRANCH  72  75
ENDBRANCH  47  72
ENDBRANCH  45  47
ENDBRANCH   1  43
BRANCH   1  90
ATOM     90  C16 non d ame     -33.001  10.707  27.252  0.00  0.00    -0.035 C 
ATOM     91  H21 non d ame     -32.115  10.428  27.821  0.00  0.00     0.037 H 
ATOM     92  H22 non d ame     -33.364  11.734  27.277  0.00  0.00     0.037 H 
BRANCH  90  93
ATOM     93  C17 non d ame     -34.166   9.813  27.784  0.00  0.00    -0.059 C 
ATOM     94  H23 non d ame     -34.359   9.042  27.039  0.00  0.00     0.038 H 
BRANCH  93  95
ATOM     95  C18 non d ame     -33.796   9.099  29.124  0.00  0.00    -0.073 C 
ATOM     96  H24 non d ame     -34.111   9.717  29.964  0.00  0.00     0.028 H 
ATOM     97  H25 non d ame     -34.302   8.135  29.173  0.00  0.00     0.028 H 
ATOM     98  H26 non d ame     -32.718   8.946  29.168  0.00  0.00     0.028 H 
ENDBRANCH  93  95
BRANCH  93  99
ATOM     99  C19 non d ame     -35.453  10.628  27.939  0.00  0.00    -0.073 C 
ATOM    100  H27 non d ame     -36.305  10.028  27.618  0.00  0.00     0.028 H 
ATOM    101  H28 non d ame     -35.582  10.910  28.984  0.00  0.00     0.028 H 
ATOM    102  H29 non d ame     -35.390  11.527  27.326  0.00  0.00     0.028 H 
ENDBRANCH  93  99
ENDBRANCH  90  93
ENDBRANCH   1  90
TORSDOF 26
ENDMDL
MODEL 5
REMARK VINA RESULT:      -7.3      2.136      5.889
REMARK  26 active torsions:
REMARK  status: ('A' for Active; 'I' for Inactive)
REMARK    1  A    between atoms: C2_2  and  C3_3 
REMARK    2  A    between atoms: C4_6  and  C5_7 
REMARK       I    between atoms: C5_7  and  N2_9 
REMARK    3  A    between atoms: N2_9  and  C6_10 
REMARK    4  A    between atoms: C6_10  and  C7_11 
REMARK    5  A    between atoms: C6_10  and  C8_13 
REMARK       I    between atoms: C7_11  and  N3_14 
REMARK    6  A    between atoms: N3_14  and  C9_15 
REMARK    7  A    between atoms: C9_15  and  C10_16 
REMARK    8  A    between atoms: C9_15  and  C11_18 
REMARK       I    between atoms: C10_16  and  N4_21 
REMARK    9  A    between atoms: C11_18  and  C12_19 
REMARK   10  A    between atoms: C11_18  and  C13_20 
REMARK   11  A    between atoms: N4_21  and  C14_22 
REMARK   12  A    between atoms: C14_22  and  C15_23 
REMARK   13  A    between atoms: C14_22  and  C16_25 
REMARK       I    between atoms: C15_23  and  N6_40 
REMARK   14  A    between atoms: C16_25  and  C17_26 
REMARK   15  A    between atoms: C17_26  and  C18_27 
REMARK   16  A    between atoms: C17_26  and  C19_28 
REMARK   17  A    between atoms: C20_29  and  C21_30 
REMARK   18  A    between atoms: C20_29  and  C24_33 
REMARK   19  A    between atoms: C20_29  and  N6_40 
REMARK   20  A    between atoms: C21_30  and  C22_31 
REMARK   21  A    between atoms: C22_31  and  C23_32 
REMARK   22  A    between atoms: C23_32  and  O8_43 
REMARK   23  A    between atoms: C24_33  and  C25_34 
REMARK   24  A    between atoms: C28_38  and  O6_39 
REMARK   25  A    between atoms: C29_42  and  O8_43 
REMARK   26  A    between atoms: C29_42  and  C35_49 
ROOT
ATOM      1  C14 non d ame     -31.012  14.554  23.845  0.00  0.00     0.089 C 
ATOM      2  H20 non d ame     -29.953  14.738  24.030  0.00  0.00     0.087 H 
ENDROOT
BRANCH   1   3
ATOM      3  N4  non d ame     -31.280  13.163  24.176  0.00  0.00    -0.346 N 
ATOM      4  C10 non d ame     -30.583  12.054  23.428  0.00  0.00     0.241 C 
ATOM      5  O4  non d ame     -29.813  12.306  22.561  0.00  0.00    -0.271 OA
ATOM      6  H19 non d ame     -31.941  12.969  24.915  0.00  0.00     0.163 HD
BRANCH   4   7
ATOM      7  C9  non d ame     -30.868  10.619  23.788  0.00  0.00     0.092 C 
ATOM      8  H11 non d ame     -30.184  10.305  24.576  0.00  0.00     0.088 H 
BRANCH   7   9
ATOM      9  N3  non d ame     -32.228  10.511  24.326  0.00  0.00    -0.346 N 
ATOM     10  C7  non d ame     -32.445  10.560  25.751  0.00  0.00     0.240 C 
ATOM     11  O3  non d ame     -31.537  10.684  26.479  0.00  0.00    -0.271 OA
ATOM     12  H10 non d ame     -33.021  10.402  23.710  0.00  0.00     0.163 HD
BRANCH  10  13
ATOM     13  C6  non d ame     -33.894  10.441  26.317  0.00  0.00     0.086 C 
ATOM     14  H6  non d ame     -34.545   9.837  25.686  0.00  0.00     0.086 H 
BRANCH  13  15
ATOM     15  N2  non d ame     -33.842   9.781  27.611  0.00  0.00    -0.343 N 
ATOM     16  C5  non d ame     -34.914   8.860  27.995  0.00  0.00     0.273 C 
ATOM     17  O2  non d ame     -35.815   8.659  27.258  0.00  0.00    -0.266 OA
ATOM     18  H5  non d ame     -33.069   9.961  28.237  0.00  0.00     0.163 HD
BRANCH  16  19
ATOM     19  C4  non d ame     -34.870   8.154  29.360  0.00  0.00     0.154 A 
ATOM     20  C1  non d ame     -34.992   6.751  29.611  0.00  0.00    -0.017 A 
ATOM     21  C2  non d ame     -34.886   6.623  31.014  0.00  0.00     0.077 A 
ATOM     22  H1  non d ame     -35.136   5.949  28.887  0.00  0.00     0.091 H 
ATOM     23  O1  non d ame     -34.722   7.818  31.501  0.00  0.00    -0.218 OA
ATOM     24  N1  non d ame     -34.709   8.728  30.555  0.00  0.00    -0.123 NA
BRANCH  21  25
ATOM     25  C3  non d ame     -34.952   5.325  31.809  0.00  0.00    -0.029 C 
ATOM     26  H2  non d ame     -35.276   5.538  32.827  0.00  0.00     0.036 H 
ATOM     27  H3  non d ame     -35.661   4.646  31.336  0.00  0.00     0.036 H 
ATOM     28  H4  non d ame     -33.965   4.862  31.830  0.00  0.00     0.036 H 
ENDBRANCH  21  25
ENDBRANCH  16  19
ENDBRANCH  13  15
BRANCH  13  29
ATOM     29  C8  non d ame     -34.494  11.816  26.463  0.00  0.00    -0.049 C 
ATOM     30  H7  non d ame     -33.701  12.563  26.437  0.00  0.00     0.030 H 
ATOM     31  H8  non d ame     -35.190  11.997  25.644  0.00  0.00     0.030 H 
ATOM     32  H9  non d ame     -35.025  11.883  27.413  0.00  0.00     0.030 H 
ENDBRANCH  13  29
ENDBRANCH  10  13
ENDBRANCH   7   9
BRANCH   7  33
ATOM     33  C11 non d ame     -30.744   9.731  22.516  0.00  0.00    -0.033 C 
ATOM     34  H12 non d ame     -30.717  10.396  21.652  0.00  0.00     0.042 H 
BRANCH  33  35
ATOM     35  C12 non d ame     -29.415   8.913  22.521  0.00  0.00    -0.071 C 
ATOM     36  H13 non d ame     -29.320   8.381  23.467  0.00  0.00     0.028 H 
ATOM     37  H14 non d ame     -29.427   8.197  21.700  0.00  0.00     0.028 H 
ATOM     38  H15 non d ame     -28.571   9.592  22.400  0.00  0.00     0.028 H 
ENDBRANCH  33  35
BRANCH  33  39
ATOM     39  C13 non d ame     -31.985   8.794  22.365  0.00  0.00    -0.071 C 
ATOM     40  H16 non d ame     -32.898   9.387  22.423  0.00  0.00     0.028 H 
ATOM     41  H17 non d ame     -31.942   8.286  21.401  0.00  0.00     0.028 H 
ATOM     42  H18 non d ame     -31.981   8.054  23.165  0.00  0.00     0.028 H 
ENDBRANCH  33  39
ENDBRANCH   7  33
ENDBRANCH   4   7
ENDBRANCH   1   3
BRANCH   1  43
ATOM     43  C15 non d ame     -31.927  15.457  24.720  0.00  0.00     0.240 C 
ATOM     44  O5  non d ame     -32.706  16.190  24.201  0.00  0.00    -0.271 OA
ATOM     45  N6  non d ame     -31.839  15.402  26.207  0.00  0.00    -0.355 N 
ATOM     46  H46 non d ame     -31.184  14.781  26.660  0.00  0.00     0.162 HD
BRANCH  45  47
ATOM     47  C20 non d ame     -32.717  16.266  27.026  0.00  0.00     0.013 C 
ATOM     48  H30 non d ame     -33.727  16.197  26.622  0.00  0.00     0.072 H 
BRANCH  47  49
ATOM     49  C21 non d ame     -32.226  17.694  26.948  0.00  0.00    -0.038 C 
ATOM     50  H31 non d ame     -31.138  17.632  26.940  0.00  0.00     0.036 H 
ATOM     51  H32 non d ame     -32.753  18.141  26.105  0.00  0.00     0.036 H 
BRANCH  49  52
ATOM     52  C22 non d ame     -32.606  18.527  28.192  0.00  0.00     0.018 C 
ATOM     53  H33 non d ame     -33.098  17.833  28.873  0.00  0.00     0.048 H 
ATOM     54  H34 non d ame     -31.691  19.035  28.498  0.00  0.00     0.048 H 
BRANCH  52  55
ATOM     55  C23 non d ame     -33.642  19.648  27.902  0.00  0.00     0.259 C 
ATOM     56  O7  non d ame     -33.378  20.536  27.158  0.00  0.00    -0.265 OA
BRANCH  55  57
ATOM     57  O8  non d ame     -34.910  19.609  28.547  0.00  0.00    -0.317 OA
BRANCH  57  58
ATOM     58  C29 non d ame     -36.021  19.603  27.646  0.00  0.00     0.052 C 
ATOM     59  H47 non d ame     -36.907  19.727  28.270  0.00  0.00     0.082 H 
ATOM     60  H48 non d ame     -35.785  20.343  26.881  0.00  0.00     0.082 H 
BRANCH  58  61
ATOM     61  C35 non d ame     -36.085  18.206  26.973  0.00  0.00    -0.034 A 
ATOM     62  C30 non d ame     -35.984  18.093  25.591  0.00  0.00    -0.075 A 
ATOM     63  C31 non d ame     -36.042  16.839  24.986  0.00  0.00    -0.082 A 
ATOM     64  H49 non d ame     -35.860  18.988  24.980  0.00  0.00     0.084 H 
ATOM     65  C32 non d ame     -36.204  15.693  25.770  0.00  0.00    -0.083 A 
ATOM     66  H50 non d ame     -35.961  16.753  23.902  0.00  0.00     0.083 H 
ATOM     67  C33 non d ame     -36.308  15.811  27.150  0.00  0.00    -0.082 A 
ATOM     68  H51 non d ame     -36.250  14.708  25.306  0.00  0.00     0.083 H 
ATOM     69  C34 non d ame     -36.249  17.063  27.758  0.00  0.00    -0.075 A 
ATOM     70  H52 non d ame     -36.437  14.916  27.759  0.00  0.00     0.083 H 
ATOM     71  H53 non d ame     -36.330  17.147  28.842  0.00  0.00     0.084 H 
ENDBRANCH  58  61
ENDBRANCH  57  58
ENDBRANCH  55  57
ENDBRANCH  52  55
ENDBRANCH  49  52
ENDBRANCH  47  49
BRANCH  47  72
ATOM     72  C24 non d ame     -32.694  15.797  28.479  0.00  0.00    -0.039 C 
ATOM     73  H35 non d ame     -32.477  16.689  29.068  0.00  0.00     0.036 H 
ATOM     74  H36 non d ame     -33.632  15.262  28.626  0.00  0.00     0.036 H 
BRANCH  72  75
ATOM     75  C25 non d ame     -31.508  14.754  28.746  0.00  0.00    -0.001 C 
ATOM     76  C26 non d ame     -32.123  13.238  28.912  0.00  0.00    -0.035 C 
ATOM     77  C27 non d ame     -31.640  12.694  30.055  0.00  0.00     0.085 C 
ATOM     78  H38 non d ame     -33.197  13.287  29.087  0.00  0.00     0.036 H 
ATOM     79  H39 non d ame     -31.727  12.586  28.133  0.00  0.00     0.036 H 
ATOM     80  N5  non d ame     -31.014  13.815  30.848  0.00  0.00    -0.049 N 
ATOM     81  H40 non d ame     -32.513  12.322  30.592  0.00  0.00     0.075 H 
ATOM     82  H41 non d ame     -30.859  12.002  29.741  0.00  0.00     0.075 H 
ATOM     83  C28 non d ame     -30.857  15.051  29.821  0.00  0.00     0.193 C 
ATOM     84  H42 non d ame     -31.684  14.072  31.559  0.00  0.00     0.280 HD
ATOM     85  H43 non d ame     -30.093  13.498  31.113  0.00  0.00     0.280 HD
ATOM     86  H44 non d ame     -29.883  15.300  29.400  0.00  0.00     0.129 H 
ATOM     87  H37 non d ame     -30.681  14.880  28.047  0.00  0.00     0.046 H 
BRANCH  83  88
ATOM     88  O6  non d ame     -31.332  16.256  30.423  0.00  0.00    -0.369 OA
ATOM     89  H45 non d ame     -31.504  16.909  29.741  0.00  0.00     0.212 HD
ENDBRANCH  83  88
ENDBRANCH  72  75
ENDBRANCH  47  72
ENDBRANCH  45  47
ENDBRANCH   1  43
BRANCH   1  90
ATOM     90  C16 non d ame     -31.324  14.783  22.374  0.00  0.00    -0.035 C 
ATOM     91  H21 non d ame     -31.206  13.810  21.899  0.00  0.00     0.037 H 
ATOM     92  H22 non d ame     -32.292  15.284  22.359  0.00  0.00     0.037 H 
BRANCH  90  93
ATOM     93  C17 non d ame     -30.319  15.744  21.663  0.00  0.00    -0.059 C 
ATOM     94  H23 non d ame     -30.556  16.761  21.975  0.00  0.00     0.038 H 
BRANCH  93  95
ATOM     95  C18 non d ame     -28.838  15.454  22.069  0.00  0.00    -0.073 C 
ATOM     96  H24 non d ame     -28.642  14.386  21.987  0.00  0.00     0.028 H 
ATOM     97  H25 non d ame     -28.166  15.998  21.405  0.00  0.00     0.028 H 
ATOM     98  H26 non d ame     -28.674  15.777  23.096  0.00  0.00     0.028 H 
ENDBRANCH  93  95
BRANCH  93  99
ATOM     99  C19 non d ame     -30.488  15.684  20.143  0.00  0.00    -0.073 C 
ATOM    100  H27 non d ame     -31.292  14.991  19.893  0.00  0.00     0.028 H 
ATOM    101  H28 non d ame     -30.736  16.677  19.765  0.00  0.00     0.028 H 
ATOM    102  H29 non d ame     -29.559  15.344  19.686  0.00  0.00     0.028 H 
ENDBRANCH  93  99
ENDBRANCH  90  93
ENDBRANCH   1  90
TORSDOF 26
ENDMDL
MODEL 6
REMARK VINA RESULT:      -7.2      1.904      5.836
REMARK  26 active torsions:
REMARK  status: ('A' for Active; 'I' for Inactive)
REMARK    1  A    between atoms: C2_2  and  C3_3 
REMARK    2  A    between atoms: C4_6  and  C5_7 
REMARK       I    between atoms: C5_7  and  N2_9 
REMARK    3  A    between atoms: N2_9  and  C6_10 
REMARK    4  A    between atoms: C6_10  and  C7_11 
REMARK    5  A    between atoms: C6_10  and  C8_13 
REMARK       I    between atoms: C7_11  and  N3_14 
REMARK    6  A    between atoms: N3_14  and  C9_15 
REMARK    7  A    between atoms: C9_15  and  C10_16 
REMARK    8  A    between atoms: C9_15  and  C11_18 
REMARK       I    between atoms: C10_16  and  N4_21 
REMARK    9  A    between atoms: C11_18  and  C12_19 
REMARK   10  A    between atoms: C11_18  and  C13_20 
REMARK   11  A    between atoms: N4_21  and  C14_22 
REMARK   12  A    between atoms: C14_22  and  C15_23 
REMARK   13  A    between atoms: C14_22  and  C16_25 
REMARK       I    between atoms: C15_23  and  N6_40 
REMARK   14  A    between atoms: C16_25  and  C17_26 
REMARK   15  A    between atoms: C17_26  and  C18_27 
REMARK   16  A    between atoms: C17_26  and  C19_28 
REMARK   17  A    between atoms: C20_29  and  C21_30 
REMARK   18  A    between atoms: C20_29  and  C24_33 
REMARK   19  A    between atoms: C20_29  and  N6_40 
REMARK   20  A    between atoms: C21_30  and  C22_31 
REMARK   21  A    between atoms: C22_31  and  C23_32 
REMARK   22  A    between atoms: C23_32  and  O8_43 
REMARK   23  A    between atoms: C24_33  and  C25_34 
REMARK   24  A    between atoms: C28_38  and  O6_39 
REMARK   25  A    between atoms: C29_42  and  O8_43 
REMARK   26  A    between atoms: C29_42  and  C35_49 
ROOT
ATOM      1  C14 non d ame     -30.932  13.930  24.718  0.00  0.00     0.089 C 
ATOM      2  H20 non d ame     -29.962  13.759  25.187  0.00  0.00     0.087 H 
ENDROOT
BRANCH   1   3
ATOM      3  N4  non d ame     -31.395  12.655  24.192  0.00  0.00    -0.346 N 
ATOM      4  C10 non d ame     -31.327  11.411  25.042  0.00  0.00     0.241 C 
ATOM      5  O4  non d ame     -30.893  11.461  26.146  0.00  0.00    -0.271 OA
ATOM      6  H19 non d ame     -31.759  12.633  23.250  0.00  0.00     0.163 HD
BRANCH   4   7
ATOM      7  C9  non d ame     -31.817  10.100  24.484  0.00  0.00     0.092 C 
ATOM      8  H11 non d ame     -31.467   9.287  25.120  0.00  0.00     0.088 H 
BRANCH   7   9
ATOM      9  N3  non d ame     -33.282  10.073  24.513  0.00  0.00    -0.346 N 
ATOM     10  C7  non d ame     -33.969   9.437  25.610  0.00  0.00     0.240 C 
ATOM     11  O3  non d ame     -33.359   8.942  26.478  0.00  0.00    -0.271 OA
ATOM     12  H10 non d ame     -33.822  10.495  23.771  0.00  0.00     0.163 HD
BRANCH  10  13
ATOM     13  C6  non d ame     -35.529   9.409  25.634  0.00  0.00     0.086 C 
ATOM     14  H6  non d ame     -35.929   8.970  26.548  0.00  0.00     0.086 H 
BRANCH  13  15
ATOM     15  N2  non d ame     -36.027  10.773  25.576  0.00  0.00    -0.343 N 
ATOM     16  C5  non d ame     -36.387  11.463  26.816  0.00  0.00     0.273 C 
ATOM     17  O2  non d ame     -36.277  10.911  27.855  0.00  0.00    -0.266 OA
ATOM     18  H5  non d ame     -36.121  11.237  24.683  0.00  0.00     0.163 HD
BRANCH  16  19
ATOM     19  C4  non d ame     -36.913  12.906  26.770  0.00  0.00     0.154 A 
ATOM     20  C1  non d ame     -36.142  14.103  26.625  0.00  0.00    -0.017 A 
ATOM     21  C2  non d ame     -37.090  15.151  26.640  0.00  0.00     0.077 A 
ATOM     22  H1  non d ame     -35.061  14.197  26.524  0.00  0.00     0.091 H 
ATOM     23  O1  non d ame     -38.265  14.608  26.777  0.00  0.00    -0.218 OA
ATOM     24  N1  non d ame     -38.187  13.299  26.855  0.00  0.00    -0.123 NA
BRANCH  21  25
ATOM     25  C3  non d ame     -36.791  16.639  26.518  0.00  0.00    -0.029 C 
ATOM     26  H2  non d ame     -37.057  16.982  25.519  0.00  0.00     0.036 H 
ATOM     27  H3  non d ame     -37.374  17.188  27.257  0.00  0.00     0.036 H 
ATOM     28  H4  non d ame     -35.730  16.812  26.691  0.00  0.00     0.036 H 
ENDBRANCH  21  25
ENDBRANCH  16  19
ENDBRANCH  13  15
BRANCH  13  29
ATOM     29  C8  non d ame     -36.038   8.623  24.453  0.00  0.00    -0.049 C 
ATOM     30  H7  non d ame     -35.418   7.738  24.311  0.00  0.00     0.030 H 
ATOM     31  H8  non d ame     -37.068   8.318  24.636  0.00  0.00     0.030 H 
ATOM     32  H9  non d ame     -35.996   9.243  23.557  0.00  0.00     0.030 H 
ENDBRANCH  13  29
ENDBRANCH  10  13
ENDBRANCH   7   9
BRANCH   7  33
ATOM     33  C11 non d ame     -31.327   9.947  23.014  0.00  0.00    -0.033 C 
ATOM     34  H12 non d ame     -31.581  10.866  22.486  0.00  0.00     0.042 H 
BRANCH  33  35
ATOM     35  C12 non d ame     -29.777   9.780  22.947  0.00  0.00    -0.071 C 
ATOM     36  H13 non d ame     -29.302  10.541  23.566  0.00  0.00     0.028 H 
ATOM     37  H14 non d ame     -29.502   8.791  23.311  0.00  0.00     0.028 H 
ATOM     38  H15 non d ame     -29.444   9.893  21.915  0.00  0.00     0.028 H 
ENDBRANCH  33  35
BRANCH  33  39
ATOM     39  C13 non d ame     -32.056   8.763  22.302  0.00  0.00    -0.071 C 
ATOM     40  H16 non d ame     -31.386   8.312  21.569  0.00  0.00     0.028 H 
ATOM     41  H17 non d ame     -32.342   8.015  23.042  0.00  0.00     0.028 H 
ATOM     42  H18 non d ame     -32.948   9.135  21.800  0.00  0.00     0.028 H 
ENDBRANCH  33  39
ENDBRANCH   7  33
ENDBRANCH   4   7
ENDBRANCH   1   3
BRANCH   1  43
ATOM     43  C15 non d ame     -31.987  14.462  25.729  0.00  0.00     0.240 C 
ATOM     44  O5  non d ame     -33.039  14.851  25.335  0.00  0.00    -0.271 OA
ATOM     45  N6  non d ame     -31.690  14.480  27.190  0.00  0.00    -0.355 N 
ATOM     46  H46 non d ame     -30.802  14.148  27.536  0.00  0.00     0.162 HD
BRANCH  45  47
ATOM     47  C20 non d ame     -32.705  14.988  28.138  0.00  0.00     0.013 C 
ATOM     48  H30 non d ame     -33.686  14.856  27.681  0.00  0.00     0.072 H 
BRANCH  47  49
ATOM     49  C21 non d ame     -32.452  16.454  28.403  0.00  0.00    -0.038 C 
ATOM     50  H31 non d ame     -32.582  16.586  29.477  0.00  0.00     0.036 H 
ATOM     51  H32 non d ame     -31.490  16.675  27.938  0.00  0.00     0.036 H 
BRANCH  49  52
ATOM     52  C22 non d ame     -33.488  17.375  27.721  0.00  0.00     0.018 C 
ATOM     53  H33 non d ame     -34.173  16.710  27.197  0.00  0.00     0.048 H 
ATOM     54  H34 non d ame     -33.861  18.032  28.507  0.00  0.00     0.048 H 
BRANCH  52  55
ATOM     55  C23 non d ame     -32.880  18.306  26.636  0.00  0.00     0.259 C 
ATOM     56  O7  non d ame     -31.990  17.928  25.946  0.00  0.00    -0.265 OA
BRANCH  55  57
ATOM     57  O8  non d ame     -33.392  19.625  26.484  0.00  0.00    -0.317 OA
BRANCH  57  58
ATOM     58  C29 non d ame     -34.463  19.940  27.377  0.00  0.00     0.052 C 
ATOM     59  H47 non d ame     -34.644  19.033  27.954  0.00  0.00     0.082 H 
ATOM     60  H48 non d ame     -34.164  20.857  27.884  0.00  0.00     0.082 H 
BRANCH  58  61
ATOM     61  C35 non d ame     -35.725  20.239  26.525  0.00  0.00    -0.034 A 
ATOM     62  C30 non d ame     -36.793  20.935  27.082  0.00  0.00    -0.075 A 
ATOM     63  C31 non d ame     -37.927  21.204  26.317  0.00  0.00    -0.082 A 
ATOM     64  H49 non d ame     -36.742  21.270  28.118  0.00  0.00     0.084 H 
ATOM     65  C32 non d ame     -37.992  20.772  24.989  0.00  0.00    -0.083 A 
ATOM     66  H50 non d ame     -38.762  21.751  26.756  0.00  0.00     0.083 H 
ATOM     67  C33 non d ame     -36.925  20.074  24.439  0.00  0.00    -0.082 A 
ATOM     68  H51 non d ame     -38.874  20.978  24.384  0.00  0.00     0.083 H 
ATOM     69  C34 non d ame     -35.789  19.806  25.199  0.00  0.00    -0.075 A 
ATOM     70  H52 non d ame     -36.979  19.736  23.404  0.00  0.00     0.083 H 
ATOM     71  H53 non d ame     -34.954  19.258  24.760  0.00  0.00     0.084 H 
ENDBRANCH  58  61
ENDBRANCH  57  58
ENDBRANCH  55  57
ENDBRANCH  52  55
ENDBRANCH  49  52
ENDBRANCH  47  49
BRANCH  47  72
ATOM     72  C24 non d ame     -32.621  14.210  29.450  0.00  0.00    -0.039 C 
ATOM     73  H35 non d ame     -31.964  14.796  30.093  0.00  0.00     0.036 H 
ATOM     74  H36 non d ame     -33.655  14.030  29.747  0.00  0.00     0.036 H 
BRANCH  72  75
ATOM     75  C25 non d ame     -31.931  12.779  29.247  0.00  0.00    -0.001 C 
ATOM     76  C26 non d ame     -33.077  11.600  29.245  0.00  0.00    -0.035 C 
ATOM     77  C27 non d ame     -32.716  10.639  30.130  0.00  0.00     0.085 C 
ATOM     78  H38 non d ame     -34.010  11.985  29.655  0.00  0.00     0.036 H 
ATOM     79  H39 non d ame     -33.076  11.078  28.288  0.00  0.00     0.036 H 
ATOM     80  N5  non d ame     -31.600  11.210  30.970  0.00  0.00    -0.049 N 
ATOM     81  H40 non d ame     -33.591  10.480  30.760  0.00  0.00     0.075 H 
ATOM     82  H41 non d ame     -32.323   9.821  29.526  0.00  0.00     0.075 H 
ATOM     83  C28 non d ame     -31.088  12.529  30.193  0.00  0.00     0.193 C 
ATOM     84  H42 non d ame     -32.017  11.494  31.845  0.00  0.00     0.280 HD
ATOM     85  H43 non d ame     -30.858  10.524  30.964  0.00  0.00     0.280 HD
ATOM     86  H44 non d ame     -30.156  12.511  29.628  0.00  0.00     0.129 H 
ATOM     87  H37 non d ame     -31.217  12.778  28.424  0.00  0.00     0.046 H 
BRANCH  83  88
ATOM     88  O6  non d ame     -30.961  13.621  31.105  0.00  0.00    -0.369 OA
ATOM     89  H45 non d ame     -31.518  13.464  31.872  0.00  0.00     0.212 HD
ENDBRANCH  83  88
ENDBRANCH  72  75
ENDBRANCH  47  72
ENDBRANCH  45  47
ENDBRANCH   1  43
BRANCH   1  90
ATOM     90  C16 non d ame     -30.781  14.915  23.570  0.00  0.00    -0.035 C 
ATOM     91  H21 non d ame     -31.769  14.980  23.115  0.00  0.00     0.037 H 
ATOM     92  H22 non d ame     -30.323  15.802  24.008  0.00  0.00     0.037 H 
BRANCH  90  93
ATOM     93  C17 non d ame     -29.811  14.426  22.448  0.00  0.00    -0.059 C 
ATOM     94  H23 non d ame     -29.770  13.338  22.497  0.00  0.00     0.038 H 
BRANCH  93  95
ATOM     95  C18 non d ame     -30.314  14.819  21.021  0.00  0.00    -0.073 C 
ATOM     96  H24 non d ame     -29.760  14.254  20.272  0.00  0.00     0.028 H 
ATOM     97  H25 non d ame     -31.376  14.592  20.935  0.00  0.00     0.028 H 
ATOM     98  H26 non d ame     -30.156  15.885  20.862  0.00  0.00     0.028 H 
ENDBRANCH  93  95
BRANCH  93  99
ATOM     99  C19 non d ame     -28.391  14.945  22.687  0.00  0.00    -0.073 C 
ATOM    100  H27 non d ame     -28.291  15.263  23.726  0.00  0.00     0.028 H 
ATOM    101  H28 non d ame     -27.673  14.152  22.479  0.00  0.00     0.028 H 
ATOM    102  H29 non d ame     -28.198  15.791  22.028  0.00  0.00     0.028 H 
ENDBRANCH  93  99
ENDBRANCH  90  93
ENDBRANCH   1  90
TORSDOF 26
ENDMDL
MODEL 7
REMARK VINA RESULT:      -7.2      2.931      7.193
REMARK  26 active torsions:
REMARK  status: ('A' for Active; 'I' for Inactive)
REMARK    1  A    between atoms: C2_2  and  C3_3 
REMARK    2  A    between atoms: C4_6  and  C5_7 
REMARK       I    between atoms: C5_7  and  N2_9 
REMARK    3  A    between atoms: N2_9  and  C6_10 
REMARK    4  A    between atoms: C6_10  and  C7_11 
REMARK    5  A    between atoms: C6_10  and  C8_13 
REMARK       I    between atoms: C7_11  and  N3_14 
REMARK    6  A    between atoms: N3_14  and  C9_15 
REMARK    7  A    between atoms: C9_15  and  C10_16 
REMARK    8  A    between atoms: C9_15  and  C11_18 
REMARK       I    between atoms: C10_16  and  N4_21 
REMARK    9  A    between atoms: C11_18  and  C12_19 
REMARK   10  A    between atoms: C11_18  and  C13_20 
REMARK   11  A    between atoms: N4_21  and  C14_22 
REMARK   12  A    between atoms: C14_22  and  C15_23 
REMARK   13  A    between atoms: C14_22  and  C16_25 
REMARK       I    between atoms: C15_23  and  N6_40 
REMARK   14  A    between atoms: C16_25  and  C17_26 
REMARK   15  A    between atoms: C17_26  and  C18_27 
REMARK   16  A    between atoms: C17_26  and  C19_28 
REMARK   17  A    between atoms: C20_29  and  C21_30 
REMARK   18  A    between atoms: C20_29  and  C24_33 
REMARK   19  A    between atoms: C20_29  and  N6_40 
REMARK   20  A    between atoms: C21_30  and  C22_31 
REMARK   21  A    between atoms: C22_31  and  C23_32 
REMARK   22  A    between atoms: C23_32  and  O8_43 
REMARK   23  A    between atoms: C24_33  and  C25_34 
REMARK   24  A    between atoms: C28_38  and  O6_39 
REMARK   25  A    between atoms: C29_42  and  O8_43 
REMARK   26  A    between atoms: C29_42  and  C35_49 
ROOT
ATOM      1  C14 non d ame     -31.254  14.138  24.350  0.00  0.00     0.089 C 
ATOM      2  H20 non d ame     -30.241  14.067  24.748  0.00  0.00     0.087 H 
ENDROOT
BRANCH   1   3
ATOM      3  N4  non d ame     -31.791  12.788  24.272  0.00  0.00    -0.346 N 
ATOM      4  C10 non d ame     -31.594  11.823  25.415  0.00  0.00     0.241 C 
ATOM      5  O4  non d ame     -30.998  12.156  26.385  0.00  0.00    -0.271 OA
ATOM      6  H19 non d ame     -32.293  12.524  23.437  0.00  0.00     0.163 HD
BRANCH   4   7
ATOM      7  C9  non d ame     -32.162  10.431  25.320  0.00  0.00     0.092 C 
ATOM      8  H11 non d ame     -33.055  10.450  24.695  0.00  0.00     0.088 H 
BRANCH   7   9
ATOM      9  N3  non d ame     -31.191   9.552  24.662  0.00  0.00    -0.346 N 
ATOM     10  C7  non d ame     -31.416   9.119  23.304  0.00  0.00     0.240 C 
ATOM     11  O3  non d ame     -32.373   9.468  22.728  0.00  0.00    -0.271 OA
ATOM     12  H10 non d ame     -30.362   9.241  25.147  0.00  0.00     0.163 HD
BRANCH  10  13
ATOM     13  C6  non d ame     -30.382   8.180  22.610  0.00  0.00     0.086 C 
ATOM     14  H6  non d ame     -30.030   7.383  23.265  0.00  0.00     0.086 H 
BRANCH  13  15
ATOM     15  N2  non d ame     -31.018   7.535  21.474  0.00  0.00    -0.343 N 
ATOM     16  C5  non d ame     -31.681   6.242  21.657  0.00  0.00     0.273 C 
ATOM     17  O2  non d ame     -31.694   5.728  22.721  0.00  0.00    -0.266 OA
ATOM     18  H5  non d ame     -31.000   7.980  20.567  0.00  0.00     0.163 HD
BRANCH  16  19
ATOM     19  C4  non d ame     -32.360   5.549  20.465  0.00  0.00     0.154 A 
ATOM     20  C1  non d ame     -32.415   4.144  20.198  0.00  0.00    -0.017 A 
ATOM     21  C2  non d ame     -33.146   4.031  18.995  0.00  0.00     0.077 A 
ATOM     22  H1  non d ame     -31.990   3.331  20.787  0.00  0.00     0.091 H 
ATOM     23  O1  non d ame     -33.470   5.235  18.623  0.00  0.00    -0.218 OA
ATOM     24  N1  non d ame     -33.022   6.138  19.465  0.00  0.00    -0.123 NA
BRANCH  21  25
ATOM     25  C3  non d ame     -33.493   2.738  18.268  0.00  0.00    -0.029 C 
ATOM     26  H2  non d ame     -33.647   2.946  17.210  0.00  0.00     0.036 H 
ATOM     27  H3  non d ame     -32.675   2.027  18.383  0.00  0.00     0.036 H 
ATOM     28  H4  non d ame     -34.403   2.316  18.692  0.00  0.00     0.036 H 
ENDBRANCH  21  25
ENDBRANCH  16  19
ENDBRANCH  13  15
BRANCH  13  29
ATOM     29  C8  non d ame     -29.196   8.988  22.147  0.00  0.00    -0.049 C 
ATOM     30  H7  non d ame     -29.273  10.003  22.539  0.00  0.00     0.030 H 
ATOM     31  H8  non d ame     -28.278   8.527  22.510  0.00  0.00     0.030 H 
ATOM     32  H9  non d ame     -29.181   9.021  21.057  0.00  0.00     0.030 H 
ENDBRANCH  13  29
ENDBRANCH  10  13
ENDBRANCH   7   9
BRANCH   7  33
ATOM     33  C11 non d ame     -32.459   9.894  26.750  0.00  0.00    -0.033 C 
ATOM     34  H12 non d ame     -31.689  10.286  27.415  0.00  0.00     0.042 H 
BRANCH  33  35
ATOM     35  C12 non d ame     -33.836  10.405  27.275  0.00  0.00    -0.071 C 
ATOM     36  H13 non d ame     -34.541   9.574  27.316  0.00  0.00     0.028 H 
ATOM     37  H14 non d ame     -33.712  10.825  28.273  0.00  0.00     0.028 H 
ATOM     38  H15 non d ame     -34.219  11.172  26.603  0.00  0.00     0.028 H 
ENDBRANCH  33  35
BRANCH  33  39
ATOM     39  C13 non d ame     -32.381   8.334  26.789  0.00  0.00    -0.071 C 
ATOM     40  H16 non d ame     -31.605   8.026  27.489  0.00  0.00     0.028 H 
ATOM     41  H17 non d ame     -33.342   7.930  27.110  0.00  0.00     0.028 H 
ATOM     42  H18 non d ame     -32.144   7.957  25.794  0.00  0.00     0.028 H 
ENDBRANCH  33  39
ENDBRANCH   7  33
ENDBRANCH   4   7
ENDBRANCH   1   3
BRANCH   1  43
ATOM     43  C15 non d ame     -32.184  14.990  25.261  0.00  0.00     0.240 C 
ATOM     44  O5  non d ame     -33.231  15.370  24.845  0.00  0.00    -0.271 OA
ATOM     45  N6  non d ame     -31.774  15.324  26.654  0.00  0.00    -0.355 N 
ATOM     46  H46 non d ame     -30.890  15.002  27.020  0.00  0.00     0.162 HD
BRANCH  45  47
ATOM     47  C20 non d ame     -32.671  16.133  27.508  0.00  0.00     0.013 C 
ATOM     48  H30 non d ame     -33.655  16.150  27.040  0.00  0.00     0.072 H 
BRANCH  47  49
ATOM     49  C21 non d ame     -32.124  17.539  27.615  0.00  0.00    -0.038 C 
ATOM     50  H31 non d ame     -32.413  17.893  28.605  0.00  0.00     0.036 H 
ATOM     51  H32 non d ame     -31.070  17.466  27.347  0.00  0.00     0.036 H 
BRANCH  49  52
ATOM     52  C22 non d ame     -32.767  18.510  26.600  0.00  0.00     0.018 C 
ATOM     53  H33 non d ame     -31.937  18.958  26.055  0.00  0.00     0.048 H 
ATOM     54  H34 non d ame     -33.517  17.926  26.067  0.00  0.00     0.048 H 
BRANCH  52  55
ATOM     55  C23 non d ame     -33.532  19.690  27.260  0.00  0.00     0.259 C 
ATOM     56  O7  non d ame     -33.362  20.804  26.885  0.00  0.00    -0.265 OA
BRANCH  55  57
ATOM     57  O8  non d ame     -34.432  19.425  28.330  0.00  0.00    -0.317 OA
BRANCH  57  58
ATOM     58  C29 non d ame     -35.812  19.484  27.959  0.00  0.00     0.052 C 
ATOM     59  H47 non d ame     -36.371  19.424  28.892  0.00  0.00     0.082 H 
ATOM     60  H48 non d ame     -35.908  20.363  27.322  0.00  0.00     0.082 H 
BRANCH  58  61
ATOM     61  C35 non d ame     -36.134  18.226  27.110  0.00  0.00    -0.034 A 
ATOM     62  C30 non d ame     -36.449  18.357  25.761  0.00  0.00    -0.075 A 
ATOM     63  C31 non d ame     -36.739  17.226  24.999  0.00  0.00    -0.082 A 
ATOM     64  H49 non d ame     -36.470  19.345  25.302  0.00  0.00     0.084 H 
ATOM     65  C32 non d ame     -36.715  15.961  25.591  0.00  0.00    -0.083 A 
ATOM     66  H50 non d ame     -36.984  17.332  23.942  0.00  0.00     0.083 H 
ATOM     67  C33 non d ame     -36.403  15.835  26.937  0.00  0.00    -0.082 A 
ATOM     68  H51 non d ame     -36.940  15.071  25.001  0.00  0.00     0.083 H 
ATOM     69  C34 non d ame     -36.111  16.962  27.703  0.00  0.00    -0.075 A 
ATOM     70  H52 non d ame     -36.388  14.846  27.397  0.00  0.00     0.083 H 
ATOM     71  H53 non d ame     -35.866  16.855  28.760  0.00  0.00     0.084 H 
ENDBRANCH  58  61
ENDBRANCH  57  58
ENDBRANCH  55  57
ENDBRANCH  52  55
ENDBRANCH  49  52
ENDBRANCH  47  49
BRANCH  47  72
ATOM     72  C24 non d ame     -32.756  15.512  28.901  0.00  0.00    -0.039 C 
ATOM     73  H35 non d ame     -32.467  16.306  29.590  0.00  0.00     0.036 H 
ATOM     74  H36 non d ame     -33.753  15.074  28.962  0.00  0.00     0.036 H 
BRANCH  72  75
ATOM     75  C25 non d ame     -31.703  14.319  29.084  0.00  0.00    -0.001 C 
ATOM     76  C26 non d ame     -32.483  12.951  29.557  0.00  0.00    -0.035 C 
ATOM     77  C27 non d ame     -31.866  12.454  30.655  0.00  0.00     0.085 C 
ATOM     78  H38 non d ame     -33.483  13.196  29.916  0.00  0.00     0.036 H 
ATOM     79  H39 non d ame     -32.348  12.167  28.812  0.00  0.00     0.036 H 
ATOM     80  N5  non d ame     -30.940  13.531  31.167  0.00  0.00    -0.049 N 
ATOM     81  H40 non d ame     -32.658  12.289  31.385  0.00  0.00     0.075 H 
ATOM     82  H41 non d ame     -31.270  11.614  30.299  0.00  0.00     0.075 H 
ATOM     83  C28 non d ame     -30.815  14.612  29.975  0.00  0.00     0.193 C 
ATOM     84  H42 non d ame     -31.411  13.966  31.948  0.00  0.00     0.280 HD
ATOM     85  H43 non d ame     -30.040  13.094  31.301  0.00  0.00     0.280 HD
ATOM     86  H44 non d ame     -29.919  14.653  29.355  0.00  0.00     0.129 H 
ATOM     87  H37 non d ame     -31.023  14.235  28.236  0.00  0.00     0.046 H 
BRANCH  83  88
ATOM     88  O6  non d ame     -30.984  15.935  30.489  0.00  0.00    -0.369 OA
ATOM     89  H45 non d ame     -30.155  16.239  30.867  0.00  0.00     0.212 HD
ENDBRANCH  83  88
ENDBRANCH  72  75
ENDBRANCH  47  72
ENDBRANCH  45  47
ENDBRANCH   1  43
BRANCH   1  90
ATOM     90  C16 non d ame     -31.217  14.739  22.954  0.00  0.00    -0.035 C 
ATOM     91  H21 non d ame     -31.776  14.045  22.327  0.00  0.00     0.037 H 
ATOM     92  H22 non d ame     -31.561  15.766  23.072  0.00  0.00     0.037 H 
BRANCH  90  93
ATOM     93  C17 non d ame     -29.781  14.822  22.345  0.00  0.00    -0.059 C 
ATOM     94  H23 non d ame     -29.119  15.225  23.112  0.00  0.00     0.038 H 
BRANCH  93  95
ATOM     95  C18 non d ame     -29.233  13.418  21.934  0.00  0.00    -0.073 C 
ATOM     96  H24 non d ame     -29.025  12.832  22.828  0.00  0.00     0.028 H 
ATOM     97  H25 non d ame     -29.976  12.901  21.327  0.00  0.00     0.028 H 
ATOM     98  H26 non d ame     -28.316  13.540  21.358  0.00  0.00     0.028 H 
ENDBRANCH  93  95
BRANCH  93  99
ATOM     99  C19 non d ame     -29.744  15.790  21.160  0.00  0.00    -0.073 C 
ATOM    100  H27 non d ame     -29.205  15.330  20.331  0.00  0.00     0.028 H 
ATOM    101  H28 non d ame     -30.763  16.020  20.847  0.00  0.00     0.028 H 
ATOM    102  H29 non d ame     -29.240  16.709  21.457  0.00  0.00     0.028 H 
ENDBRANCH  93  99
ENDBRANCH  90  93
ENDBRANCH   1  90
TORSDOF 26
ENDMDL
MODEL 8
REMARK VINA RESULT:      -7.1      3.437      7.361
REMARK  26 active torsions:
REMARK  status: ('A' for Active; 'I' for Inactive)
REMARK    1  A    between atoms: C2_2  and  C3_3 
REMARK    2  A    between atoms: C4_6  and  C5_7 
REMARK       I    between atoms: C5_7  and  N2_9 
REMARK    3  A    between atoms: N2_9  and  C6_10 
REMARK    4  A    between atoms: C6_10  and  C7_11 
REMARK    5  A    between atoms: C6_10  and  C8_13 
REMARK       I    between atoms: C7_11  and  N3_14 
REMARK    6  A    between atoms: N3_14  and  C9_15 
REMARK    7  A    between atoms: C9_15  and  C10_16 
REMARK    8  A    between atoms: C9_15  and  C11_18 
REMARK       I    between atoms: C10_16  and  N4_21 
REMARK    9  A    between atoms: C11_18  and  C12_19 
REMARK   10  A    between atoms: C11_18  and  C13_20 
REMARK   11  A    between atoms: N4_21  and  C14_22 
REMARK   12  A    between atoms: C14_22  and  C15_23 
REMARK   13  A    between atoms: C14_22  and  C16_25 
REMARK       I    between atoms: C15_23  and  N6_40 
REMARK   14  A    between atoms: C16_25  and  C17_26 
REMARK   15  A    between atoms: C17_26  and  C18_27 
REMARK   16  A    between atoms: C17_26  and  C19_28 
REMARK   17  A    between atoms: C20_29  and  C21_30 
REMARK   18  A    between atoms: C20_29  and  C24_33 
REMARK   19  A    between atoms: C20_29  and  N6_40 
REMARK   20  A    between atoms: C21_30  and  C22_31 
REMARK   21  A    between atoms: C22_31  and  C23_32 
REMARK   22  A    between atoms: C23_32  and  O8_43 
REMARK   23  A    between atoms: C24_33  and  C25_34 
REMARK   24  A    between atoms: C28_38  and  O6_39 
REMARK   25  A    between atoms: C29_42  and  O8_43 
REMARK   26  A    between atoms: C29_42  and  C35_49 
ROOT
ATOM      1  C14 non d ame     -32.946  10.207  25.349  0.00  0.00     0.089 C 
ATOM      2  H20 non d ame     -33.624  10.281  24.498  0.00  0.00     0.087 H 
ENDROOT
BRANCH   1   3
ATOM      3  N4  non d ame     -32.394   8.861  25.354  0.00  0.00    -0.346 N 
ATOM      4  C10 non d ame     -33.176   7.714  24.765  0.00  0.00     0.241 C 
ATOM      5  O4  non d ame     -34.251   7.900  24.296  0.00  0.00    -0.271 OA
ATOM      6  H19 non d ame     -31.479   8.724  25.761  0.00  0.00     0.163 HD
BRANCH   4   7
ATOM      7  C9  non d ame     -32.587   6.328  24.774  0.00  0.00     0.092 C 
ATOM      8  H11 non d ame     -31.516   6.396  24.963  0.00  0.00     0.088 H 
BRANCH   7   9
ATOM      9  N3  non d ame     -33.173   5.554  25.872  0.00  0.00    -0.346 N 
ATOM     10  C7  non d ame     -32.690   5.734  27.218  0.00  0.00     0.240 C 
ATOM     11  O3  non d ame     -31.828   6.496  27.436  0.00  0.00    -0.271 OA
ATOM     12  H10 non d ame     -33.916   4.892  25.699  0.00  0.00     0.163 HD
BRANCH  10  13
ATOM     13  C6  non d ame     -33.316   4.904  28.383  0.00  0.00     0.086 C 
ATOM     14  H6  non d ame     -32.670   4.854  29.259  0.00  0.00     0.086 H 
BRANCH  13  15
ATOM     15  N2  non d ame     -34.547   5.547  28.810  0.00  0.00    -0.343 N 
ATOM     16  C5  non d ame     -34.917   5.527  30.227  0.00  0.00     0.273 C 
ATOM     17  O2  non d ame     -34.218   4.989  31.014  0.00  0.00    -0.266 OA
ATOM     18  H5  non d ame     -35.139   6.003  28.130  0.00  0.00     0.163 HD
BRANCH  16  19
ATOM     19  C4  non d ame     -36.215   6.204  30.694  0.00  0.00     0.154 A 
ATOM     20  C1  non d ame     -36.499   7.607  30.715  0.00  0.00    -0.017 A 
ATOM     21  C2  non d ame     -37.813   7.703  31.225  0.00  0.00     0.077 A 
ATOM     22  H1  non d ame     -35.852   8.428  30.408  0.00  0.00     0.091 H 
ATOM     23  O1  non d ame     -38.226   6.493  31.463  0.00  0.00    -0.218 OA
ATOM     24  N1  non d ame     -37.311   5.601  31.162  0.00  0.00    -0.123 NA
BRANCH  21  25
ATOM     25  C3  non d ame     -38.600   8.987  31.452  0.00  0.00    -0.029 C 
ATOM     26  H2  non d ame     -38.237   9.761  30.776  0.00  0.00     0.036 H 
ATOM     27  H3  non d ame     -39.657   8.804  31.259  0.00  0.00     0.036 H 
ATOM     28  H4  non d ame     -38.471   9.316  32.483  0.00  0.00     0.036 H 
ENDBRANCH  21  25
ENDBRANCH  16  19
ENDBRANCH  13  15
BRANCH  13  29
ATOM     29  C8  non d ame     -33.603   3.503  27.907  0.00  0.00    -0.049 C 
ATOM     30  H7  non d ame     -33.184   3.365  26.910  0.00  0.00     0.030 H 
ATOM     31  H8  non d ame     -33.152   2.787  28.593  0.00  0.00     0.030 H 
ATOM     32  H9  non d ame     -34.681   3.344  27.873  0.00  0.00     0.030 H 
ENDBRANCH  13  29
ENDBRANCH  10  13
ENDBRANCH   7   9
BRANCH   7  33
ATOM     33  C11 non d ame     -32.899   5.624  23.421  0.00  0.00    -0.033 C 
ATOM     34  H12 non d ame     -33.803   6.079  23.014  0.00  0.00     0.042 H 
BRANCH  33  35
ATOM     35  C12 non d ame     -31.754   5.848  22.385  0.00  0.00    -0.071 C 
ATOM     36  H13 non d ame     -31.720   6.901  22.103  0.00  0.00     0.028 H 
ATOM     37  H14 non d ame     -30.801   5.561  22.829  0.00  0.00     0.028 H 
ATOM     38  H15 non d ame     -31.941   5.241  21.499  0.00  0.00     0.028 H 
ENDBRANCH  33  35
BRANCH  33  39
ATOM     39  C13 non d ame     -33.179   4.102  23.635  0.00  0.00    -0.071 C 
ATOM     40  H16 non d ame     -32.321   3.639  24.122  0.00  0.00     0.028 H 
ATOM     41  H17 non d ame     -34.063   3.979  24.262  0.00  0.00     0.028 H 
ATOM     42  H18 non d ame     -33.351   3.625  22.670  0.00  0.00     0.028 H 
ENDBRANCH  33  39
ENDBRANCH   7  33
ENDBRANCH   4   7
ENDBRANCH   1   3
BRANCH   1  43
ATOM     43  C15 non d ame     -31.773  11.224  25.256  0.00  0.00     0.240 C 
ATOM     44  O5  non d ame     -30.683  10.903  25.607  0.00  0.00    -0.271 OA
ATOM     45  N6  non d ame     -32.005  12.596  24.721  0.00  0.00    -0.355 N 
ATOM     46  H46 non d ame     -32.925  12.878  24.415  0.00  0.00     0.162 HD
BRANCH  45  47
ATOM     47  C20 non d ame     -30.879  13.550  24.637  0.00  0.00     0.013 C 
ATOM     48  H30 non d ame     -30.050  13.143  25.216  0.00  0.00     0.072 H 
BRANCH  47  49
ATOM     49  C21 non d ame     -31.307  14.881  25.213  0.00  0.00    -0.038 C 
ATOM     50  H31 non d ame     -30.506  15.579  24.970  0.00  0.00     0.036 H 
ATOM     51  H32 non d ame     -32.315  15.054  24.834  0.00  0.00     0.036 H 
BRANCH  49  52
ATOM     52  C22 non d ame     -31.417  14.860  26.753  0.00  0.00     0.018 C 
ATOM     53  H33 non d ame     -30.928  13.941  27.071  0.00  0.00     0.048 H 
ATOM     54  H34 non d ame     -31.036  15.825  27.089  0.00  0.00     0.048 H 
BRANCH  52  55
ATOM     55  C23 non d ame     -32.878  14.771  27.275  0.00  0.00     0.259 C 
ATOM     56  O7  non d ame     -33.654  14.024  26.772  0.00  0.00    -0.265 OA
BRANCH  55  57
ATOM     57  O8  non d ame     -33.283  15.602  28.356  0.00  0.00    -0.317 OA
BRANCH  57  58
ATOM     58  C29 non d ame     -34.471  16.355  28.098  0.00  0.00     0.052 C 
ATOM     59  H47 non d ame     -34.959  15.858  27.259  0.00  0.00     0.082 H 
ATOM     60  H48 non d ame     -34.984  16.434  29.056  0.00  0.00     0.082 H 
BRANCH  58  61
ATOM     61  C35 non d ame     -34.048  17.778  27.648  0.00  0.00    -0.034 A 
ATOM     62  C30 non d ame     -32.795  18.274  27.993  0.00  0.00    -0.075 A 
ATOM     63  C31 non d ame     -32.414  19.553  27.590  0.00  0.00    -0.082 A 
ATOM     64  H49 non d ame     -32.111  17.661  28.580  0.00  0.00     0.084 H 
ATOM     65  C32 non d ame     -33.294  20.339  26.840  0.00  0.00    -0.083 A 
ATOM     66  H50 non d ame     -31.431  19.938  27.860  0.00  0.00     0.083 H 
ATOM     67  C33 non d ame     -34.545  19.841  26.501  0.00  0.00    -0.082 A 
ATOM     68  H51 non d ame     -33.004  21.339  26.520  0.00  0.00     0.083 H 
ATOM     69  C34 non d ame     -34.928  18.563  26.900  0.00  0.00    -0.075 A 
ATOM     70  H52 non d ame     -35.230  20.458  25.918  0.00  0.00     0.083 H 
ATOM     71  H53 non d ame     -35.912  18.179  26.629  0.00  0.00     0.084 H 
ENDBRANCH  58  61
ENDBRANCH  57  58
ENDBRANCH  55  57
ENDBRANCH  52  55
ENDBRANCH  49  52
ENDBRANCH  47  49
BRANCH  47  72
ATOM     72  C24 non d ame     -30.465  13.735  23.178  0.00  0.00    -0.039 C 
ATOM     73  H35 non d ame     -29.513  13.214  23.078  0.00  0.00     0.036 H 
ATOM     74  H36 non d ame     -31.326  13.415  22.590  0.00  0.00     0.036 H 
BRANCH  72  75
ATOM     75  C25 non d ame     -30.200  15.275  22.828  0.00  0.00    -0.001 C 
ATOM     76  C26 non d ame     -31.287  15.790  21.707  0.00  0.00    -0.035 C 
ATOM     77  C27 non d ame     -30.617  16.382  20.689  0.00  0.00     0.085 C 
ATOM     78  H38 non d ame     -31.768  14.935  21.233  0.00  0.00     0.036 H 
ATOM     79  H39 non d ame     -31.893  16.599  22.117  0.00  0.00     0.036 H 
ATOM     80  N5  non d ame     -29.159  16.027  20.855  0.00  0.00    -0.049 N 
ATOM     81  H40 non d ame     -30.996  15.913  19.780  0.00  0.00     0.075 H 
ATOM     82  H41 non d ame     -30.742  17.453  20.842  0.00  0.00     0.075 H 
ATOM     83  C28 non d ame     -29.011  15.449  22.355  0.00  0.00     0.193 C 
ATOM     84  H42 non d ame     -28.970  15.280  20.202  0.00  0.00     0.280 HD
ATOM     85  H43 non d ame     -28.646  16.895  20.792  0.00  0.00     0.280 HD
ATOM     86  H44 non d ame     -28.571  16.060  23.143  0.00  0.00     0.129 H 
ATOM     87  H37 non d ame     -30.082  15.888  23.722  0.00  0.00     0.046 H 
BRANCH  83  88
ATOM     88  O6  non d ame     -28.253  14.238  22.343  0.00  0.00    -0.369 OA
ATOM     89  H45 non d ame     -27.991  14.016  23.240  0.00  0.00     0.212 HD
ENDBRANCH  83  88
ENDBRANCH  72  75
ENDBRANCH  47  72
ENDBRANCH  45  47
ENDBRANCH   1  43
BRANCH   1  90
ATOM     90  C16 non d ame     -33.716  10.432  26.641  0.00  0.00    -0.035 C 
ATOM     91  H21 non d ame     -33.869  11.509  26.702  0.00  0.00     0.037 H 
ATOM     92  H22 non d ame     -34.574   9.762  26.587  0.00  0.00     0.037 H 
BRANCH  90  93
ATOM     93  C17 non d ame     -32.920  10.028  27.923  0.00  0.00    -0.059 C 
ATOM     94  H23 non d ame     -32.020   9.504  27.602  0.00  0.00     0.038 H 
BRANCH  93  95
ATOM     95  C18 non d ame     -32.475  11.272  28.757  0.00  0.00    -0.073 C 
ATOM     96  H24 non d ame     -31.451  11.538  28.496  0.00  0.00     0.028 H 
ATOM     97  H25 non d ame     -33.135  12.112  28.538  0.00  0.00     0.028 H 
ATOM     98  H26 non d ame     -32.530  11.035  29.819  0.00  0.00     0.028 H 
ENDBRANCH  93  95
BRANCH  93  99
ATOM     99  C19 non d ame     -33.730   9.056  28.785  0.00  0.00    -0.073 C 
ATOM    100  H27 non d ame     -33.586   9.298  29.838  0.00  0.00     0.028 H 
ATOM    101  H28 non d ame     -34.787   9.140  28.534  0.00  0.00     0.028 H 
ATOM    102  H29 non d ame     -33.393   8.037  28.597  0.00  0.00     0.028 H 
ENDBRANCH  93  99
ENDBRANCH  90  93
ENDBRANCH   1  90
TORSDOF 26
ENDMDL
MODEL 9
REMARK VINA RESULT:      -7.1      2.482      6.922
REMARK  26 active torsions:
REMARK  status: ('A' for Active; 'I' for Inactive)
REMARK    1  A    between atoms: C2_2  and  C3_3 
REMARK    2  A    between atoms: C4_6  and  C5_7 
REMARK       I    between atoms: C5_7  and  N2_9 
REMARK    3  A    between atoms: N2_9  and  C6_10 
REMARK    4  A    between atoms: C6_10  and  C7_11 
REMARK    5  A    between atoms: C6_10  and  C8_13 
REMARK       I    between atoms: C7_11  and  N3_14 
REMARK    6  A    between atoms: N3_14  and  C9_15 
REMARK    7  A    between atoms: C9_15  and  C10_16 
REMARK    8  A    between atoms: C9_15  and  C11_18 
REMARK       I    between atoms: C10_16  and  N4_21 
REMARK    9  A    between atoms: C11_18  and  C12_19 
REMARK   10  A    between atoms: C11_18  and  C13_20 
REMARK   11  A    between atoms: N4_21  and  C14_22 
REMARK   12  A    between atoms: C14_22  and  C15_23 
REMARK   13  A    between atoms: C14_22  and  C16_25 
REMARK       I    between atoms: C15_23  and  N6_40 
REMARK   14  A    between atoms: C16_25  and  C17_26 
REMARK   15  A    between atoms: C17_26  and  C18_27 
REMARK   16  A    between atoms: C17_26  and  C19_28 
REMARK   17  A    between atoms: C20_29  and  C21_30 
REMARK   18  A    between atoms: C20_29  and  C24_33 
REMARK   19  A    between atoms: C20_29  and  N6_40 
REMARK   20  A    between atoms: C21_30  and  C22_31 
REMARK   21  A    between atoms: C22_31  and  C23_32 
REMARK   22  A    between atoms: C23_32  and  O8_43 
REMARK   23  A    between atoms: C24_33  and  C25_34 
REMARK   24  A    between atoms: C28_38  and  O6_39 
REMARK   25  A    between atoms: C29_42  and  O8_43 
REMARK   26  A    between atoms: C29_42  and  C35_49 
ROOT
ATOM      1  C14 non d ame     -32.535   9.520  24.613  0.00  0.00     0.089 C 
ATOM      2  H20 non d ame     -32.156   8.617  25.092  0.00  0.00     0.087 H 
ENDROOT
BRANCH   1   3
ATOM      3  N4  non d ame     -33.858   9.784  25.159  0.00  0.00    -0.346 N 
ATOM      4  C10 non d ame     -34.716   8.649  25.659  0.00  0.00     0.241 C 
ATOM      5  O4  non d ame     -34.321   7.531  25.609  0.00  0.00    -0.271 OA
ATOM      6  H19 non d ame     -34.176  10.742  25.191  0.00  0.00     0.163 HD
BRANCH   4   7
ATOM      7  C9  non d ame     -36.080   8.941  26.227  0.00  0.00     0.092 C 
ATOM      8  H11 non d ame     -36.593   8.000  26.428  0.00  0.00     0.088 H 
BRANCH   7   9
ATOM      9  N3  non d ame     -35.938   9.640  27.507  0.00  0.00    -0.346 N 
ATOM     10  C7  non d ame     -36.330   8.987  28.732  0.00  0.00     0.240 C 
ATOM     11  O3  non d ame     -36.763   7.900  28.705  0.00  0.00    -0.271 OA
ATOM     12  H10 non d ame     -35.567  10.579  27.546  0.00  0.00     0.163 HD
BRANCH  10  13
ATOM     13  C6  non d ame     -36.179   9.738  30.092  0.00  0.00     0.086 C 
ATOM     14  H6  non d ame     -35.925   9.071  30.915  0.00  0.00     0.086 H 
BRANCH  13  15
ATOM     15  N2  non d ame     -35.092  10.697  29.983  0.00  0.00    -0.343 N 
ATOM     16  C5  non d ame     -33.859  10.479  30.742  0.00  0.00     0.273 C 
ATOM     17  O2  non d ame     -33.752   9.531  31.440  0.00  0.00    -0.266 OA
ATOM     18  H5  non d ame     -35.193  11.506  29.386  0.00  0.00     0.163 HD
BRANCH  16  19
ATOM     19  C4  non d ame     -32.701  11.484  30.635  0.00  0.00     0.154 A 
ATOM     20  C1  non d ame     -32.726  12.767  30.001  0.00  0.00    -0.017 A 
ATOM     21  C2  non d ame     -31.424  13.286  30.180  0.00  0.00     0.077 A 
ATOM     22  H1  non d ame     -33.560  13.248  29.490  0.00  0.00     0.091 H 
ATOM     23  O1  non d ame     -30.741  12.398  30.841  0.00  0.00    -0.218 OA
ATOM     24  N1  non d ame     -31.464  11.338  31.118  0.00  0.00    -0.123 NA
BRANCH  21  25
ATOM     25  C3  non d ame     -30.916  14.635  29.689  0.00  0.00    -0.029 C 
ATOM     26  H2  non d ame     -31.684  15.392  29.846  0.00  0.00     0.036 H 
ATOM     27  H3  non d ame     -30.019  14.908  30.244  0.00  0.00     0.036 H 
ATOM     28  H4  non d ame     -30.680  14.571  28.627  0.00  0.00     0.036 H 
ENDBRANCH  21  25
ENDBRANCH  16  19
ENDBRANCH  13  15
BRANCH  13  29
ATOM     29  C8  non d ame     -37.466  10.450  30.421  0.00  0.00    -0.049 C 
ATOM     30  H7  non d ame     -38.132   9.770  30.952  0.00  0.00     0.030 H 
ATOM     31  H8  non d ame     -37.252  11.314  31.050  0.00  0.00     0.030 H 
ATOM     32  H9  non d ame     -37.944  10.782  29.499  0.00  0.00     0.030 H 
ENDBRANCH  13  29
ENDBRANCH  10  13
ENDBRANCH   7   9
BRANCH   7  33
ATOM     33  C11 non d ame     -36.873   9.840  25.234  0.00  0.00    -0.033 C 
ATOM     34  H12 non d ame     -36.259  10.714  25.019  0.00  0.00     0.042 H 
BRANCH  33  35
ATOM     35  C12 non d ame     -37.130   9.103  23.882  0.00  0.00    -0.071 C 
ATOM     36  H13 non d ame     -38.192   8.876  23.788  0.00  0.00     0.028 H 
ATOM     37  H14 non d ame     -36.821   9.743  23.056  0.00  0.00     0.028 H 
ATOM     38  H15 non d ame     -36.557   8.177  23.858  0.00  0.00     0.028 H 
ENDBRANCH  33  35
BRANCH  33  39
ATOM     39  C13 non d ame     -38.211  10.334  25.873  0.00  0.00    -0.071 C 
ATOM     40  H16 non d ame     -38.379  11.376  25.603  0.00  0.00     0.028 H 
ATOM     41  H17 non d ame     -39.037   9.725  25.504  0.00  0.00     0.028 H 
ATOM     42  H18 non d ame     -38.151  10.243  26.957  0.00  0.00     0.028 H 
ENDBRANCH  33  39
ENDBRANCH   7  33
ENDBRANCH   4   7
ENDBRANCH   1   3
BRANCH   1  43
ATOM     43  C15 non d ame     -31.630  10.755  24.889  0.00  0.00     0.240 C 
ATOM     44  O5  non d ame     -30.872  10.739  25.805  0.00  0.00    -0.271 OA
ATOM     45  N6  non d ame     -31.701  11.954  24.007  0.00  0.00    -0.355 N 
ATOM     46  H46 non d ame     -32.337  11.977  23.223  0.00  0.00     0.162 HD
BRANCH  45  47
ATOM     47  C20 non d ame     -30.833  13.119  24.282  0.00  0.00     0.013 C 
ATOM     48  H30 non d ame     -30.139  12.841  25.075  0.00  0.00     0.072 H 
BRANCH  47  49
ATOM     49  C21 non d ame     -31.687  14.285  24.728  0.00  0.00    -0.038 C 
ATOM     50  H31 non d ame     -31.058  15.169  24.623  0.00  0.00     0.036 H 
ATOM     51  H32 non d ame     -32.614  14.204  24.159  0.00  0.00     0.036 H 
BRANCH  49  52
ATOM     52  C22 non d ame     -32.081  14.203  26.219  0.00  0.00     0.018 C 
ATOM     53  H33 non d ame     -31.490  13.388  26.636  0.00  0.00     0.048 H 
ATOM     54  H34 non d ame     -31.966  15.215  26.610  0.00  0.00     0.048 H 
BRANCH  52  55
ATOM     55  C23 non d ame     -33.568  13.819  26.454  0.00  0.00     0.259 C 
ATOM     56  O7  non d ame     -33.928  12.694  26.321  0.00  0.00    -0.265 OA
BRANCH  55  57
ATOM     57  O8  non d ame     -34.500  14.830  26.818  0.00  0.00    -0.317 OA
BRANCH  57  58
ATOM     58  C29 non d ame     -34.078  15.642  27.917  0.00  0.00     0.052 C 
ATOM     59  H47 non d ame     -34.948  15.734  28.567  0.00  0.00     0.082 H 
ATOM     60  H48 non d ame     -33.165  15.181  28.292  0.00  0.00     0.082 H 
BRANCH  58  61
ATOM     61  C35 non d ame     -33.726  17.050  27.366  0.00  0.00    -0.034 A 
ATOM     62  C30 non d ame     -32.793  17.843  28.025  0.00  0.00    -0.075 A 
ATOM     63  C31 non d ame     -32.477  19.107  27.530  0.00  0.00    -0.082 A 
ATOM     64  H49 non d ame     -32.310  17.475  28.930  0.00  0.00     0.084 H 
ATOM     65  C32 non d ame     -33.100  19.579  26.371  0.00  0.00    -0.083 A 
ATOM     66  H50 non d ame     -31.744  19.726  28.049  0.00  0.00     0.083 H 
ATOM     67  C33 non d ame     -34.033  18.785  25.718  0.00  0.00    -0.082 A 
ATOM     68  H51 non d ame     -32.858  20.566  25.977  0.00  0.00     0.083 H 
ATOM     69  C34 non d ame     -34.350  17.520  26.209  0.00  0.00    -0.075 A 
ATOM     70  H52 non d ame     -34.519  19.156  24.816  0.00  0.00     0.083 H 
ATOM     71  H53 non d ame     -35.083  16.902  25.689  0.00  0.00     0.084 H 
ENDBRANCH  58  61
ENDBRANCH  57  58
ENDBRANCH  55  57
ENDBRANCH  52  55
ENDBRANCH  49  52
ENDBRANCH  47  49
BRANCH  47  72
ATOM     72  C24 non d ame     -30.067  13.503  23.017  0.00  0.00    -0.039 C 
ATOM     73  H35 non d ame     -29.014  13.366  23.264  0.00  0.00     0.036 H 
ATOM     74  H36 non d ame     -30.519  12.919  22.216  0.00  0.00     0.036 H 
BRANCH  72  75
ATOM     75  C25 non d ame     -30.269  15.049  22.648  0.00  0.00    -0.001 C 
ATOM     76  C26 non d ame     -31.069  15.183  21.218  0.00  0.00    -0.035 C 
ATOM     77  C27 non d ame     -30.374  16.014  20.405  0.00  0.00     0.085 C 
ATOM     78  H38 non d ame     -31.048  14.231  20.687  0.00  0.00     0.036 H 
ATOM     79  H39 non d ame     -32.015  15.703  21.366  0.00  0.00     0.036 H 
ATOM     80  N5  non d ame     -29.011  16.200  21.026  0.00  0.00    -0.049 N 
ATOM     81  H40 non d ame     -30.266  15.477  19.463  0.00  0.00     0.075 H 
ATOM     82  H41 non d ame     -30.909  16.963  20.433  0.00  0.00     0.075 H 
ATOM     83  C28 non d ame     -29.134  15.656  22.541  0.00  0.00     0.193 C 
ATOM     84  H42 non d ame     -28.380  15.597  20.518  0.00  0.00     0.280 HD
ATOM     85  H43 non d ame     -28.844  17.196  21.055  0.00  0.00     0.280 HD
ATOM     86  H44 non d ame     -29.202  16.353  23.376  0.00  0.00     0.129 H 
ATOM     87  H37 non d ame     -30.654  15.627  23.488  0.00  0.00     0.046 H 
BRANCH  83  88
ATOM     88  O6  non d ame     -28.033  14.798  22.847  0.00  0.00    -0.369 OA
ATOM     89  H45 non d ame     -27.450  14.742  22.087  0.00  0.00     0.212 HD
ENDBRANCH  83  88
ENDBRANCH  72  75
ENDBRANCH  47  72
ENDBRANCH  45  47
ENDBRANCH   1  43
BRANCH   1  90
ATOM     90  C16 non d ame     -32.653   9.298  23.114  0.00  0.00    -0.035 C 
ATOM     91  H21 non d ame     -33.653   8.895  22.959  0.00  0.00     0.037 H 
ATOM     92  H22 non d ame     -32.372  10.248  22.658  0.00  0.00     0.037 H 
BRANCH  90  93
ATOM     93  C17 non d ame     -31.657   8.231  22.558  0.00  0.00    -0.059 C 
ATOM     94  H23 non d ame     -32.118   7.772  21.684  0.00  0.00     0.038 H 
BRANCH  93  95
ATOM     95  C18 non d ame     -30.304   8.867  22.105  0.00  0.00    -0.073 C 
ATOM     96  H24 non d ame     -29.818   8.212  21.383  0.00  0.00     0.028 H 
ATOM     97  H25 non d ame     -30.494   9.836  21.644  0.00  0.00     0.028 H 
ATOM     98  H26 non d ame     -29.656   8.997  22.971  0.00  0.00     0.028 H 
ENDBRANCH  93  95
BRANCH  93  99
ATOM     99  C19 non d ame     -31.419   7.119  23.583  0.00  0.00    -0.073 C 
ATOM    100  H27 non d ame     -31.774   7.445  24.562  0.00  0.00     0.028 H 
ATOM    101  H28 non d ame     -31.962   6.223  23.281  0.00  0.00     0.028 H 
ATOM    102  H29 non d ame     -30.354   6.897  23.638  0.00  0.00     0.028 H 
ENDBRANCH  93  99
ENDBRANCH  90  93
ENDBRANCH   1  90
TORSDOF 26
ENDMDL
MODEL 10
REMARK VINA RESULT:      -7.0      2.597      7.195
REMARK  26 active torsions:
REMARK  status: ('A' for Active; 'I' for Inactive)
REMARK    1  A    between atoms: C2_2  and  C3_3 
REMARK    2  A    between atoms: C4_6  and  C5_7 
REMARK       I    between atoms: C5_7  and  N2_9 
REMARK    3  A    between atoms: N2_9  and  C6_10 
REMARK    4  A    between atoms: C6_10  and  C7_11 
REMARK    5  A    between atoms: C6_10  and  C8_13 
REMARK       I    between atoms: C7_11  and  N3_14 
REMARK    6  A    between atoms: N3_14  and  C9_15 
REMARK    7  A    between atoms: C9_15  and  C10_16 
REMARK    8  A    between atoms: C9_15  and  C11_18 
REMARK       I    between atoms: C10_16  and  N4_21 
REMARK    9  A    between atoms: C11_18  and  C12_19 
REMARK   10  A    between atoms: C11_18  and  C13_20 
REMARK   11  A    between atoms: N4_21  and  C14_22 
REMARK   12  A    between atoms: C14_22  and  C15_23 
REMARK   13  A    between atoms: C14_22  and  C16_25 
REMARK       I    between atoms: C15_23  and  N6_40 
REMARK   14  A    between atoms: C16_25  and  C17_26 
REMARK   15  A    between atoms: C17_26  and  C18_27 
REMARK   16  A    between atoms: C17_26  and  C19_28 
REMARK   17  A    between atoms: C20_29  and  C21_30 
REMARK   18  A    between atoms: C20_29  and  C24_33 
REMARK   19  A    between atoms: C20_29  and  N6_40 
REMARK   20  A    between atoms: C21_30  and  C22_31 
REMARK   21  A    between atoms: C22_31  and  C23_32 
REMARK   22  A    between atoms: C23_32  and  O8_43 
REMARK   23  A    between atoms: C24_33  and  C25_34 
REMARK   24  A    between atoms: C28_38  and  O6_39 
REMARK   25  A    between atoms: C29_42  and  O8_43 
REMARK   26  A    between atoms: C29_42  and  C35_49 
ROOT
ATOM      1  C14 non d ame     -35.752  13.973  26.231  0.00  0.00     0.089 C 
ATOM      2  H20 non d ame     -36.173  14.465  27.108  0.00  0.00     0.087 H 
ENDROOT
BRANCH   1   3
ATOM      3  N4  non d ame     -34.646  14.792  25.757  0.00  0.00    -0.346 N 
ATOM      4  C10 non d ame     -33.992  15.794  26.676  0.00  0.00     0.241 C 
ATOM      5  O4  non d ame     -34.374  15.924  27.792  0.00  0.00    -0.271 OA
ATOM      6  H19 non d ame     -34.337  14.667  24.804  0.00  0.00     0.163 HD
BRANCH   4   7
ATOM      7  C9  non d ame     -32.845  16.629  26.170  0.00  0.00     0.092 C 
ATOM      8  H11 non d ame     -32.024  16.582  26.886  0.00  0.00     0.088 H 
BRANCH   7   9
ATOM      9  N3  non d ame     -32.352  16.070  24.908  0.00  0.00    -0.346 N 
ATOM     10  C7  non d ame     -31.277  15.108  24.918  0.00  0.00     0.240 C 
ATOM     11  O3  non d ame     -30.797  14.774  25.932  0.00  0.00    -0.271 OA
ATOM     12  H10 non d ame     -32.755  16.350  24.025  0.00  0.00     0.163 HD
BRANCH  10  13
ATOM     13  C6  non d ame     -30.754  14.519  23.571  0.00  0.00     0.086 C 
ATOM     14  H6  non d ame     -29.683  14.666  23.434  0.00  0.00     0.086 H 
BRANCH  13  15
ATOM     15  N2  non d ame     -30.980  13.083  23.565  0.00  0.00    -0.343 N 
ATOM     16  C5  non d ame     -30.129  12.222  22.741  0.00  0.00     0.273 C 
ATOM     17  O2  non d ame     -29.267  12.694  22.084  0.00  0.00    -0.266 OA
ATOM     18  H5  non d ame     -31.720  12.688  24.128  0.00  0.00     0.163 HD
BRANCH  16  19
ATOM     19  C4  non d ame     -30.355  10.702  22.726  0.00  0.00     0.154 A 
ATOM     20  C1  non d ame     -31.409   9.979  23.370  0.00  0.00    -0.017 A 
ATOM     21  C2  non d ame     -31.167   8.624  23.051  0.00  0.00     0.077 A 
ATOM     22  H1  non d ame     -32.224  10.376  23.976  0.00  0.00     0.091 H 
ATOM     23  O1  non d ame     -30.099   8.585  22.310  0.00  0.00    -0.218 OA
ATOM     24  N1  non d ame     -29.607   9.785  22.107  0.00  0.00    -0.123 NA
BRANCH  21  25
ATOM     25  C3  non d ame     -32.004   7.431  23.493  0.00  0.00    -0.029 C 
ATOM     26  H2  non d ame     -32.056   6.703  22.684  0.00  0.00     0.036 H 
ATOM     27  H3  non d ame     -31.545   6.969  24.367  0.00  0.00     0.036 H 
ATOM     28  H4  non d ame     -33.010   7.766  23.746  0.00  0.00     0.036 H 
ENDBRANCH  21  25
ENDBRANCH  16  19
ENDBRANCH  13  15
BRANCH  13  29
ATOM     29  C8  non d ame     -31.486  15.161  22.420  0.00  0.00    -0.049 C 
ATOM     30  H7  non d ame     -31.590  14.441  21.608  0.00  0.00     0.030 H 
ATOM     31  H8  non d ame     -32.474  15.480  22.751  0.00  0.00     0.030 H 
ATOM     32  H9  non d ame     -30.923  16.026  22.069  0.00  0.00     0.030 H 
ENDBRANCH  13  29
ENDBRANCH  10  13
ENDBRANCH   7   9
BRANCH   7  33
ATOM     33  C11 non d ame     -33.332  18.089  25.932  0.00  0.00    -0.033 C 
ATOM     34  H12 non d ame     -32.885  18.437  25.002  0.00  0.00     0.042 H 
BRANCH  33  35
ATOM     35  C12 non d ame     -34.882  18.149  25.759  0.00  0.00    -0.071 C 
ATOM     36  H13 non d ame     -35.270  19.033  26.266  0.00  0.00     0.028 H 
ATOM     37  H14 non d ame     -35.127  18.201  24.699  0.00  0.00     0.028 H 
ATOM     38  H15 non d ame     -35.331  17.256  26.194  0.00  0.00     0.028 H 
ENDBRANCH  33  35
BRANCH  33  39
ATOM     39  C13 non d ame     -32.853  19.032  27.082  0.00  0.00    -0.071 C 
ATOM     40  H16 non d ame     -32.969  18.526  28.040  0.00  0.00     0.028 H 
ATOM     41  H17 non d ame     -31.804  19.287  26.930  0.00  0.00     0.028 H 
ATOM     42  H18 non d ame     -33.451  19.943  27.077  0.00  0.00     0.028 H 
ENDBRANCH  33  39
ENDBRANCH   7  33
ENDBRANCH   4   7
ENDBRANCH   1   3
BRANCH   1  43
ATOM     43  C15 non d ame     -35.210  12.552  26.559  0.00  0.00     0.240 C 
ATOM     44  O5  non d ame     -35.043  11.767  25.683  0.00  0.00    -0.271 OA
ATOM     45  N6  non d ame     -34.892  12.173  27.965  0.00  0.00    -0.355 N 
ATOM     46  H46 non d ame     -35.025  12.833  28.717  0.00  0.00     0.162 HD
BRANCH  45  47
ATOM     47  C20 non d ame     -34.376  10.818  28.260  0.00  0.00     0.013 C 
ATOM     48  H30 non d ame     -34.271  10.286  27.315  0.00  0.00     0.072 H 
BRANCH  47  49
ATOM     49  C21 non d ame     -35.357  10.095  29.155  0.00  0.00    -0.038 C 
ATOM     50  H31 non d ame     -35.347  10.636  30.101  0.00  0.00     0.036 H 
ATOM     51  H32 non d ame     -36.279  10.019  28.579  0.00  0.00     0.036 H 
BRANCH  49  52
ATOM     52  C22 non d ame     -34.921   8.648  29.474  0.00  0.00     0.018 C 
ATOM     53  H33 non d ame     -35.679   8.006  29.026  0.00  0.00     0.048 H 
ATOM     54  H34 non d ame     -33.883   8.574  29.151  0.00  0.00     0.048 H 
BRANCH  52  55
ATOM     55  C23 non d ame     -34.922   8.314  30.992  0.00  0.00     0.259 C 
ATOM     56  O7  non d ame     -34.354   9.017  31.764  0.00  0.00    -0.265 OA
BRANCH  55  57
ATOM     57  O8  non d ame     -35.600   7.150  31.449  0.00  0.00    -0.317 OA
BRANCH  57  58
ATOM     58  C29 non d ame     -35.802   6.159  30.438  0.00  0.00     0.052 C 
ATOM     59  H47 non d ame     -36.672   5.585  30.757  0.00  0.00     0.082 H 
ATOM     60  H48 non d ame     -35.823   6.701  29.493  0.00  0.00     0.082 H 
BRANCH  58  61
ATOM     61  C35 non d ame     -34.567   5.219  30.437  0.00  0.00    -0.034 A 
ATOM     62  C30 non d ame     -34.061   4.731  31.637  0.00  0.00    -0.075 A 
ATOM     63  C31 non d ame     -32.952   3.887  31.636  0.00  0.00    -0.082 A 
ATOM     64  H49 non d ame     -34.533   5.011  32.579  0.00  0.00     0.084 H 
ATOM     65  C32 non d ame     -32.346   3.532  30.428  0.00  0.00    -0.083 A 
ATOM     66  H50 non d ame     -32.559   3.505  32.579  0.00  0.00     0.083 H 
ATOM     67  C33 non d ame     -32.853   4.023  29.232  0.00  0.00    -0.082 A 
ATOM     68  H51 non d ame     -31.479   2.872  30.418  0.00  0.00     0.083 H 
ATOM     69  C34 non d ame     -33.962   4.866  29.229  0.00  0.00    -0.075 A 
ATOM     70  H52 non d ame     -32.377   3.746  28.291  0.00  0.00     0.083 H 
ATOM     71  H53 non d ame     -34.355   5.247  28.285  0.00  0.00     0.084 H 
ENDBRANCH  58  61
ENDBRANCH  57  58
ENDBRANCH  55  57
ENDBRANCH  52  55
ENDBRANCH  49  52
ENDBRANCH  47  49
BRANCH  47  72
ATOM     72  C24 non d ame     -33.024  10.922  28.964  0.00  0.00    -0.039 C 
ATOM     73  H35 non d ame     -33.031  10.138  29.722  0.00  0.00     0.036 H 
ATOM     74  H36 non d ame     -32.281  10.902  28.167  0.00  0.00     0.036 H 
BRANCH  72  75
ATOM     75  C25 non d ame     -32.860  12.319  29.729  0.00  0.00    -0.001 C 
ATOM     76  C26 non d ame     -31.762  13.261  28.948  0.00  0.00    -0.035 C 
ATOM     77  C27 non d ame     -30.844  13.696  29.844  0.00  0.00     0.085 C 
ATOM     78  H38 non d ame     -31.176  12.655  28.257  0.00  0.00     0.036 H 
ATOM     79  H39 non d ame     -32.235  14.179  28.601  0.00  0.00     0.036 H 
ATOM     80  N5  non d ame     -31.028  12.875  31.098  0.00  0.00    -0.049 N 
ATOM     81  H40 non d ame     -29.874  13.462  29.404  0.00  0.00     0.075 H 
ATOM     82  H41 non d ame     -31.111  14.731  30.055  0.00  0.00     0.075 H 
ATOM     83  C28 non d ame     -32.458  12.143  30.943  0.00  0.00     0.193 C 
ATOM     84  H42 non d ame     -30.303  12.172  31.088  0.00  0.00     0.280 HD
ATOM     85  H43 non d ame     -31.083  13.532  31.863  0.00  0.00     0.280 HD
ATOM     86  H44 non d ame     -33.327  12.503  31.495  0.00  0.00     0.129 H 
ATOM     87  H37 non d ame     -33.822  12.774  29.969  0.00  0.00     0.046 H 
BRANCH  83  88
ATOM     88  O6  non d ame     -32.341  10.758  31.276  0.00  0.00    -0.369 OA
ATOM     89  H45 non d ame     -32.195  10.667  32.221  0.00  0.00     0.212 HD
ENDBRANCH  83  88
ENDBRANCH  72  75
ENDBRANCH  47  72
ENDBRANCH  45  47
ENDBRANCH   1  43
BRANCH   1  90
ATOM     90  C16 non d ame     -36.804  13.879  25.138  0.00  0.00    -0.035 C 
ATOM     91  H21 non d ame     -36.255  13.966  24.201  0.00  0.00     0.037 H 
ATOM     92  H22 non d ame     -37.368  12.973  25.357  0.00  0.00     0.037 H 
BRANCH  90  93
ATOM     93  C17 non d ame     -37.833  15.055  25.157  0.00  0.00    -0.059 C 
ATOM     94  H23 non d ame     -38.821  14.631  24.980  0.00  0.00     0.038 H 
BRANCH  93  95
ATOM     95  C18 non d ame     -37.867  15.786  26.537  0.00  0.00    -0.073 C 
ATOM     96  H24 non d ame     -36.974  15.530  27.106  0.00  0.00     0.028 H 
ATOM     97  H25 non d ame     -37.899  16.863  26.377  0.00  0.00     0.028 H 
ATOM     98  H26 non d ame     -38.753  15.475  27.091  0.00  0.00     0.028 H 
ENDBRANCH  93  95
BRANCH  93  99
ATOM     99  C19 non d ame     -37.553  16.044  24.023  0.00  0.00    -0.073 C 
ATOM    100  H27 non d ame     -36.513  16.370  24.073  0.00  0.00     0.028 H 
ATOM    101  H28 non d ame     -37.735  15.560  23.063  0.00  0.00     0.028 H 
ATOM    102  H29 non d ame     -38.209  16.908  24.124  0.00  0.00     0.028 H 
ENDBRANCH  93  99
ENDBRANCH  90  93
ENDBRANCH   1  90
TORSDOF 26
ENDMDL
MODEL 11
REMARK VINA RESULT:      -7.0      2.459      8.731
REMARK  26 active torsions:
REMARK  status: ('A' for Active; 'I' for Inactive)
REMARK    1  A    between atoms: C2_2  and  C3_3 
REMARK    2  A    between atoms: C4_6  and  C5_7 
REMARK       I    between atoms: C5_7  and  N2_9 
REMARK    3  A    between atoms: N2_9  and  C6_10 
REMARK    4  A    between atoms: C6_10  and  C7_11 
REMARK    5  A    between atoms: C6_10  and  C8_13 
REMARK       I    between atoms: C7_11  and  N3_14 
REMARK    6  A    between atoms: N3_14  and  C9_15 
REMARK    7  A    between atoms: C9_15  and  C10_16 
REMARK    8  A    between atoms: C9_15  and  C11_18 
REMARK       I    between atoms: C10_16  and  N4_21 
REMARK    9  A    between atoms: C11_18  and  C12_19 
REMARK   10  A    between atoms: C11_18  and  C13_20 
REMARK   11  A    between atoms: N4_21  and  C14_22 
REMARK   12  A    between atoms: C14_22  and  C15_23 
REMARK   13  A    between atoms: C14_22  and  C16_25 
REMARK       I    between atoms: C15_23  and  N6_40 
REMARK   14  A    between atoms: C16_25  and  C17_26 
REMARK   15  A    between atoms: C17_26  and  C18_27 
REMARK   16  A    between atoms: C17_26  and  C19_28 
REMARK   17  A    between atoms: C20_29  and  C21_30 
REMARK   18  A    between atoms: C20_29  and  C24_33 
REMARK   19  A    between atoms: C20_29  and  N6_40 
REMARK   20  A    between atoms: C21_30  and  C22_31 
REMARK   21  A    between atoms: C22_31  and  C23_32 
REMARK   22  A    between atoms: C23_32  and  O8_43 
REMARK   23  A    between atoms: C24_33  and  C25_34 
REMARK   24  A    between atoms: C28_38  and  O6_39 
REMARK   25  A    between atoms: C29_42  and  O8_43 
REMARK   26  A    between atoms: C29_42  and  C35_49 
ROOT
ATOM      1  C14 non d ame     -37.542  13.706  25.185  0.00  0.00     0.089 C 
ATOM      2  H20 non d ame     -38.558  13.770  25.573  0.00  0.00     0.087 H 
ENDROOT
BRANCH   1   3
ATOM      3  N4  non d ame     -36.977  15.047  25.213  0.00  0.00    -0.346 N 
ATOM      4  C10 non d ame     -37.439  16.046  26.243  0.00  0.00     0.241 C 
ATOM      5  O4  non d ame     -38.270  15.749  27.037  0.00  0.00    -0.271 OA
ATOM      6  H19 non d ame     -36.273  15.280  24.528  0.00  0.00     0.163 HD
BRANCH   4   7
ATOM      7  C9  non d ame     -36.840  17.428  26.262  0.00  0.00     0.092 C 
ATOM      8  H11 non d ame     -37.278  17.998  27.081  0.00  0.00     0.088 H 
BRANCH   7   9
ATOM      9  N3  non d ame     -35.400  17.332  26.522  0.00  0.00    -0.346 N 
ATOM     10  C7  non d ame     -34.828  18.008  27.661  0.00  0.00     0.240 C 
ATOM     11  O3  non d ame     -35.510  18.634  28.377  0.00  0.00    -0.271 OA
ATOM     12  H10 non d ame     -34.798  16.798  25.913  0.00  0.00     0.163 HD
BRANCH  10  13
ATOM     13  C6  non d ame     -33.294  17.905  27.931  0.00  0.00     0.086 C 
ATOM     14  H6  non d ame     -32.997  18.386  28.863  0.00  0.00     0.086 H 
BRANCH  13  15
ATOM     15  N2  non d ame     -32.930  16.504  28.052  0.00  0.00    -0.343 N 
ATOM     16  C5  non d ame     -32.113  16.066  29.186  0.00  0.00     0.273 C 
ATOM     17  O2  non d ame     -31.752  16.850  29.994  0.00  0.00    -0.266 OA
ATOM     18  H5  non d ame     -33.240  15.841  27.355  0.00  0.00     0.163 HD
BRANCH  16  19
ATOM     19  C4  non d ame     -31.721  14.587  29.327  0.00  0.00     0.154 A 
ATOM     20  C1  non d ame     -32.514  13.531  29.880  0.00  0.00    -0.017 A 
ATOM     21  C2  non d ame     -31.705  12.377  29.777  0.00  0.00     0.077 A 
ATOM     22  H1  non d ame     -33.521  13.593  30.292  0.00  0.00     0.091 H 
ATOM     23  O1  non d ame     -30.583  12.738  29.228  0.00  0.00    -0.218 OA
ATOM     24  N1  non d ame     -30.568  14.023  28.956  0.00  0.00    -0.123 NA
BRANCH  21  25
ATOM     25  C3  non d ame     -32.080  10.971  30.227  0.00  0.00    -0.029 C 
ATOM     26  H2  non d ame     -32.682  10.492  29.456  0.00  0.00     0.036 H 
ATOM     27  H3  non d ame     -31.173  10.390  30.393  0.00  0.00     0.036 H 
ATOM     28  H4  non d ame     -32.651  11.026  31.153  0.00  0.00     0.036 H 
ENDBRANCH  21  25
ENDBRANCH  16  19
ENDBRANCH  13  15
BRANCH  13  29
ATOM     29  C8  non d ame     -32.537  18.540  26.792  0.00  0.00    -0.049 C 
ATOM     30  H7  non d ame     -33.044  19.454  26.484  0.00  0.00     0.030 H 
ATOM     31  H8  non d ame     -31.525  18.778  27.117  0.00  0.00     0.030 H 
ATOM     32  H9  non d ame     -32.496  17.846  25.952  0.00  0.00     0.030 H 
ENDBRANCH  13  29
ENDBRANCH  10  13
ENDBRANCH   7   9
BRANCH   7  33
ATOM     33  C11 non d ame     -37.070  18.112  24.883  0.00  0.00    -0.033 C 
ATOM     34  H12 non d ame     -36.510  17.547  24.138  0.00  0.00     0.042 H 
BRANCH  33  35
ATOM     35  C12 non d ame     -38.575  18.068  24.471  0.00  0.00    -0.071 C 
ATOM     36  H13 non d ame     -39.173  18.581  25.224  0.00  0.00     0.028 H 
ATOM     37  H14 non d ame     -38.703  18.561  23.508  0.00  0.00     0.028 H 
ATOM     38  H15 non d ame     -38.900  17.030  24.395  0.00  0.00     0.028 H 
ENDBRANCH  33  35
BRANCH  33  39
ATOM     39  C13 non d ame     -36.527  19.577  24.888  0.00  0.00    -0.071 C 
ATOM     40  H16 non d ame     -36.542  19.967  25.906  0.00  0.00     0.028 H 
ATOM     41  H17 non d ame     -35.505  19.587  24.509  0.00  0.00     0.028 H 
ATOM     42  H18 non d ame     -37.155  20.200  24.251  0.00  0.00     0.028 H 
ENDBRANCH  33  39
ENDBRANCH   7  33
ENDBRANCH   4   7
ENDBRANCH   1   3
BRANCH   1  43
ATOM     43  C15 non d ame     -36.642  12.771  26.043  0.00  0.00     0.240 C 
ATOM     44  O5  non d ame     -36.841  12.667  27.210  0.00  0.00    -0.271 OA
ATOM     45  N6  non d ame     -35.538  11.997  25.407  0.00  0.00    -0.355 N 
ATOM     46  H46 non d ame     -35.362  12.073  24.416  0.00  0.00     0.162 HD
BRANCH  45  47
ATOM     47  C20 non d ame     -34.692  11.111  26.237  0.00  0.00     0.013 C 
ATOM     48  H30 non d ame     -35.323  10.673  27.010  0.00  0.00     0.072 H 
BRANCH  47  49
ATOM     49  C21 non d ame     -33.587  11.925  26.871  0.00  0.00    -0.038 C 
ATOM     50  H31 non d ame     -34.088  12.681  27.476  0.00  0.00     0.036 H 
ATOM     51  H32 non d ame     -32.922  11.201  27.342  0.00  0.00     0.036 H 
BRANCH  49  52
ATOM     52  C22 non d ame     -32.736  12.690  25.834  0.00  0.00     0.018 C 
ATOM     53  H33 non d ame     -31.700  12.552  26.142  0.00  0.00     0.048 H 
ATOM     54  H34 non d ame     -33.067  12.333  24.859  0.00  0.00     0.048 H 
BRANCH  52  55
ATOM     55  C23 non d ame     -32.980  14.225  25.833  0.00  0.00     0.259 C 
ATOM     56  O7  non d ame     -34.068  14.663  26.025  0.00  0.00    -0.265 OA
BRANCH  55  57
ATOM     57  O8  non d ame     -31.889  15.104  25.589  0.00  0.00    -0.317 OA
BRANCH  57  58
ATOM     58  C29 non d ame     -30.711  14.450  25.109  0.00  0.00     0.052 C 
ATOM     59  H47 non d ame     -29.878  14.921  25.632  0.00  0.00     0.082 H 
ATOM     60  H48 non d ame     -30.896  13.383  25.229  0.00  0.00     0.082 H 
BRANCH  58  61
ATOM     61  C35 non d ame     -30.576  14.758  23.594  0.00  0.00    -0.034 A 
ATOM     62  C30 non d ame     -29.878  13.885  22.765  0.00  0.00    -0.075 A 
ATOM     63  C31 non d ame     -29.756  14.161  21.404  0.00  0.00    -0.082 A 
ATOM     64  H49 non d ame     -29.426  12.985  23.182  0.00  0.00     0.084 H 
ATOM     65  C32 non d ame     -30.334  15.317  20.873  0.00  0.00    -0.083 A 
ATOM     66  H50 non d ame     -29.210  13.474  20.757  0.00  0.00     0.083 H 
ATOM     67  C33 non d ame     -31.026  16.187  21.704  0.00  0.00    -0.082 A 
ATOM     68  H51 non d ame     -30.244  15.541  19.809  0.00  0.00     0.083 H 
ATOM     69  C34 non d ame     -31.152  15.914  23.064  0.00  0.00    -0.075 A 
ATOM     70  H52 non d ame     -31.474  17.090  21.286  0.00  0.00     0.083 H 
ATOM     71  H53 non d ame     -31.699  16.601  23.711  0.00  0.00     0.084 H 
ENDBRANCH  58  61
ENDBRANCH  57  58
ENDBRANCH  55  57
ENDBRANCH  52  55
ENDBRANCH  49  52
ENDBRANCH  47  49
BRANCH  47  72
ATOM     72  C24 non d ame     -34.083  10.015  25.365  0.00  0.00    -0.039 C 
ATOM     73  H35 non d ame     -34.726   9.951  24.487  0.00  0.00     0.036 H 
ATOM     74  H36 non d ame     -33.033  10.284  25.253  0.00  0.00     0.036 H 
BRANCH  72  75
ATOM     75  C25 non d ame     -34.130   8.587  26.090  0.00  0.00    -0.001 C 
ATOM     76  C26 non d ame     -34.963   8.704  27.503  0.00  0.00    -0.035 C 
ATOM     77  C27 non d ame     -34.212   8.171  28.497  0.00  0.00     0.085 C 
ATOM     78  H38 non d ame     -35.063   9.749  27.792  0.00  0.00     0.036 H 
ATOM     79  H39 non d ame     -35.841   8.059  27.474  0.00  0.00     0.036 H 
ATOM     80  N5  non d ame     -32.815   8.000  27.952  0.00  0.00    -0.049 N 
ATOM     81  H40 non d ame     -34.196   8.924  29.285  0.00  0.00     0.075 H 
ATOM     82  H41 non d ame     -34.640   7.188  28.691  0.00  0.00     0.075 H 
ATOM     83  C28 non d ame     -32.941   8.155  26.350  0.00  0.00     0.193 C 
ATOM     84  H42 non d ame     -32.272   8.773  28.308  0.00  0.00     0.280 HD
ATOM     85  H43 non d ame     -32.541   7.050  28.162  0.00  0.00     0.280 HD
ATOM     86  H44 non d ame     -32.903   7.278  25.704  0.00  0.00     0.129 H 
ATOM     87  H37 non d ame     -34.420   7.787  25.408  0.00  0.00     0.046 H 
BRANCH  83  88
ATOM     88  O6  non d ame     -31.929   9.035  25.859  0.00  0.00    -0.369 OA
ATOM     89  H45 non d ame     -31.643   8.741  24.990  0.00  0.00     0.212 HD
ENDBRANCH  83  88
ENDBRANCH  72  75
ENDBRANCH  47  72
ENDBRANCH  45  47
ENDBRANCH   1  43
BRANCH   1  90
ATOM     90  C16 non d ame     -37.570  13.210  23.748  0.00  0.00    -0.035 C 
ATOM     91  H21 non d ame     -36.676  13.623  23.282  0.00  0.00     0.037 H 
ATOM     92  H22 non d ame     -37.699  12.130  23.817  0.00  0.00     0.037 H 
BRANCH  90  93
ATOM     93  C17 non d ame     -38.784  13.747  22.924  0.00  0.00    -0.059 C 
ATOM     94  H23 non d ame     -39.163  12.923  22.319  0.00  0.00     0.038 H 
BRANCH  93  95
ATOM     95  C18 non d ame     -39.948  14.240  23.842  0.00  0.00    -0.073 C 
ATOM     96  H24 non d ame     -40.094  15.310  23.700  0.00  0.00     0.028 H 
ATOM     97  H25 non d ame     -40.864  13.711  23.582  0.00  0.00     0.028 H 
ATOM     98  H26 non d ame     -39.697  14.042  24.884  0.00  0.00     0.028 H 
ENDBRANCH  93  95
BRANCH  93  99
ATOM     99  C19 non d ame     -38.344  14.853  21.961  0.00  0.00    -0.073 C 
ATOM    100  H27 non d ame     -38.546  14.543  20.935  0.00  0.00     0.028 H 
ATOM    101  H28 non d ame     -38.897  15.767  22.179  0.00  0.00     0.028 H 
ATOM    102  H29 non d ame     -37.277  15.037  22.082  0.00  0.00     0.028 H 
ENDBRANCH  93  99
ENDBRANCH  90  93
ENDBRANCH   1  90
TORSDOF 26
ENDMDL
MODEL 12
REMARK VINA RESULT:      -7.0      2.626      4.974
REMARK  26 active torsions:
REMARK  status: ('A' for Active; 'I' for Inactive)
REMARK    1  A    between atoms: C2_2  and  C3_3 
REMARK    2  A    between atoms: C4_6  and  C5_7 
REMARK       I    between atoms: C5_7  and  N2_9 
REMARK    3  A    between atoms: N2_9  and  C6_10 
REMARK    4  A    between atoms: C6_10  and  C7_11 
REMARK    5  A    between atoms: C6_10  and  C8_13 
REMARK       I    between atoms: C7_11  and  N3_14 
REMARK    6  A    between atoms: N3_14  and  C9_15 
REMARK    7  A    between atoms: C9_15  and  C10_16 
REMARK    8  A    between atoms: C9_15  and  C11_18 
REMARK       I    between atoms: C10_16  and  N4_21 
REMARK    9  A    between atoms: C11_18  and  C12_19 
REMARK   10  A    between atoms: C11_18  and  C13_20 
REMARK   11  A    between atoms: N4_21  and  C14_22 
REMARK   12  A    between atoms: C14_22  and  C15_23 
REMARK   13  A    between atoms: C14_22  and  C16_25 
REMARK       I    between atoms: C15_23  and  N6_40 
REMARK   14  A    between atoms: C16_25  and  C17_26 
REMARK   15  A    between atoms: C17_26  and  C18_27 
REMARK   16  A    between atoms: C17_26  and  C19_28 
REMARK   17  A    between atoms: C20_29  and  C21_30 
REMARK   18  A    between atoms: C20_29  and  C24_33 
REMARK   19  A    between atoms: C20_29  and  N6_40 
REMARK   20  A    between atoms: C21_30  and  C22_31 
REMARK   21  A    between atoms: C22_31  and  C23_32 
REMARK   22  A    between atoms: C23_32  and  O8_43 
REMARK   23  A    between atoms: C24_33  and  C25_34 
REMARK   24  A    between atoms: C28_38  and  O6_39 
REMARK   25  A    between atoms: C29_42  and  O8_43 
REMARK   26  A    between atoms: C29_42  and  C35_49 
ROOT
ATOM      1  C14 non d ame     -31.068  14.044  24.534  0.00  0.00     0.089 C 
ATOM      2  H20 non d ame     -30.093  13.604  24.744  0.00  0.00     0.087 H 
ENDROOT
BRANCH   1   3
ATOM      3  N4  non d ame     -32.055  12.977  24.605  0.00  0.00    -0.346 N 
ATOM      4  C10 non d ame     -31.692  11.642  25.205  0.00  0.00     0.241 C 
ATOM      5  O4  non d ame     -30.597  11.449  25.622  0.00  0.00    -0.271 OA
ATOM      6  H19 non d ame     -32.980  13.161  24.244  0.00  0.00     0.163 HD
BRANCH   4   7
ATOM      7  C9  non d ame     -32.728  10.551  25.276  0.00  0.00     0.092 C 
ATOM      8  H11 non d ame     -33.451  10.691  24.473  0.00  0.00     0.088 H 
BRANCH   7   9
ATOM      9  N3  non d ame     -32.085   9.252  25.059  0.00  0.00    -0.346 N 
ATOM     10  C7  non d ame     -31.932   8.738  23.720  0.00  0.00     0.240 C 
ATOM     11  O3  non d ame     -32.322   9.357  22.806  0.00  0.00    -0.271 OA
ATOM     12  H10 non d ame     -31.745   8.706  25.838  0.00  0.00     0.163 HD
BRANCH  10  13
ATOM     13  C6  non d ame     -31.250   7.353  23.495  0.00  0.00     0.086 C 
ATOM     14  H6  non d ame     -30.172   7.431  23.360  0.00  0.00     0.086 H 
BRANCH  13  15
ATOM     15  N2  non d ame     -31.463   6.526  24.671  0.00  0.00    -0.343 N 
ATOM     16  C5  non d ame     -32.825   6.134  25.041  0.00  0.00     0.273 C 
ATOM     17  O2  non d ame     -33.742   6.491  24.386  0.00  0.00    -0.266 OA
ATOM     18  H5  non d ame     -30.673   6.228  25.226  0.00  0.00     0.163 HD
BRANCH  16  19
ATOM     19  C4  non d ame     -33.065   5.259  26.281  0.00  0.00     0.154 A 
ATOM     20  C1  non d ame     -32.404   5.354  27.547  0.00  0.00    -0.017 A 
ATOM     21  C2  non d ame     -32.982   4.334  28.336  0.00  0.00     0.077 A 
ATOM     22  H1  non d ame     -31.626   6.056  27.847  0.00  0.00     0.091 H 
ATOM     23  O1  non d ame     -33.869   3.731  27.600  0.00  0.00    -0.218 OA
ATOM     24  N1  non d ame     -33.935   4.253  26.396  0.00  0.00    -0.123 NA
BRANCH  21  25
ATOM     25  C3  non d ame     -32.631   4.004  29.780  0.00  0.00    -0.029 C 
ATOM     26  H2  non d ame     -33.521   4.096  30.401  0.00  0.00     0.036 H 
ATOM     27  H3  non d ame     -32.253   2.983  29.837  0.00  0.00     0.036 H 
ATOM     28  H4  non d ame     -31.866   4.694  30.136  0.00  0.00     0.036 H 
ENDBRANCH  21  25
ENDBRANCH  16  19
ENDBRANCH  13  15
BRANCH  13  29
ATOM     29  C8  non d ame     -31.847   6.687  22.281  0.00  0.00    -0.049 C 
ATOM     30  H7  non d ame     -31.377   5.715  22.132  0.00  0.00     0.030 H 
ATOM     31  H8  non d ame     -32.918   6.554  22.429  0.00  0.00     0.030 H 
ATOM     32  H9  non d ame     -31.676   7.311  21.403  0.00  0.00     0.030 H 
ENDBRANCH  13  29
ENDBRANCH  10  13
ENDBRANCH   7   9
BRANCH   7  33
ATOM     33  C11 non d ame     -33.400  10.566  26.680  0.00  0.00    -0.033 C 
ATOM     34  H12 non d ame     -32.617  10.737  27.418  0.00  0.00     0.042 H 
BRANCH  33  35
ATOM     35  C12 non d ame     -34.427  11.734  26.806  0.00  0.00    -0.071 C 
ATOM     36  H13 non d ame     -35.288  11.531  26.169  0.00  0.00     0.028 H 
ATOM     37  H14 non d ame     -34.754  11.820  27.842  0.00  0.00     0.028 H 
ATOM     38  H15 non d ame     -33.957  12.666  26.495  0.00  0.00     0.028 H 
ENDBRANCH  33  35
BRANCH  33  39
ATOM     39  C13 non d ame     -34.068   9.188  26.995  0.00  0.00    -0.071 C 
ATOM     40  H16 non d ame     -33.299   8.466  27.269  0.00  0.00     0.028 H 
ATOM     41  H17 non d ame     -34.769   9.305  27.822  0.00  0.00     0.028 H 
ATOM     42  H18 non d ame     -34.603   8.834  26.114  0.00  0.00     0.028 H 
ENDBRANCH  33  39
ENDBRANCH   7  33
ENDBRANCH   4   7
ENDBRANCH   1   3
BRANCH   1  43
ATOM     43  C15 non d ame     -31.451  15.143  25.566  0.00  0.00     0.240 C 
ATOM     44  O5  non d ame     -31.107  16.267  25.388  0.00  0.00    -0.271 OA
ATOM     45  N6  non d ame     -32.254  14.796  26.773  0.00  0.00    -0.355 N 
ATOM     46  H46 non d ame     -32.556  13.846  26.933  0.00  0.00     0.162 HD
BRANCH  45  47
ATOM     47  C20 non d ame     -32.611  15.853  27.744  0.00  0.00     0.013 C 
ATOM     48  H30 non d ame     -31.900  16.671  27.627  0.00  0.00     0.072 H 
BRANCH  47  49
ATOM     49  C21 non d ame     -32.527  15.292  29.146  0.00  0.00    -0.038 C 
ATOM     50  H31 non d ame     -32.413  16.156  29.802  0.00  0.00     0.036 H 
ATOM     51  H32 non d ame     -33.391  14.636  29.252  0.00  0.00     0.036 H 
BRANCH  49  52
ATOM     52  C22 non d ame     -31.279  14.410  29.365  0.00  0.00     0.018 C 
ATOM     53  H33 non d ame     -30.985  14.063  28.375  0.00  0.00     0.048 H 
ATOM     54  H34 non d ame     -30.591  15.013  29.957  0.00  0.00     0.048 H 
BRANCH  52  55
ATOM     55  C23 non d ame     -31.556  13.130  30.202  0.00  0.00     0.259 C 
ATOM     56  O7  non d ame     -30.771  12.758  31.012  0.00  0.00    -0.265 OA
BRANCH  55  57
ATOM     57  O8  non d ame     -32.756  12.399  29.980  0.00  0.00    -0.317 OA
BRANCH  57  58
ATOM     58  C29 non d ame     -32.590  10.979  30.035  0.00  0.00     0.052 C 
ATOM     59  H47 non d ame     -32.740  10.625  29.014  0.00  0.00     0.082 H 
ATOM     60  H48 non d ame     -31.637  10.812  30.535  0.00  0.00     0.082 H 
BRANCH  58  61
ATOM     61  C35 non d ame     -33.721  10.399  30.926  0.00  0.00    -0.034 A 
ATOM     62  C30 non d ame     -34.203   9.115  30.693  0.00  0.00    -0.075 A 
ATOM     63  C31 non d ame     -35.219   8.595  31.493  0.00  0.00    -0.082 A 
ATOM     64  H49 non d ame     -33.786   8.518  29.882  0.00  0.00     0.084 H 
ATOM     65  C32 non d ame     -35.754   9.364  32.530  0.00  0.00    -0.083 A 
ATOM     66  H50 non d ame     -35.593   7.588  31.308  0.00  0.00     0.083 H 
ATOM     67  C33 non d ame     -35.271  10.646  32.757  0.00  0.00    -0.082 A 
ATOM     68  H51 non d ame     -36.547   8.964  33.161  0.00  0.00     0.083 H 
ATOM     69  C34 non d ame     -34.255  11.169  31.961  0.00  0.00    -0.075 A 
ATOM     70  H52 non d ame     -35.693  11.244  33.565  0.00  0.00     0.083 H 
ATOM     71  H53 non d ame     -33.881  12.177  32.146  0.00  0.00     0.084 H 
ENDBRANCH  58  61
ENDBRANCH  57  58
ENDBRANCH  55  57
ENDBRANCH  52  55
ENDBRANCH  49  52
ENDBRANCH  47  49
BRANCH  47  72
ATOM     72  C24 non d ame     -34.032  16.343  27.475  0.00  0.00    -0.039 C 
ATOM     73  H35 non d ame     -34.411  15.708  26.673  0.00  0.00     0.036 H 
ATOM     74  H36 non d ame     -34.527  16.346  28.446  0.00  0.00     0.036 H 
BRANCH  72  75
ATOM     75  C25 non d ame     -34.047  17.850  26.932  0.00  0.00    -0.001 C 
ATOM     76  C26 non d ame     -32.555  18.520  27.101  0.00  0.00    -0.035 C 
ATOM     77  C27 non d ame     -32.680  19.708  27.739  0.00  0.00     0.085 C 
ATOM     78  H38 non d ame     -31.953  17.925  27.787  0.00  0.00     0.036 H 
ATOM     79  H39 non d ame     -32.156  18.797  26.124  0.00  0.00     0.036 H 
ATOM     80  N5  non d ame     -34.077  19.757  28.311  0.00  0.00    -0.049 N 
ATOM     81  H40 non d ame     -31.962  19.676  28.558  0.00  0.00     0.075 H 
ATOM     82  H41 non d ame     -32.588  20.467  26.963  0.00  0.00     0.075 H 
ATOM     83  C28 non d ame     -34.897  18.573  27.581  0.00  0.00     0.193 C 
ATOM     84  H42 non d ame     -33.993  19.533  29.292  0.00  0.00     0.280 HD
ATOM     85  H43 non d ame     -34.471  20.643  28.027  0.00  0.00     0.280 HD
ATOM     86  H44 non d ame     -35.610  18.800  26.789  0.00  0.00     0.129 H 
ATOM     87  H37 non d ame     -34.519  17.931  25.952  0.00  0.00     0.046 H 
BRANCH  83  88
ATOM     88  O6  non d ame     -35.625  17.812  28.546  0.00  0.00    -0.369 OA
ATOM     89  H45 non d ame     -36.049  17.067  28.113  0.00  0.00     0.212 HD
ENDBRANCH  83  88
ENDBRANCH  72  75
ENDBRANCH  47  72
ENDBRANCH  45  47
ENDBRANCH   1  43
BRANCH   1  90
ATOM     90  C16 non d ame     -31.075  14.634  23.133  0.00  0.00    -0.035 C 
ATOM     91  H21 non d ame     -31.696  13.962  22.540  0.00  0.00     0.037 H 
ATOM     92  H22 non d ame     -31.368  15.676  23.260  0.00  0.00     0.037 H 
BRANCH  90  93
ATOM     93  C17 non d ame     -29.669  14.650  22.452  0.00  0.00    -0.059 C 
ATOM     94  H23 non d ame     -28.942  14.959  23.203  0.00  0.00     0.038 H 
BRANCH  93  95
ATOM     95  C18 non d ame     -29.249  13.236  21.935  0.00  0.00    -0.073 C 
ATOM     96  H24 non d ame     -28.228  13.024  22.249  0.00  0.00     0.028 H 
ATOM     97  H25 non d ame     -29.920  12.484  22.348  0.00  0.00     0.028 H 
ATOM     98  H26 non d ame     -29.307  13.216  20.847  0.00  0.00     0.028 H 
ENDBRANCH  93  95
BRANCH  93  99
ATOM     99  C19 non d ame     -29.621  15.680  21.321  0.00  0.00    -0.073 C 
ATOM    100  H27 non d ame     -28.894  16.455  21.566  0.00  0.00     0.028 H 
ATOM    101  H28 non d ame     -29.329  15.188  20.393  0.00  0.00     0.028 H 
ATOM    102  H29 non d ame     -30.606  16.131  21.198  0.00  0.00     0.028 H 
ENDBRANCH  93  99
ENDBRANCH  90  93
ENDBRANCH   1  90
TORSDOF 26
ENDMDL
MODEL 13
REMARK VINA RESULT:      -6.9      2.443      8.287
REMARK  26 active torsions:
REMARK  status: ('A' for Active; 'I' for Inactive)
REMARK    1  A    between atoms: C2_2  and  C3_3 
REMARK    2  A    between atoms: C4_6  and  C5_7 
REMARK       I    between atoms: C5_7  and  N2_9 
REMARK    3  A    between atoms: N2_9  and  C6_10 
REMARK    4  A    between atoms: C6_10  and  C7_11 
REMARK    5  A    between atoms: C6_10  and  C8_13 
REMARK       I    between atoms: C7_11  and  N3_14 
REMARK    6  A    between atoms: N3_14  and  C9_15 
REMARK    7  A    between atoms: C9_15  and  C10_16 
REMARK    8  A    between atoms: C9_15  and  C11_18 
REMARK       I    between atoms: C10_16  and  N4_21 
REMARK    9  A    between atoms: C11_18  and  C12_19 
REMARK   10  A    between atoms: C11_18  and  C13_20 
REMARK   11  A    between atoms: N4_21  and  C14_22 
REMARK   12  A    between atoms: C14_22  and  C15_23 
REMARK   13  A    between atoms: C14_22  and  C16_25 
REMARK       I    between atoms: C15_23  and  N6_40 
REMARK   14  A    between atoms: C16_25  and  C17_26 
REMARK   15  A    between atoms: C17_26  and  C18_27 
REMARK   16  A    between atoms: C17_26  and  C19_28 
REMARK   17  A    between atoms: C20_29  and  C21_30 
REMARK   18  A    between atoms: C20_29  and  C24_33 
REMARK   19  A    between atoms: C20_29  and  N6_40 
REMARK   20  A    between atoms: C21_30  and  C22_31 
REMARK   21  A    between atoms: C22_31  and  C23_32 
REMARK   22  A    between atoms: C23_32  and  O8_43 
REMARK   23  A    between atoms: C24_33  and  C25_34 
REMARK   24  A    between atoms: C28_38  and  O6_39 
REMARK   25  A    between atoms: C29_42  and  O8_43 
REMARK   26  A    between atoms: C29_42  and  C35_49 
ROOT
ATOM      1  C14 non d ame     -36.585  15.507  26.514  0.00  0.00     0.089 C 
ATOM      2  H20 non d ame     -37.218  16.028  27.233  0.00  0.00     0.087 H 
ENDROOT
BRANCH   1   3
ATOM      3  N4  non d ame     -35.201  15.742  26.897  0.00  0.00    -0.346 N 
ATOM      4  C10 non d ame     -34.816  17.003  27.628  0.00  0.00     0.241 C 
ATOM      5  O4  non d ame     -35.638  17.817  27.894  0.00  0.00    -0.271 OA
ATOM      6  H19 non d ame     -34.516  15.038  26.660  0.00  0.00     0.163 HD
BRANCH   4   7
ATOM      7  C9  non d ame     -33.380  17.227  28.022  0.00  0.00     0.092 C 
ATOM      8  H11 non d ame     -33.347  17.812  28.941  0.00  0.00     0.088 H 
BRANCH   7   9
ATOM      9  N3  non d ame     -32.744  15.937  28.307  0.00  0.00    -0.346 N 
ATOM     10  C7  non d ame     -31.862  15.803  29.440  0.00  0.00     0.240 C 
ATOM     11  O3  non d ame     -31.651  16.723  30.132  0.00  0.00    -0.271 OA
ATOM     12  H10 non d ame     -32.915  15.135  27.718  0.00  0.00     0.163 HD
BRANCH  10  13
ATOM     13  C6  non d ame     -31.186  14.428  29.736  0.00  0.00     0.086 C 
ATOM     14  H6  non d ame     -30.569  14.447  30.634  0.00  0.00     0.086 H 
BRANCH  13  15
ATOM     15  N2  non d ame     -32.221  13.433  29.963  0.00  0.00    -0.343 N 
ATOM     16  C5  non d ame     -31.870  12.159  30.593  0.00  0.00     0.273 C 
ATOM     17  O2  non d ame     -30.753  11.943  30.912  0.00  0.00    -0.266 OA
ATOM     18  H5  non d ame     -33.173  13.625  29.684  0.00  0.00     0.163 HD
BRANCH  16  19
ATOM     19  C4  non d ame     -32.955  11.098  30.840  0.00  0.00     0.154 A 
ATOM     20  C1  non d ame     -33.331  10.027  29.969  0.00  0.00    -0.017 A 
ATOM     21  C2  non d ame     -34.363   9.347  30.653  0.00  0.00     0.077 A 
ATOM     22  H1  non d ame     -32.919   9.781  28.990  0.00  0.00     0.091 H 
ATOM     23  O1  non d ame     -34.548   9.963  31.785  0.00  0.00    -0.218 OA
ATOM     24  N1  non d ame     -33.739  10.988  31.916  0.00  0.00    -0.123 NA
BRANCH  21  25
ATOM     25  C3  non d ame     -35.117   8.120  30.158  0.00  0.00    -0.029 C 
ATOM     26  H2  non d ame     -34.410   7.316  29.956  0.00  0.00     0.036 H 
ATOM     27  H3  non d ame     -35.825   7.797  30.921  0.00  0.00     0.036 H 
ATOM     28  H4  non d ame     -35.656   8.369  29.245  0.00  0.00     0.036 H 
ENDBRANCH  21  25
ENDBRANCH  16  19
ENDBRANCH  13  15
BRANCH  13  29
ATOM     29  C8  non d ame     -30.328  14.024  28.564  0.00  0.00    -0.049 C 
ATOM     30  H7  non d ame     -30.273  14.848  27.853  0.00  0.00     0.030 H 
ATOM     31  H8  non d ame     -29.326  13.780  28.915  0.00  0.00     0.030 H 
ATOM     32  H9  non d ame     -30.765  13.152  28.077  0.00  0.00     0.030 H 
ENDBRANCH  13  29
ENDBRANCH  10  13
ENDBRANCH   7   9
BRANCH   7  33
ATOM     33  C11 non d ame     -32.625  17.928  26.855  0.00  0.00    -0.033 C 
ATOM     34  H12 non d ame     -31.566  17.690  26.959  0.00  0.00     0.042 H 
BRANCH  33  35
ATOM     35  C12 non d ame     -33.093  17.385  25.468  0.00  0.00    -0.071 C 
ATOM     36  H13 non d ame     -32.708  16.375  25.325  0.00  0.00     0.028 H 
ATOM     37  H14 non d ame     -34.181  17.367  25.434  0.00  0.00     0.028 H 
ATOM     38  H15 non d ame     -32.714  18.033  24.678  0.00  0.00     0.028 H 
ENDBRANCH  33  35
BRANCH  33  39
ATOM     39  C13 non d ame     -32.783  19.480  26.938  0.00  0.00    -0.071 C 
ATOM     40  H16 non d ame     -32.201  19.860  27.778  0.00  0.00     0.028 H 
ATOM     41  H17 non d ame     -32.424  19.932  26.013  0.00  0.00     0.028 H 
ATOM     42  H18 non d ame     -33.834  19.731  27.080  0.00  0.00     0.028 H 
ENDBRANCH  33  39
ENDBRANCH   7  33
ENDBRANCH   4   7
ENDBRANCH   1   3
BRANCH   1  43
ATOM     43  C15 non d ame     -36.844  13.973  26.507  0.00  0.00     0.240 C 
ATOM     44  O5  non d ame     -37.755  13.525  27.124  0.00  0.00    -0.271 OA
ATOM     45  N6  non d ame     -35.961  13.064  25.723  0.00  0.00    -0.355 N 
ATOM     46  H46 non d ame     -35.186  13.433  25.191  0.00  0.00     0.162 HD
BRANCH  45  47
ATOM     47  C20 non d ame     -36.221  11.608  25.725  0.00  0.00     0.013 C 
ATOM     48  H30 non d ame     -37.159  11.436  26.253  0.00  0.00     0.072 H 
BRANCH  47  49
ATOM     49  C21 non d ame     -35.090  10.899  26.436  0.00  0.00    -0.038 C 
ATOM     50  H31 non d ame     -35.114  11.263  27.463  0.00  0.00     0.036 H 
ATOM     51  H32 non d ame     -35.232   9.838  26.229  0.00  0.00     0.036 H 
BRANCH  49  52
ATOM     52  C22 non d ame     -33.701  11.271  25.872  0.00  0.00     0.018 C 
ATOM     53  H33 non d ame     -33.030  10.476  26.194  0.00  0.00     0.048 H 
ATOM     54  H34 non d ame     -33.855  11.458  24.809  0.00  0.00     0.048 H 
BRANCH  52  55
ATOM     55  C23 non d ame     -33.120  12.587  26.459  0.00  0.00     0.259 C 
ATOM     56  O7  non d ame     -33.541  13.031  27.478  0.00  0.00    -0.265 OA
BRANCH  55  57
ATOM     57  O8  non d ame     -32.084  13.265  25.758  0.00  0.00    -0.317 OA
BRANCH  57  58
ATOM     58  C29 non d ame     -31.433  12.466  24.766  0.00  0.00     0.052 C 
ATOM     59  H47 non d ame     -30.667  11.901  25.298  0.00  0.00     0.082 H 
ATOM     60  H48 non d ame     -32.230  11.941  24.240  0.00  0.00     0.082 H 
BRANCH  58  61
ATOM     61  C35 non d ame     -30.732  13.422  23.765  0.00  0.00    -0.034 A 
ATOM     62  C30 non d ame     -30.832  14.800  23.931  0.00  0.00    -0.075 A 
ATOM     63  C31 non d ame     -30.203  15.659  23.031  0.00  0.00    -0.082 A 
ATOM     64  H49 non d ame     -31.404  15.206  24.765  0.00  0.00     0.084 H 
ATOM     65  C32 non d ame     -29.472  15.136  21.961  0.00  0.00    -0.083 A 
ATOM     66  H50 non d ame     -30.282  16.738  23.165  0.00  0.00     0.083 H 
ATOM     67  C33 non d ame     -29.378  13.760  21.798  0.00  0.00    -0.082 A 
ATOM     68  H51 non d ame     -28.976  15.800  21.254  0.00  0.00     0.083 H 
ATOM     69  C34 non d ame     -30.004  12.898  22.695  0.00  0.00    -0.075 A 
ATOM     70  H52 non d ame     -28.809  13.355  20.960  0.00  0.00     0.083 H 
ATOM     71  H53 non d ame     -29.924  11.819  22.561  0.00  0.00     0.084 H 
ENDBRANCH  58  61
ENDBRANCH  57  58
ENDBRANCH  55  57
ENDBRANCH  52  55
ENDBRANCH  49  52
ENDBRANCH  47  49
BRANCH  47  72
ATOM     72  C24 non d ame     -36.319  11.099  24.288  0.00  0.00    -0.039 C 
ATOM     73  H35 non d ame     -35.833  11.859  23.677  0.00  0.00     0.036 H 
ATOM     74  H36 non d ame     -35.922  10.084  24.313  0.00  0.00     0.036 H 
BRANCH  72  75
ATOM     75  C25 non d ame     -37.841  10.999  23.798  0.00  0.00    -0.001 C 
ATOM     76  C26 non d ame     -38.071   9.599  22.967  0.00  0.00    -0.035 C 
ATOM     77  C27 non d ame     -38.657   9.886  21.780  0.00  0.00     0.085 C 
ATOM     78  H38 non d ame     -37.110   9.172  22.680  0.00  0.00     0.036 H 
ATOM     79  H39 non d ame     -38.813   8.981  23.474  0.00  0.00     0.036 H 
ATOM     80  N5  non d ame     -38.549  11.379  21.585  0.00  0.00    -0.049 N 
ATOM     81  H40 non d ame     -38.050   9.385  21.027  0.00  0.00     0.075 H 
ATOM     82  H41 non d ame     -39.706   9.619  21.901  0.00  0.00     0.075 H 
ATOM     83  C28 non d ame     -38.149  11.988  23.026  0.00  0.00     0.193 C 
ATOM     84  H42 non d ame     -37.781  11.530  20.948  0.00  0.00     0.280 HD
ATOM     85  H43 non d ame     -39.476  11.703  21.345  0.00  0.00     0.280 HD
ATOM     86  H44 non d ame     -38.894  12.494  23.640  0.00  0.00     0.129 H 
ATOM     87  H37 non d ame     -38.548  11.224  24.597  0.00  0.00     0.046 H 
BRANCH  83  88
ATOM     88  O6  non d ame     -37.074  12.918  22.887  0.00  0.00    -0.369 OA
ATOM     89  H45 non d ame     -37.264  13.521  22.164  0.00  0.00     0.212 HD
ENDBRANCH  83  88
ENDBRANCH  72  75
ENDBRANCH  47  72
ENDBRANCH  45  47
ENDBRANCH   1  43
BRANCH   1  90
ATOM     90  C16 non d ame     -36.816  16.071  25.121  0.00  0.00    -0.035 C 
ATOM     91  H21 non d ame     -35.827  16.339  24.750  0.00  0.00     0.037 H 
ATOM     92  H22 non d ame     -37.409  15.319  24.600  0.00  0.00     0.037 H 
BRANCH  90  93
ATOM     93  C17 non d ame     -37.662  17.384  25.110  0.00  0.00    -0.059 C 
ATOM     94  H23 non d ame     -38.008  17.564  26.127  0.00  0.00     0.038 H 
BRANCH  93  95
ATOM     95  C18 non d ame     -36.820  18.623  24.667  0.00  0.00    -0.073 C 
ATOM     96  H24 non d ame     -37.173  19.510  25.193  0.00  0.00     0.028 H 
ATOM     97  H25 non d ame     -35.770  18.454  24.906  0.00  0.00     0.028 H 
ATOM     98  H26 non d ame     -36.928  18.771  23.592  0.00  0.00     0.028 H 
ENDBRANCH  93  95
BRANCH  93  99
ATOM     99  C19 non d ame     -38.904  17.227  24.229  0.00  0.00    -0.073 C 
ATOM    100  H27 non d ame     -39.516  18.127  24.299  0.00  0.00     0.028 H 
ATOM    101  H28 non d ame     -38.599  17.075  23.193  0.00  0.00     0.028 H 
ATOM    102  H29 non d ame     -39.482  16.367  24.566  0.00  0.00     0.028 H 
ENDBRANCH  93  99
ENDBRANCH  90  93
ENDBRANCH   1  90
TORSDOF 26
ENDMDL
MODEL 14
REMARK VINA RESULT:      -6.9      2.313      5.172
REMARK  26 active torsions:
REMARK  status: ('A' for Active; 'I' for Inactive)
REMARK    1  A    between atoms: C2_2  and  C3_3 
REMARK    2  A    between atoms: C4_6  and  C5_7 
REMARK       I    between atoms: C5_7  and  N2_9 
REMARK    3  A    between atoms: N2_9  and  C6_10 
REMARK    4  A    between atoms: C6_10  and  C7_11 
REMARK    5  A    between atoms: C6_10  and  C8_13 
REMARK       I    between atoms: C7_11  and  N3_14 
REMARK    6  A    between atoms: N3_14  and  C9_15 
REMARK    7  A    between atoms: C9_15  and  C10_16 
REMARK    8  A    between atoms: C9_15  and  C11_18 
REMARK       I    between atoms: C10_16  and  N4_21 
REMARK    9  A    between atoms: C11_18  and  C12_19 
REMARK   10  A    between atoms: C11_18  and  C13_20 
REMARK   11  A    between atoms: N4_21  and  C14_22 
REMARK   12  A    between atoms: C14_22  and  C15_23 
REMARK   13  A    between atoms: C14_22  and  C16_25 
REMARK       I    between atoms: C15_23  and  N6_40 
REMARK   14  A    between atoms: C16_25  and  C17_26 
REMARK   15  A    between atoms: C17_26  and  C18_27 
REMARK   16  A    between atoms: C17_26  and  C19_28 
REMARK   17  A    between atoms: C20_29  and  C21_30 
REMARK   18  A    between atoms: C20_29  and  C24_33 
REMARK   19  A    between atoms: C20_29  and  N6_40 
REMARK   20  A    between atoms: C21_30  and  C22_31 
REMARK   21  A    between atoms: C22_31  and  C23_32 
REMARK   22  A    between atoms: C23_32  and  O8_43 
REMARK   23  A    between atoms: C24_33  and  C25_34 
REMARK   24  A    between atoms: C28_38  and  O6_39 
REMARK   25  A    between atoms: C29_42  and  O8_43 
REMARK   26  A    between atoms: C29_42  and  C35_49 
ROOT
ATOM      1  C14 non d ame     -31.250  14.609  24.121  0.00  0.00     0.089 C 
ATOM      2  H20 non d ame     -30.266  14.666  24.586  0.00  0.00     0.087 H 
ENDROOT
BRANCH   1   3
ATOM      3  N4  non d ame     -31.539  13.203  23.878  0.00  0.00    -0.346 N 
ATOM      4  C10 non d ame     -31.345  12.185  24.974  0.00  0.00     0.241 C 
ATOM      5  O4  non d ame     -30.952  12.521  26.042  0.00  0.00    -0.271 OA
ATOM      6  H19 non d ame     -31.869  12.937  22.961  0.00  0.00     0.163 HD
BRANCH   4   7
ATOM      7  C9  non d ame     -31.654  10.735  24.706  0.00  0.00     0.092 C 
ATOM      8  H11 non d ame     -31.110  10.116  25.419  0.00  0.00     0.088 H 
BRANCH   7   9
ATOM      9  N3  non d ame     -33.083  10.492  24.923  0.00  0.00    -0.346 N 
ATOM     10  C7  non d ame     -33.509   9.558  25.936  0.00  0.00     0.240 C 
ATOM     11  O3  non d ame     -32.716   8.992  26.584  0.00  0.00    -0.271 OA
ATOM     12  H10 non d ame     -33.779  10.971  24.370  0.00  0.00     0.163 HD
BRANCH  10  13
ATOM     13  C6  non d ame     -35.032   9.301  26.159  0.00  0.00     0.086 C 
ATOM     14  H6  non d ame     -35.261   8.979  27.175  0.00  0.00     0.086 H 
BRANCH  13  15
ATOM     15  N2  non d ame     -35.757  10.542  25.943  0.00  0.00    -0.343 N 
ATOM     16  C5  non d ame     -35.951  11.467  27.062  0.00  0.00     0.273 C 
ATOM     17  O2  non d ame     -35.524  11.203  28.131  0.00  0.00    -0.266 OA
ATOM     18  H5  non d ame     -36.121  10.759  25.026  0.00  0.00     0.163 HD
BRANCH  16  19
ATOM     19  C4  non d ame     -36.714  12.784  26.847  0.00  0.00     0.154 A 
ATOM     20  C1  non d ame     -36.178  14.028  26.385  0.00  0.00    -0.017 A 
ATOM     21  C2  non d ame     -37.280  14.912  26.363  0.00  0.00     0.077 A 
ATOM     22  H1  non d ame     -35.149  14.254  26.107  0.00  0.00     0.091 H 
ATOM     23  O1  non d ame     -38.321  14.244  26.766  0.00  0.00    -0.218 OA
ATOM     24  N1  non d ame     -38.016  13.000  27.055  0.00  0.00    -0.123 NA
BRANCH  21  25
ATOM     25  C3  non d ame     -37.253  16.376  25.943  0.00  0.00    -0.029 C 
ATOM     26  H2  non d ame     -36.424  16.542  25.256  0.00  0.00     0.036 H 
ATOM     27  H3  non d ame     -38.191  16.629  25.449  0.00  0.00     0.036 H 
ATOM     28  H4  non d ame     -37.126  17.004  26.825  0.00  0.00     0.036 H 
ENDBRANCH  21  25
ENDBRANCH  16  19
ENDBRANCH  13  15
BRANCH  13  29
ATOM     29  C8  non d ame     -35.514   8.247  25.194  0.00  0.00    -0.049 C 
ATOM     30  H7  non d ame     -36.602   8.281  25.133  0.00  0.00     0.030 H 
ATOM     31  H8  non d ame     -35.088   8.436  24.209  0.00  0.00     0.030 H 
ATOM     32  H9  non d ame     -35.200   7.263  25.544  0.00  0.00     0.030 H 
ENDBRANCH  13  29
ENDBRANCH  10  13
ENDBRANCH   7   9
BRANCH   7  33
ATOM     33  C11 non d ame     -31.289  10.391  23.233  0.00  0.00    -0.033 C 
ATOM     34  H12 non d ame     -31.522  11.264  22.624  0.00  0.00     0.042 H 
BRANCH  33  35
ATOM     35  C12 non d ame     -29.763  10.104  23.077  0.00  0.00    -0.071 C 
ATOM     36  H13 non d ame     -29.607   9.034  22.932  0.00  0.00     0.028 H 
ATOM     37  H14 non d ame     -29.377  10.647  22.215  0.00  0.00     0.028 H 
ATOM     38  H15 non d ame     -29.239  10.428  23.976  0.00  0.00     0.028 H 
ENDBRANCH  33  35
BRANCH  33  39
ATOM     39  C13 non d ame     -32.147   9.194  22.710  0.00  0.00    -0.071 C 
ATOM     40  H16 non d ame     -32.595   9.459  21.752  0.00  0.00     0.028 H 
ATOM     41  H17 non d ame     -31.509   8.318  22.582  0.00  0.00     0.028 H 
ATOM     42  H18 non d ame     -32.933   8.968  23.430  0.00  0.00     0.028 H 
ENDBRANCH  33  39
ENDBRANCH   7  33
ENDBRANCH   4   7
ENDBRANCH   1   3
BRANCH   1  43
ATOM     43  C15 non d ame     -32.366  15.193  25.033  0.00  0.00     0.240 C 
ATOM     44  O5  non d ame     -33.460  15.357  24.598  0.00  0.00    -0.271 OA
ATOM     45  N6  non d ame     -32.073  15.540  26.453  0.00  0.00    -0.355 N 
ATOM     46  H46 non d ame     -31.149  15.401  26.835  0.00  0.00     0.162 HD
BRANCH  45  47
ATOM     47  C20 non d ame     -33.146  16.094  27.308  0.00  0.00     0.013 C 
ATOM     48  H30 non d ame     -34.103  15.835  26.855  0.00  0.00     0.072 H 
BRANCH  47  49
ATOM     49  C21 non d ame     -32.999  17.597  27.383  0.00  0.00    -0.038 C 
ATOM     50  H31 non d ame     -33.145  17.855  28.433  0.00  0.00     0.036 H 
ATOM     51  H32 non d ame     -32.053  17.825  26.892  0.00  0.00     0.036 H 
BRANCH  49  52
ATOM     52  C22 non d ame     -34.094  18.346  26.593  0.00  0.00     0.018 C 
ATOM     53  H33 non d ame     -33.815  18.255  25.544  0.00  0.00     0.048 H 
ATOM     54  H34 non d ame     -35.042  17.937  26.943  0.00  0.00     0.048 H 
BRANCH  52  55
ATOM     55  C23 non d ame     -34.149  19.870  26.890  0.00  0.00     0.259 C 
ATOM     56  O7  non d ame     -33.169  20.537  26.803  0.00  0.00    -0.265 OA
BRANCH  55  57
ATOM     57  O8  non d ame     -35.382  20.460  27.282  0.00  0.00    -0.317 OA
BRANCH  57  58
ATOM     58  C29 non d ame     -36.466  19.531  27.379  0.00  0.00     0.052 C 
ATOM     59  H47 non d ame     -37.243  19.914  26.717  0.00  0.00     0.082 H 
ATOM     60  H48 non d ame     -36.031  18.549  27.197  0.00  0.00     0.082 H 
BRANCH  58  61
ATOM     61  C35 non d ame     -37.001  19.569  28.836  0.00  0.00    -0.034 A 
ATOM     62  C30 non d ame     -37.848  18.565  29.294  0.00  0.00    -0.075 A 
ATOM     63  C31 non d ame     -38.328  18.599  30.602  0.00  0.00    -0.082 A 
ATOM     64  H49 non d ame     -38.136  17.752  28.628  0.00  0.00     0.084 H 
ATOM     65  C32 non d ame     -37.960  19.645  31.453  0.00  0.00    -0.083 A 
ATOM     66  H50 non d ame     -38.990  17.810  30.958  0.00  0.00     0.083 H 
ATOM     67  C33 non d ame     -37.117  20.646  30.991  0.00  0.00    -0.082 A 
ATOM     68  H51 non d ame     -38.330  19.679  32.478  0.00  0.00     0.083 H 
ATOM     69  C34 non d ame     -36.633  20.615  29.685  0.00  0.00    -0.075 A 
ATOM     70  H52 non d ame     -36.833  21.462  31.657  0.00  0.00     0.083 H 
ATOM     71  H53 non d ame     -35.970  21.405  29.329  0.00  0.00     0.084 H 
ENDBRANCH  58  61
ENDBRANCH  57  58
ENDBRANCH  55  57
ENDBRANCH  52  55
ENDBRANCH  49  52
ENDBRANCH  47  49
BRANCH  47  72
ATOM     72  C24 non d ame     -33.045  15.500  28.712  0.00  0.00    -0.039 C 
ATOM     73  H35 non d ame     -32.908  16.353  29.378  0.00  0.00     0.036 H 
ATOM     74  H36 non d ame     -33.920  14.860  28.820  0.00  0.00     0.036 H 
BRANCH  72  75
ATOM     75  C25 non d ame     -31.753  14.566  28.869  0.00  0.00    -0.001 C 
ATOM     76  C26 non d ame     -32.213  13.033  29.248  0.00  0.00    -0.035 C 
ATOM     77  C27 non d ame     -31.521  12.627  30.339  0.00  0.00     0.085 C 
ATOM     78  H38 non d ame     -33.249  13.027  29.586  0.00  0.00     0.036 H 
ATOM     79  H39 non d ame     -31.890  12.342  28.469  0.00  0.00     0.036 H 
ATOM     80  N5  non d ame     -30.873  13.854  30.933  0.00  0.00    -0.049 N 
ATOM     81  H40 non d ame     -32.270  12.248  31.034  0.00  0.00     0.075 H 
ATOM     82  H41 non d ame     -30.744  11.963  29.960  0.00  0.00     0.075 H 
ATOM     83  C28 non d ame     -30.972  15.001  29.801  0.00  0.00     0.193 C 
ATOM     84  H42 non d ame     -31.446  14.128  31.719  0.00  0.00     0.280 HD
ATOM     85  H43 non d ame     -29.900  13.623  31.073  0.00  0.00     0.280 HD
ATOM     86  H44 non d ame     -30.096  15.275  29.213  0.00  0.00     0.129 H 
ATOM     87  H37 non d ame     -31.055  14.683  28.040  0.00  0.00     0.046 H 
BRANCH  83  88
ATOM     88  O6  non d ame     -31.445  16.221  30.375  0.00  0.00    -0.369 OA
ATOM     89  H45 non d ame     -31.126  16.295  31.277  0.00  0.00     0.212 HD
ENDBRANCH  83  88
ENDBRANCH  72  75
ENDBRANCH  47  72
ENDBRANCH  45  47
ENDBRANCH   1  43
BRANCH   1  90
ATOM     90  C16 non d ame     -31.236  15.349  22.793  0.00  0.00    -0.035 C 
ATOM     91  H21 non d ame     -32.232  15.210  22.374  0.00  0.00     0.037 H 
ATOM     92  H22 non d ame     -30.877  16.351  23.025  0.00  0.00     0.037 H 
BRANCH  90  93
ATOM     93  C17 non d ame     -30.235  14.751  21.753  0.00  0.00    -0.059 C 
ATOM     94  H23 non d ame     -30.379  13.671  21.739  0.00  0.00     0.038 H 
BRANCH  93  95
ATOM     95  C18 non d ame     -30.497  15.286  20.308  0.00  0.00    -0.073 C 
ATOM     96  H24 non d ame     -29.550  15.372  19.776  0.00  0.00     0.028 H 
ATOM     97  H25 non d ame     -31.150  14.594  19.777  0.00  0.00     0.028 H 
ATOM     98  H26 non d ame     -30.973  16.264  20.364  0.00  0.00     0.028 H 
ENDBRANCH  93  95
BRANCH  93  99
ATOM     99  C19 non d ame     -28.787  15.011  22.176  0.00  0.00    -0.073 C 
ATOM    100  H27 non d ame     -28.340  14.083  22.532  0.00  0.00     0.028 H 
ATOM    101  H28 non d ame     -28.220  15.384  21.323  0.00  0.00     0.028 H 
ATOM    102  H29 non d ame     -28.769  15.753  22.974  0.00  0.00     0.028 H 
ENDBRANCH  93  99
ENDBRANCH  90  93
ENDBRANCH   1  90
TORSDOF 26
ENDMDL
MODEL 15
REMARK VINA RESULT:      -6.9      2.035      3.764
REMARK  26 active torsions:
REMARK  status: ('A' for Active; 'I' for Inactive)
REMARK    1  A    between atoms: C2_2  and  C3_3 
REMARK    2  A    between atoms: C4_6  and  C5_7 
REMARK       I    between atoms: C5_7  and  N2_9 
REMARK    3  A    between atoms: N2_9  and  C6_10 
REMARK    4  A    between atoms: C6_10  and  C7_11 
REMARK    5  A    between atoms: C6_10  and  C8_13 
REMARK       I    between atoms: C7_11  and  N3_14 
REMARK    6  A    between atoms: N3_14  and  C9_15 
REMARK    7  A    between atoms: C9_15  and  C10_16 
REMARK    8  A    between atoms: C9_15  and  C11_18 
REMARK       I    between atoms: C10_16  and  N4_21 
REMARK    9  A    between atoms: C11_18  and  C12_19 
REMARK   10  A    between atoms: C11_18  and  C13_20 
REMARK   11  A    between atoms: N4_21  and  C14_22 
REMARK   12  A    between atoms: C14_22  and  C15_23 
REMARK   13  A    between atoms: C14_22  and  C16_25 
REMARK       I    between atoms: C15_23  and  N6_40 
REMARK   14  A    between atoms: C16_25  and  C17_26 
REMARK   15  A    between atoms: C17_26  and  C18_27 
REMARK   16  A    between atoms: C17_26  and  C19_28 
REMARK   17  A    between atoms: C20_29  and  C21_30 
REMARK   18  A    between atoms: C20_29  and  C24_33 
REMARK   19  A    between atoms: C20_29  and  N6_40 
REMARK   20  A    between atoms: C21_30  and  C22_31 
REMARK   21  A    between atoms: C22_31  and  C23_32 
REMARK   22  A    between atoms: C23_32  and  O8_43 
REMARK   23  A    between atoms: C24_33  and  C25_34 
REMARK   24  A    between atoms: C28_38  and  O6_39 
REMARK   25  A    between atoms: C29_42  and  O8_43 
REMARK   26  A    between atoms: C29_42  and  C35_49 
ROOT
ATOM      1  C14 non d ame     -30.762  14.309  23.841  0.00  0.00     0.089 C 
ATOM      2  H20 non d ame     -29.675  14.317  23.748  0.00  0.00     0.087 H 
ENDROOT
BRANCH   1   3
ATOM      3  N4  non d ame     -31.169  12.937  24.103  0.00  0.00    -0.346 N 
ATOM      4  C10 non d ame     -30.558  11.799  23.325  0.00  0.00     0.241 C 
ATOM      5  O4  non d ame     -29.741  12.013  22.490  0.00  0.00    -0.271 OA
ATOM      6  H19 non d ame     -31.867  12.776  24.816  0.00  0.00     0.163 HD
BRANCH   4   7
ATOM      7  C9  non d ame     -30.987  10.384  23.613  0.00  0.00     0.092 C 
ATOM      8  H11 non d ame     -30.480  10.032  24.512  0.00  0.00     0.088 H 
BRANCH   7   9
ATOM      9  N3  non d ame     -32.427  10.356  23.889  0.00  0.00    -0.346 N 
ATOM     10  C7  non d ame     -32.900  10.388  25.251  0.00  0.00     0.240 C 
ATOM     11  O3  non d ame     -32.137  10.434  26.137  0.00  0.00    -0.271 OA
ATOM     12  H10 non d ame     -33.097  10.315  23.135  0.00  0.00     0.163 HD
BRANCH  10  13
ATOM     13  C6  non d ame     -34.434  10.355  25.538  0.00  0.00     0.086 C 
ATOM     14  H6  non d ame     -35.002   9.875  24.741  0.00  0.00     0.086 H 
BRANCH  13  15
ATOM     15  N2  non d ame     -34.671   9.579  26.743  0.00  0.00    -0.343 N 
ATOM     16  C5  non d ame     -35.155   8.201  26.631  0.00  0.00     0.273 C 
ATOM     17  O2  non d ame     -35.352   7.728  25.566  0.00  0.00    -0.266 OA
ATOM     18  H5  non d ame     -34.503   9.993  27.649  0.00  0.00     0.163 HD
BRANCH  16  19
ATOM     19  C4  non d ame     -35.409   7.369  27.897  0.00  0.00     0.154 A 
ATOM     20  C1  non d ame     -36.676   7.024  28.466  0.00  0.00    -0.017 A 
ATOM     21  C2  non d ame     -36.364   6.257  29.610  0.00  0.00     0.077 A 
ATOM     22  H1  non d ame     -37.669   7.290  28.103  0.00  0.00     0.091 H 
ATOM     23  O1  non d ame     -35.068   6.175  29.680  0.00  0.00    -0.218 OA
ATOM     24  N1  non d ame     -34.488   6.816  28.692  0.00  0.00    -0.123 NA
BRANCH  21  25
ATOM     25  C3  non d ame     -37.362   5.639  30.581  0.00  0.00    -0.029 C 
ATOM     26  H2  non d ame     -37.942   6.429  31.058  0.00  0.00     0.036 H 
ATOM     27  H3  non d ame     -38.033   4.975  30.037  0.00  0.00     0.036 H 
ATOM     28  H4  non d ame     -36.826   5.072  31.341  0.00  0.00     0.036 H 
ENDBRANCH  21  25
ENDBRANCH  16  19
ENDBRANCH  13  15
BRANCH  13  29
ATOM     29  C8  non d ame     -34.944  11.762  25.720  0.00  0.00    -0.049 C 
ATOM     30  H7  non d ame     -34.590  12.156  26.673  0.00  0.00     0.030 H 
ATOM     31  H8  non d ame     -34.576  12.390  24.909  0.00  0.00     0.030 H 
ATOM     32  H9  non d ame     -36.034  11.758  25.711  0.00  0.00     0.030 H 
ENDBRANCH  13  29
ENDBRANCH  10  13
ENDBRANCH   7   9
BRANCH   7  33
ATOM     33  C11 non d ame     -30.681   9.487  22.378  0.00  0.00    -0.033 C 
ATOM     34  H12 non d ame     -30.586  10.142  21.512  0.00  0.00     0.042 H 
BRANCH  33  35
ATOM     35  C12 non d ame     -29.326   8.732  22.546  0.00  0.00    -0.071 C 
ATOM     36  H13 non d ame     -29.398   7.748  22.082  0.00  0.00     0.028 H 
ATOM     37  H14 non d ame     -28.530   9.302  22.068  0.00  0.00     0.028 H 
ATOM     38  H15 non d ame     -29.103   8.617  23.607  0.00  0.00     0.028 H 
ENDBRANCH  33  35
BRANCH  33  39
ATOM     39  C13 non d ame     -31.854   8.492  22.105  0.00  0.00    -0.071 C 
ATOM     40  H16 non d ame     -32.475   8.876  21.296  0.00  0.00     0.028 H 
ATOM     41  H17 non d ame     -31.448   7.520  21.822  0.00  0.00     0.028 H 
ATOM     42  H18 non d ame     -32.456   8.384  23.007  0.00  0.00     0.028 H 
ENDBRANCH  33  39
ENDBRANCH   7  33
ENDBRANCH   4   7
ENDBRANCH   1   3
BRANCH   1  43
ATOM     43  C15 non d ame     -31.257  15.205  25.012  0.00  0.00     0.240 C 
ATOM     44  O5  non d ame     -30.887  16.331  25.092  0.00  0.00    -0.271 OA
ATOM     45  N6  non d ame     -32.201  14.661  26.029  0.00  0.00    -0.355 N 
ATOM     46  H46 non d ame     -32.527  13.707  25.969  0.00  0.00     0.162 HD
BRANCH  45  47
ATOM     47  C20 non d ame     -32.665  15.526  27.136  0.00  0.00     0.013 C 
ATOM     48  H30 non d ame     -31.922  16.310  27.282  0.00  0.00     0.072 H 
BRANCH  47  49
ATOM     49  C21 non d ame     -32.797  14.699  28.395  0.00  0.00    -0.038 C 
ATOM     50  H31 non d ame     -32.142  15.171  29.128  0.00  0.00     0.036 H 
ATOM     51  H32 non d ame     -33.868  14.626  28.587  0.00  0.00     0.036 H 
BRANCH  49  52
ATOM     52  C22 non d ame     -32.285  13.253  28.219  0.00  0.00     0.018 C 
ATOM     53  H33 non d ame     -32.781  12.871  27.327  0.00  0.00     0.048 H 
ATOM     54  H34 non d ame     -31.197  13.319  28.251  0.00  0.00     0.048 H 
BRANCH  52  55
ATOM     55  C23 non d ame     -32.691  12.300  29.377  0.00  0.00     0.259 C 
ATOM     56  O7  non d ame     -32.321  12.507  30.487  0.00  0.00    -0.265 OA
BRANCH  55  57
ATOM     57  O8  non d ame     -33.501  11.166  29.094  0.00  0.00    -0.317 OA
BRANCH  57  58
ATOM     58  C29 non d ame     -33.445  10.145  30.094  0.00  0.00     0.052 C 
ATOM     59  H47 non d ame     -33.077   9.254  29.586  0.00  0.00     0.082 H 
ATOM     60  H48 non d ame     -32.879  10.574  30.921  0.00  0.00     0.082 H 
BRANCH  58  61
ATOM     61  C35 non d ame     -34.893   9.871  30.581  0.00  0.00    -0.034 A 
ATOM     62  C30 non d ame     -35.975  10.373  29.866  0.00  0.00    -0.075 A 
ATOM     63  C31 non d ame     -37.276  10.127  30.303  0.00  0.00    -0.082 A 
ATOM     64  H49 non d ame     -35.805  10.959  28.962  0.00  0.00     0.084 H 
ATOM     65  C32 non d ame     -37.492   9.378  31.463  0.00  0.00    -0.083 A 
ATOM     66  H50 non d ame     -38.122  10.521  29.739  0.00  0.00     0.083 H 
ATOM     67  C33 non d ame     -36.409   8.882  32.175  0.00  0.00    -0.082 A 
ATOM     68  H51 non d ame     -38.506   9.181  31.811  0.00  0.00     0.083 H 
ATOM     69  C34 non d ame     -35.108   9.124  31.741  0.00  0.00    -0.075 A 
ATOM     70  H52 non d ame     -36.581   8.300  33.081  0.00  0.00     0.083 H 
ATOM     71  H53 non d ame     -34.262   8.730  32.306  0.00  0.00     0.084 H 
ENDBRANCH  58  61
ENDBRANCH  57  58
ENDBRANCH  55  57
ENDBRANCH  52  55
ENDBRANCH  49  52
ENDBRANCH  47  49
BRANCH  47  72
ATOM     72  C24 non d ame     -34.019  16.137  26.782  0.00  0.00    -0.039 C 
ATOM     73  H35 non d ame     -34.315  15.663  25.846  0.00  0.00     0.036 H 
ATOM     74  H36 non d ame     -34.634  16.014  27.673  0.00  0.00     0.036 H 
BRANCH  72  75
ATOM     75  C25 non d ame     -33.904  17.710  26.499  0.00  0.00    -0.001 C 
ATOM     76  C26 non d ame     -32.628  18.335  27.327  0.00  0.00    -0.035 C 
ATOM     77  C27 non d ame     -33.051  19.412  28.032  0.00  0.00     0.085 C 
ATOM     78  H38 non d ame     -32.304  17.637  28.098  0.00  0.00     0.036 H 
ATOM     79  H39 non d ame     -31.901  18.756  26.631  0.00  0.00     0.036 H 
ATOM     80  N5  non d ame     -34.560  19.382  28.020  0.00  0.00    -0.049 N 
ATOM     81  H40 non d ame     -32.700  19.249  29.050  0.00  0.00     0.075 H 
ATOM     82  H41 non d ame     -32.709  20.280  27.470  0.00  0.00     0.075 H 
ATOM     83  C28 non d ame     -34.975  18.330  26.868  0.00  0.00     0.193 C 
ATOM     84  H42 non d ame     -34.846  19.009  28.914  0.00  0.00     0.280 HD
ATOM     85  H43 non d ame     -34.862  20.304  27.738  0.00  0.00     0.280 HD
ATOM     86  H44 non d ame     -35.342  18.681  25.904  0.00  0.00     0.129 H 
ATOM     87  H37 non d ame     -33.969  17.944  25.437  0.00  0.00     0.046 H 
BRANCH  83  88
ATOM     88  O6  non d ame     -35.976  17.435  27.355  0.00  0.00    -0.369 OA
ATOM     89  H45 non d ame     -36.573  17.909  27.939  0.00  0.00     0.212 HD
ENDBRANCH  83  88
ENDBRANCH  72  75
ENDBRANCH  47  72
ENDBRANCH  45  47
ENDBRANCH   1  43
BRANCH   1  90
ATOM     90  C16 non d ame     -31.393  14.774  22.539  0.00  0.00    -0.035 C 
ATOM     91  H21 non d ame     -31.620  13.862  21.986  0.00  0.00     0.037 H 
ATOM     92  H22 non d ame     -32.198  15.448  22.833  0.00  0.00     0.037 H 
BRANCH  90  93
ATOM     93  C17 non d ame     -30.428  15.607  21.636  0.00  0.00    -0.059 C 
ATOM     94  H23 non d ame     -30.662  16.661  21.786  0.00  0.00     0.038 H 
BRANCH  93  95
ATOM     95  C18 non d ame     -28.929  15.392  22.022  0.00  0.00    -0.073 C 
ATOM     96  H24 non d ame     -28.861  14.654  22.820  0.00  0.00     0.028 H 
ATOM     97  H25 non d ame     -28.377  15.037  21.152  0.00  0.00     0.028 H 
ATOM     98  H26 non d ame     -28.503  16.336  22.362  0.00  0.00     0.028 H 
ENDBRANCH  93  95
BRANCH  93  99
ATOM     99  C19 non d ame     -30.659  15.296  20.156  0.00  0.00    -0.073 C 
ATOM    100  H27 non d ame     -31.730  15.282  19.950  0.00  0.00     0.028 H 
ATOM    101  H28 non d ame     -30.182  16.062  19.544  0.00  0.00     0.028 H 
ATOM    102  H29 non d ame     -30.231  14.323  19.917  0.00  0.00     0.028 H 
ENDBRANCH  93  99
ENDBRANCH  90  93
ENDBRANCH   1  90
TORSDOF 26
ENDMDL
MODEL 16
REMARK VINA RESULT:      -6.9      3.138      8.157
REMARK  26 active torsions:
REMARK  status: ('A' for Active; 'I' for Inactive)
REMARK    1  A    between atoms: C2_2  and  C3_3 
REMARK    2  A    between atoms: C4_6  and  C5_7 
REMARK       I    between atoms: C5_7  and  N2_9 
REMARK    3  A    between atoms: N2_9  and  C6_10 
REMARK    4  A    between atoms: C6_10  and  C7_11 
REMARK    5  A    between atoms: C6_10  and  C8_13 
REMARK       I    between atoms: C7_11  and  N3_14 
REMARK    6  A    between atoms: N3_14  and  C9_15 
REMARK    7  A    between atoms: C9_15  and  C10_16 
REMARK    8  A    between atoms: C9_15  and  C11_18 
REMARK       I    between atoms: C10_16  and  N4_21 
REMARK    9  A    between atoms: C11_18  and  C12_19 
REMARK   10  A    between atoms: C11_18  and  C13_20 
REMARK   11  A    between atoms: N4_21  and  C14_22 
REMARK   12  A    between atoms: C14_22  and  C15_23 
REMARK   13  A    between atoms: C14_22  and  C16_25 
REMARK       I    between atoms: C15_23  and  N6_40 
REMARK   14  A    between atoms: C16_25  and  C17_26 
REMARK   15  A    between atoms: C17_26  and  C18_27 
REMARK   16  A    between atoms: C17_26  and  C19_28 
REMARK   17  A    between atoms: C20_29  and  C21_30 
REMARK   18  A    between atoms: C20_29  and  C24_33 
REMARK   19  A    between atoms: C20_29  and  N6_40 
REMARK   20  A    between atoms: C21_30  and  C22_31 
REMARK   21  A    between atoms: C22_31  and  C23_32 
REMARK   22  A    between atoms: C23_32  and  O8_43 
REMARK   23  A    between atoms: C24_33  and  C25_34 
REMARK   24  A    between atoms: C28_38  and  O6_39 
REMARK   25  A    between atoms: C29_42  and  O8_43 
REMARK   26  A    between atoms: C29_42  and  C35_49 
ROOT
ATOM      1  C14 non d ame     -35.389   9.066  27.061  0.00  0.00     0.089 C 
ATOM      2  H20 non d ame     -35.483   8.439  27.948  0.00  0.00     0.087 H 
ENDROOT
BRANCH   1   3
ATOM      3  N4  non d ame     -34.313  10.014  27.307  0.00  0.00    -0.346 N 
ATOM      4  C10 non d ame     -33.485   9.918  28.564  0.00  0.00     0.241 C 
ATOM      5  O4  non d ame     -33.706   9.070  29.364  0.00  0.00    -0.271 OA
ATOM      6  H19 non d ame     -34.143  10.730  26.614  0.00  0.00     0.163 HD
BRANCH   4   7
ATOM      7  C9  non d ame     -32.372  10.904  28.799  0.00  0.00     0.092 C 
ATOM      8  H11 non d ame     -31.469  10.552  28.300  0.00  0.00     0.088 H 
BRANCH   7   9
ATOM      9  N3  non d ame     -32.725  12.193  28.197  0.00  0.00    -0.346 N 
ATOM     10  C7  non d ame     -31.913  12.739  27.137  0.00  0.00     0.240 C 
ATOM     11  O3  non d ame     -30.972  12.156  26.758  0.00  0.00    -0.271 OA
ATOM     12  H10 non d ame     -33.533  12.709  28.514  0.00  0.00     0.163 HD
BRANCH  10  13
ATOM     13  C6  non d ame     -32.292  14.113  26.501  0.00  0.00     0.086 C 
ATOM     14  H6  non d ame     -31.872  14.959  27.045  0.00  0.00     0.086 H 
BRANCH  13  15
ATOM     15  N2  non d ame     -31.750  14.175  25.154  0.00  0.00    -0.343 N 
ATOM     16  C5  non d ame     -31.132  15.415  24.681  0.00  0.00     0.273 C 
ATOM     17  O2  non d ame     -31.078  16.359  25.391  0.00  0.00    -0.266 OA
ATOM     18  H5  non d ame     -31.804  13.364  24.553  0.00  0.00     0.163 HD
BRANCH  16  19
ATOM     19  C4  non d ame     -30.554  15.494  23.259  0.00  0.00     0.154 A 
ATOM     20  C1  non d ame     -31.283  15.644  22.037  0.00  0.00    -0.017 A 
ATOM     21  C2  non d ame     -30.297  15.662  21.025  0.00  0.00     0.077 A 
ATOM     22  H1  non d ame     -32.362  15.728  21.904  0.00  0.00     0.091 H 
ATOM     23  O1  non d ame     -29.141  15.537  21.609  0.00  0.00    -0.218 OA
ATOM     24  N1  non d ame     -29.265  15.437  22.913  0.00  0.00    -0.123 NA
BRANCH  21  25
ATOM     25  C3  non d ame     -30.542  15.802  19.529  0.00  0.00    -0.029 C 
ATOM     26  H2  non d ame     -29.606  16.049  19.029  0.00  0.00     0.036 H 
ATOM     27  H3  non d ame     -30.928  14.862  19.135  0.00  0.00     0.036 H 
ATOM     28  H4  non d ame     -31.268  16.595  19.353  0.00  0.00     0.036 H 
ENDBRANCH  21  25
ENDBRANCH  16  19
ENDBRANCH  13  15
BRANCH  13  29
ATOM     29  C8  non d ame     -33.792  14.255  26.462  0.00  0.00    -0.049 C 
ATOM     30  H7  non d ame     -34.171  13.848  25.525  0.00  0.00     0.030 H 
ATOM     31  H8  non d ame     -34.230  13.711  27.298  0.00  0.00     0.030 H 
ATOM     32  H9  non d ame     -34.060  15.310  26.534  0.00  0.00     0.030 H 
ENDBRANCH  13  29
ENDBRANCH  10  13
ENDBRANCH   7   9
BRANCH   7  33
ATOM     33  C11 non d ame     -32.160  11.091  30.330  0.00  0.00    -0.033 C 
ATOM     34  H12 non d ame     -32.078  10.099  30.774  0.00  0.00     0.042 H 
BRANCH  33  35
ATOM     35  C12 non d ame     -30.831  11.852  30.631  0.00  0.00    -0.071 C 
ATOM     36  H13 non d ame     -30.740  12.013  31.706  0.00  0.00     0.028 H 
ATOM     37  H14 non d ame     -29.986  11.260  30.280  0.00  0.00     0.028 H 
ATOM     38  H15 non d ame     -30.839  12.814  30.119  0.00  0.00     0.028 H 
ENDBRANCH  33  35
BRANCH  33  39
ATOM     39  C13 non d ame     -33.385  11.812  30.980  0.00  0.00    -0.071 C 
ATOM     40  H16 non d ame     -33.328  11.718  32.065  0.00  0.00     0.028 H 
ATOM     41  H17 non d ame     -33.373  12.867  30.706  0.00  0.00     0.028 H 
ATOM     42  H18 non d ame     -34.307  11.355  30.623  0.00  0.00     0.028 H 
ENDBRANCH  33  39
ENDBRANCH   7  33
ENDBRANCH   4   7
ENDBRANCH   1   3
BRANCH   1  43
ATOM     43  C15 non d ame     -35.040   8.238  25.791  0.00  0.00     0.240 C 
ATOM     44  O5  non d ame     -35.902   7.676  25.196  0.00  0.00    -0.271 OA
ATOM     45  N6  non d ame     -33.631   8.153  25.312  0.00  0.00    -0.355 N 
ATOM     46  H46 non d ame     -32.891   8.630  25.806  0.00  0.00     0.162 HD
BRANCH  45  47
ATOM     47  C20 non d ame     -33.315   7.364  24.102  0.00  0.00     0.013 C 
ATOM     48  H30 non d ame     -34.239   6.907  23.748  0.00  0.00     0.072 H 
BRANCH  47  49
ATOM     49  C21 non d ame     -32.311   6.290  24.454  0.00  0.00    -0.038 C 
ATOM     50  H31 non d ame     -31.569   6.306  23.655  0.00  0.00     0.036 H 
ATOM     51  H32 non d ame     -32.010   6.494  25.482  0.00  0.00     0.036 H 
BRANCH  49  52
ATOM     52  C22 non d ame     -32.923   4.872  24.452  0.00  0.00     0.018 C 
ATOM     53  H33 non d ame     -33.788   4.925  23.791  0.00  0.00     0.048 H 
ATOM     54  H34 non d ame     -32.101   4.195  24.220  0.00  0.00     0.048 H 
BRANCH  52  55
ATOM     55  C23 non d ame     -33.470   4.424  25.836  0.00  0.00     0.259 C 
ATOM     56  O7  non d ame     -33.449   3.278  26.151  0.00  0.00    -0.265 OA
BRANCH  55  57
ATOM     57  O8  non d ame     -34.008   5.398  26.721  0.00  0.00    -0.317 OA
BRANCH  57  58
ATOM     58  C29 non d ame     -33.688   5.175  28.098  0.00  0.00     0.052 C 
ATOM     59  H47 non d ame     -33.387   4.130  28.164  0.00  0.00     0.082 H 
ATOM     60  H48 non d ame     -32.986   5.963  28.369  0.00  0.00     0.082 H 
BRANCH  58  61
ATOM     61  C35 non d ame     -34.986   5.366  28.928  0.00  0.00    -0.034 A 
ATOM     62  C30 non d ame     -36.228   5.162  28.336  0.00  0.00    -0.075 A 
ATOM     63  C31 non d ame     -37.393   5.334  29.082  0.00  0.00    -0.082 A 
ATOM     64  H49 non d ame     -36.289   4.867  27.289  0.00  0.00     0.084 H 
ATOM     65  C32 non d ame     -37.313   5.715  30.424  0.00  0.00    -0.083 A 
ATOM     66  H50 non d ame     -38.365   5.171  28.616  0.00  0.00     0.083 H 
ATOM     67  C33 non d ame     -36.071   5.922  31.009  0.00  0.00    -0.082 A 
ATOM     68  H51 non d ame     -38.219   5.851  31.014  0.00  0.00     0.083 H 
ATOM     69  C34 non d ame     -34.904   5.749  30.268  0.00  0.00    -0.075 A 
ATOM     70  H52 non d ame     -36.012   6.221  32.056  0.00  0.00     0.083 H 
ATOM     71  H53 non d ame     -33.932   5.912  30.735  0.00  0.00     0.084 H 
ENDBRANCH  58  61
ENDBRANCH  57  58
ENDBRANCH  55  57
ENDBRANCH  52  55
ENDBRANCH  49  52
ENDBRANCH  47  49
BRANCH  47  72
ATOM     72  C24 non d ame     -32.729   8.277  23.027  0.00  0.00    -0.039 C 
ATOM     73  H35 non d ame     -32.657   7.661  22.130  0.00  0.00     0.036 H 
ATOM     74  H36 non d ame     -33.358   9.167  23.028  0.00  0.00     0.036 H 
BRANCH  72  75
ATOM     75  C25 non d ame     -31.243   8.749  23.396  0.00  0.00    -0.001 C 
ATOM     76  C26 non d ame     -31.242  10.350  23.774  0.00  0.00    -0.035 C 
ATOM     77  C27 non d ame     -30.284  10.970  23.044  0.00  0.00     0.085 C 
ATOM     78  H38 non d ame     -32.165  10.815  23.432  0.00  0.00     0.036 H 
ATOM     79  H39 non d ame     -30.909  10.491  24.803  0.00  0.00     0.036 H 
ATOM     80  N5  non d ame     -29.855  10.003  21.967  0.00  0.00    -0.049 N 
ATOM     81  H40 non d ame     -30.779  11.822  22.580  0.00  0.00     0.075 H 
ATOM     82  H41 non d ame     -29.453  11.129  23.729  0.00  0.00     0.075 H 
ATOM     83  C28 non d ame     -30.434   8.561  22.408  0.00  0.00     0.193 C 
ATOM     84  H42 non d ame     -30.323  10.291  21.120  0.00  0.00     0.280 HD
ATOM     85  H43 non d ame     -28.846   9.968  22.000  0.00  0.00     0.280 HD
ATOM     86  H44 non d ame     -29.773   7.806  22.834  0.00  0.00     0.129 H 
ATOM     87  H37 non d ame     -30.758   8.073  24.101  0.00  0.00     0.046 H 
BRANCH  83  88
ATOM     88  O6  non d ame     -31.074   7.927  21.300  0.00  0.00    -0.369 OA
ATOM     89  H45 non d ame     -30.440   7.375  20.836  0.00  0.00     0.212 HD
ENDBRANCH  83  88
ENDBRANCH  72  75
ENDBRANCH  47  72
ENDBRANCH  45  47
ENDBRANCH   1  43
BRANCH   1  90
ATOM     90  C16 non d ame     -36.683   9.831  26.832  0.00  0.00    -0.035 C 
ATOM     91  H21 non d ame     -36.437  10.876  27.020  0.00  0.00     0.037 H 
ATOM     92  H22 non d ame     -37.031   9.522  25.846  0.00  0.00     0.037 H 
BRANCH  90  93
ATOM     93  C17 non d ame     -37.818   9.458  27.838  0.00  0.00    -0.059 C 
ATOM     94  H23 non d ame     -38.483  10.318  27.920  0.00  0.00     0.038 H 
BRANCH  93  95
ATOM     95  C18 non d ame     -38.668   8.244  27.344  0.00  0.00    -0.073 C 
ATOM     96  H24 non d ame     -38.819   7.547  28.167  0.00  0.00     0.028 H 
ATOM     97  H25 non d ame     -39.635   8.599  26.987  0.00  0.00     0.028 H 
ATOM     98  H26 non d ame     -38.144   7.741  26.532  0.00  0.00     0.028 H 
ENDBRANCH  93  95
BRANCH  93  99
ATOM     99  C19 non d ame     -37.246   9.191  29.233  0.00  0.00    -0.073 C 
ATOM    100  H27 non d ame     -38.033   8.803  29.880  0.00  0.00     0.028 H 
ATOM    101  H28 non d ame     -36.441   8.459  29.162  0.00  0.00     0.028 H 
ATOM    102  H29 non d ame     -36.856  10.119  29.650  0.00  0.00     0.028 H 
ENDBRANCH  93  99
ENDBRANCH  90  93
ENDBRANCH   1  90
TORSDOF 26
ENDMDL
MODEL 17
REMARK VINA RESULT:      -6.9      2.926      7.529
REMARK  26 active torsions:
REMARK  status: ('A' for Active; 'I' for Inactive)
REMARK    1  A    between atoms: C2_2  and  C3_3 
REMARK    2  A    between atoms: C4_6  and  C5_7 
REMARK       I    between atoms: C5_7  and  N2_9 
REMARK    3  A    between atoms: N2_9  and  C6_10 
REMARK    4  A    between atoms: C6_10  and  C7_11 
REMARK    5  A    between atoms: C6_10  and  C8_13 
REMARK       I    between atoms: C7_11  and  N3_14 
REMARK    6  A    between atoms: N3_14  and  C9_15 
REMARK    7  A    between atoms: C9_15  and  C10_16 
REMARK    8  A    between atoms: C9_15  and  C11_18 
REMARK       I    between atoms: C10_16  and  N4_21 
REMARK    9  A    between atoms: C11_18  and  C12_19 
REMARK   10  A    between atoms: C11_18  and  C13_20 
REMARK   11  A    between atoms: N4_21  and  C14_22 
REMARK   12  A    between atoms: C14_22  and  C15_23 
REMARK   13  A    between atoms: C14_22  and  C16_25 
REMARK       I    between atoms: C15_23  and  N6_40 
REMARK   14  A    between atoms: C16_25  and  C17_26 
REMARK   15  A    between atoms: C17_26  and  C18_27 
REMARK   16  A    between atoms: C17_26  and  C19_28 
REMARK   17  A    between atoms: C20_29  and  C21_30 
REMARK   18  A    between atoms: C20_29  and  C24_33 
REMARK   19  A    between atoms: C20_29  and  N6_40 
REMARK   20  A    between atoms: C21_30  and  C22_31 
REMARK   21  A    between atoms: C22_31  and  C23_32 
REMARK   22  A    between atoms: C23_32  and  O8_43 
REMARK   23  A    between atoms: C24_33  and  C25_34 
REMARK   24  A    between atoms: C28_38  and  O6_39 
REMARK   25  A    between atoms: C29_42  and  O8_43 
REMARK   26  A    between atoms: C29_42  and  C35_49 
ROOT
ATOM      1  C14 non d ame     -32.597  10.813  29.651  0.00  0.00     0.089 C 
ATOM      2  H20 non d ame     -31.745  10.157  29.470  0.00  0.00     0.087 H 
ENDROOT
BRANCH   1   3
ATOM      3  N4  non d ame     -33.218  11.089  28.363  0.00  0.00    -0.346 N 
ATOM      4  C10 non d ame     -32.528  10.689  27.084  0.00  0.00     0.241 C 
ATOM      5  O4  non d ame     -31.471  10.150  27.115  0.00  0.00    -0.271 OA
ATOM      6  H19 non d ame     -34.116  11.551  28.358  0.00  0.00     0.163 HD
BRANCH   4   7
ATOM      7  C9  non d ame     -33.187  10.977  25.761  0.00  0.00     0.092 C 
ATOM      8  H11 non d ame     -34.265  10.847  25.862  0.00  0.00     0.088 H 
BRANCH   7   9
ATOM      9  N3  non d ame     -32.952  12.376  25.391  0.00  0.00    -0.346 N 
ATOM     10  C7  non d ame     -33.743  13.422  25.991  0.00  0.00     0.240 C 
ATOM     11  O3  non d ame     -34.574  13.156  26.772  0.00  0.00    -0.271 OA
ATOM     12  H10 non d ame     -32.241  12.621  24.718  0.00  0.00     0.163 HD
BRANCH  10  13
ATOM     13  C6  non d ame     -33.490  14.909  25.591  0.00  0.00     0.086 C 
ATOM     14  H6  non d ame     -32.843  15.431  26.295  0.00  0.00     0.086 H 
BRANCH  13  15
ATOM     15  N2  non d ame     -32.817  14.943  24.303  0.00  0.00    -0.343 N 
ATOM     16  C5  non d ame     -31.549  15.664  24.171  0.00  0.00     0.273 C 
ATOM     17  O2  non d ame     -31.080  16.215  25.106  0.00  0.00    -0.266 OA
ATOM     18  H5  non d ame     -33.227  14.472  23.509  0.00  0.00     0.163 HD
BRANCH  16  19
ATOM     19  C4  non d ame     -30.826  15.707  22.816  0.00  0.00     0.154 A 
ATOM     20  C1  non d ame     -31.418  15.882  21.525  0.00  0.00    -0.017 A 
ATOM     21  C2  non d ame     -30.333  15.848  20.620  0.00  0.00     0.077 A 
ATOM     22  H1  non d ame     -32.472  16.013  21.282  0.00  0.00     0.091 H 
ATOM     23  O1  non d ame     -29.250  15.675  21.320  0.00  0.00    -0.218 OA
ATOM     24  N1  non d ame     -29.512  15.589  22.604  0.00  0.00    -0.123 NA
BRANCH  21  25
ATOM     25  C3  non d ame     -30.418  15.989  19.106  0.00  0.00    -0.029 C 
ATOM     26  H2  non d ame     -31.041  15.193  18.701  0.00  0.00     0.036 H 
ATOM     27  H3  non d ame     -30.854  16.955  18.856  0.00  0.00     0.036 H 
ATOM     28  H4  non d ame     -29.418  15.921  18.679  0.00  0.00     0.036 H 
ENDBRANCH  21  25
ENDBRANCH  16  19
ENDBRANCH  13  15
BRANCH  13  29
ATOM     29  C8  non d ame     -34.806  15.640  25.506  0.00  0.00    -0.049 C 
ATOM     30  H7  non d ame     -35.478  15.271  26.281  0.00  0.00     0.030 H 
ATOM     31  H8  non d ame     -34.639  16.707  25.649  0.00  0.00     0.030 H 
ATOM     32  H9  non d ame     -35.254  15.470  24.526  0.00  0.00     0.030 H 
ENDBRANCH  13  29
ENDBRANCH  10  13
ENDBRANCH   7   9
BRANCH   7  33
ATOM     33  C11 non d ame     -32.585  10.046  24.668  0.00  0.00    -0.033 C 
ATOM     34  H12 non d ame     -32.109   9.208  25.176  0.00  0.00     0.042 H 
BRANCH  33  35
ATOM     35  C12 non d ame     -33.698   9.463  23.741  0.00  0.00    -0.071 C 
ATOM     36  H13 non d ame     -34.114  10.262  23.127  0.00  0.00     0.028 H 
ATOM     37  H14 non d ame     -33.269   8.696  23.098  0.00  0.00     0.028 H 
ATOM     38  H15 non d ame     -34.487   9.026  24.353  0.00  0.00     0.028 H 
ENDBRANCH  33  35
BRANCH  33  39
ATOM     39  C13 non d ame     -31.491  10.793  23.838  0.00  0.00    -0.071 C 
ATOM     40  H16 non d ame     -30.505  10.429  24.127  0.00  0.00     0.028 H 
ATOM     41  H17 non d ame     -31.651  10.607  22.776  0.00  0.00     0.028 H 
ATOM     42  H18 non d ame     -31.555  11.863  24.032  0.00  0.00     0.028 H 
ENDBRANCH  33  39
ENDBRANCH   7  33
ENDBRANCH   4   7
ENDBRANCH   1   3
BRANCH   1  43
ATOM     43  C15 non d ame     -33.657  10.157  30.581  0.00  0.00     0.240 C 
ATOM     44  O5  non d ame     -34.044  10.742  31.540  0.00  0.00    -0.271 OA
ATOM     45  N6  non d ame     -34.195   8.802  30.272  0.00  0.00    -0.355 N 
ATOM     46  H46 non d ame     -33.877   8.297  29.458  0.00  0.00     0.162 HD
BRANCH  45  47
ATOM     47  C20 non d ame     -35.203   8.192  31.166  0.00  0.00     0.013 C 
ATOM     48  H30 non d ame     -35.132   8.684  32.136  0.00  0.00     0.072 H 
BRANCH  47  49
ATOM     49  C21 non d ame     -34.912   6.716  31.314  0.00  0.00    -0.038 C 
ATOM     50  H31 non d ame     -33.829   6.619  31.233  0.00  0.00     0.036 H 
ATOM     51  H32 non d ame     -35.420   6.406  32.227  0.00  0.00     0.036 H 
BRANCH  49  52
ATOM     52  C22 non d ame     -35.513   5.869  30.171  0.00  0.00     0.018 C 
ATOM     53  H33 non d ame     -35.775   4.911  30.619  0.00  0.00     0.048 H 
ATOM     54  H34 non d ame     -36.287   6.490  29.719  0.00  0.00     0.048 H 
BRANCH  52  55
ATOM     55  C23 non d ame     -34.505   5.547  29.033  0.00  0.00     0.259 C 
ATOM     56  O7  non d ame     -34.212   4.423  28.787  0.00  0.00    -0.265 OA
BRANCH  55  57
ATOM     57  O8  non d ame     -33.924   6.615  28.294  0.00  0.00    -0.317 OA
BRANCH  57  58
ATOM     58  C29 non d ame     -34.656   6.976  27.119  0.00  0.00     0.052 C 
ATOM     59  H47 non d ame     -35.575   6.392  27.154  0.00  0.00     0.082 H 
ATOM     60  H48 non d ame     -34.701   8.065  27.122  0.00  0.00     0.082 H 
BRANCH  58  61
ATOM     61  C35 non d ame     -33.832   6.523  25.884  0.00  0.00    -0.034 A 
ATOM     62  C30 non d ame     -32.444   6.611  25.902  0.00  0.00    -0.075 A 
ATOM     63  C31 non d ame     -31.704   6.205  24.793  0.00  0.00    -0.082 A 
ATOM     64  H49 non d ame     -31.935   7.000  26.785  0.00  0.00     0.084 H 
ATOM     65  C32 non d ame     -32.358   5.710  23.661  0.00  0.00    -0.083 A 
ATOM     66  H50 non d ame     -30.616   6.274  24.810  0.00  0.00     0.083 H 
ATOM     67  C33 non d ame     -33.743   5.627  23.647  0.00  0.00    -0.082 A 
ATOM     68  H51 non d ame     -31.787   5.389  22.790  0.00  0.00     0.083 H 
ATOM     69  C34 non d ame     -34.487   6.030  24.754  0.00  0.00    -0.075 A 
ATOM     70  H52 non d ame     -34.251   5.243  22.761  0.00  0.00     0.083 H 
ATOM     71  H53 non d ame     -35.575   5.961  24.735  0.00  0.00     0.084 H 
ENDBRANCH  58  61
ENDBRANCH  57  58
ENDBRANCH  55  57
ENDBRANCH  52  55
ENDBRANCH  49  52
ENDBRANCH  47  49
BRANCH  47  72
ATOM     72  C24 non d ame     -36.599   8.380  30.575  0.00  0.00    -0.039 C 
ATOM     73  H35 non d ame     -36.443   8.871  29.614  0.00  0.00     0.036 H 
ATOM     74  H36 non d ame     -37.066   7.396  30.615  0.00  0.00     0.036 H 
BRANCH  72  75
ATOM     75  C25 non d ame     -37.492   9.364  31.469  0.00  0.00    -0.001 C 
ATOM     76  C26 non d ame     -39.024   8.777  31.588  0.00  0.00    -0.035 C 
ATOM     77  C27 non d ame     -39.895   9.758  31.253  0.00  0.00     0.085 C 
ATOM     78  H38 non d ame     -39.192   8.015  30.827  0.00  0.00     0.036 H 
ATOM     79  H39 non d ame     -39.264   8.568  32.631  0.00  0.00     0.036 H 
ATOM     80  N5  non d ame     -39.092  10.858  30.602  0.00  0.00    -0.049 N 
ATOM     81  H40 non d ame     -40.560   9.316  30.511  0.00  0.00     0.075 H 
ATOM     82  H41 non d ame     -40.299  10.124  32.197  0.00  0.00     0.075 H 
ATOM     83  C28 non d ame     -37.547  10.546  30.951  0.00  0.00     0.193 C 
ATOM     84  H42 non d ame     -39.224  10.758  29.606  0.00  0.00     0.280 HD
ATOM     85  H43 non d ame     -39.359  11.717  31.063  0.00  0.00     0.280 HD
ATOM     86  H44 non d ame     -37.025  11.122  31.716  0.00  0.00     0.129 H 
ATOM     87  H37 non d ame     -36.995   9.645  32.398  0.00  0.00     0.046 H 
BRANCH  83  88
ATOM     88  O6  non d ame     -36.744  10.657  29.775  0.00  0.00    -0.369 OA
ATOM     89  H45 non d ame     -36.236  11.470  29.809  0.00  0.00     0.212 HD
ENDBRANCH  83  88
ENDBRANCH  72  75
ENDBRANCH  47  72
ENDBRANCH  45  47
ENDBRANCH   1  43
BRANCH   1  90
ATOM     90  C16 non d ame     -32.120  12.121  30.261  0.00  0.00    -0.035 C 
ATOM     91  H21 non d ame     -32.958  12.486  30.854  0.00  0.00     0.037 H 
ATOM     92  H22 non d ame     -31.172  11.885  30.745  0.00  0.00     0.037 H 
BRANCH  90  93
ATOM     93  C17 non d ame     -31.812  13.230  29.205  0.00  0.00    -0.059 C 
ATOM     94  H23 non d ame     -32.134  12.859  28.233  0.00  0.00     0.038 H 
BRANCH  93  95
ATOM     95  C18 non d ame     -32.594  14.552  29.494  0.00  0.00    -0.073 C 
ATOM     96  H24 non d ame     -33.062  14.491  30.476  0.00  0.00     0.028 H 
ATOM     97  H25 non d ame     -31.904  15.395  29.473  0.00  0.00     0.028 H 
ATOM     98  H26 non d ame     -33.363  14.692  28.734  0.00  0.00     0.028 H 
ENDBRANCH  93  95
BRANCH  93  99
ATOM     99  C19 non d ame     -30.307  13.497  29.116  0.00  0.00    -0.073 C 
ATOM    100  H27 non d ame     -29.761  12.623  29.472  0.00  0.00     0.028 H 
ATOM    101  H28 non d ame     -30.035  13.698  28.079  0.00  0.00     0.028 H 
ATOM    102  H29 non d ame     -30.054  14.360  29.731  0.00  0.00     0.028 H 
ENDBRANCH  93  99
ENDBRANCH  90  93
ENDBRANCH   1  90
TORSDOF 26
ENDMDL
MODEL 18
REMARK VINA RESULT:      -6.8      2.967      9.105
REMARK  26 active torsions:
REMARK  status: ('A' for Active; 'I' for Inactive)
REMARK    1  A    between atoms: C2_2  and  C3_3 
REMARK    2  A    between atoms: C4_6  and  C5_7 
REMARK       I    between atoms: C5_7  and  N2_9 
REMARK    3  A    between atoms: N2_9  and  C6_10 
REMARK    4  A    between atoms: C6_10  and  C7_11 
REMARK    5  A    between atoms: C6_10  and  C8_13 
REMARK       I    between atoms: C7_11  and  N3_14 
REMARK    6  A    between atoms: N3_14  and  C9_15 
REMARK    7  A    between atoms: C9_15  and  C10_16 
REMARK    8  A    between atoms: C9_15  and  C11_18 
REMARK       I    between atoms: C10_16  and  N4_21 
REMARK    9  A    between atoms: C11_18  and  C12_19 
REMARK   10  A    between atoms: C11_18  and  C13_20 
REMARK   11  A    between atoms: N4_21  and  C14_22 
REMARK   12  A    between atoms: C14_22  and  C15_23 
REMARK   13  A    between atoms: C14_22  and  C16_25 
REMARK       I    between atoms: C15_23  and  N6_40 
REMARK   14  A    between atoms: C16_25  and  C17_26 
REMARK   15  A    between atoms: C17_26  and  C18_27 
REMARK   16  A    between atoms: C17_26  and  C19_28 
REMARK   17  A    between atoms: C20_29  and  C21_30 
REMARK   18  A    between atoms: C20_29  and  C24_33 
REMARK   19  A    between atoms: C20_29  and  N6_40 
REMARK   20  A    between atoms: C21_30  and  C22_31 
REMARK   21  A    between atoms: C22_31  and  C23_32 
REMARK   22  A    between atoms: C23_32  and  O8_43 
REMARK   23  A    between atoms: C24_33  and  C25_34 
REMARK   24  A    between atoms: C28_38  and  O6_39 
REMARK   25  A    between atoms: C29_42  and  O8_43 
REMARK   26  A    between atoms: C29_42  and  C35_49 
ROOT
ATOM      1  C14 non d ame     -33.616   6.967  27.761  0.00  0.00     0.089 C 
ATOM      2  H20 non d ame     -33.049   6.576  28.606  0.00  0.00     0.087 H 
ENDROOT
BRANCH   1   3
ATOM      3  N4  non d ame     -34.087   8.295  28.126  0.00  0.00    -0.346 N 
ATOM      4  C10 non d ame     -34.715   8.536  29.476  0.00  0.00     0.241 C 
ATOM      5  O4  non d ame     -34.834   7.644  30.250  0.00  0.00    -0.271 OA
ATOM      6  H19 non d ame     -33.978   9.040  27.452  0.00  0.00     0.163 HD
BRANCH   4   7
ATOM      7  C9  non d ame     -35.191   9.918  29.840  0.00  0.00     0.092 C 
ATOM      8  H11 non d ame     -35.283   9.992  30.923  0.00  0.00     0.088 H 
BRANCH   7   9
ATOM      9  N3  non d ame     -34.192  10.905  29.421  0.00  0.00    -0.346 N 
ATOM     10  C7  non d ame     -33.118  11.267  30.314  0.00  0.00     0.240 C 
ATOM     11  O3  non d ame     -33.044  10.775  31.373  0.00  0.00    -0.271 OA
ATOM     12  H10 non d ame     -34.243  11.340  28.511  0.00  0.00     0.163 HD
BRANCH  10  13
ATOM     13  C6  non d ame     -32.059  12.321  29.864  0.00  0.00     0.086 C 
ATOM     14  H6  non d ame     -31.522  12.021  28.964  0.00  0.00     0.086 H 
BRANCH  13  15
ATOM     15  N2  non d ame     -32.739  13.566  29.547  0.00  0.00    -0.343 N 
ATOM     16  C5  non d ame     -32.074  14.554  28.694  0.00  0.00     0.273 C 
ATOM     17  O2  non d ame     -30.992  14.338  28.270  0.00  0.00    -0.266 OA
ATOM     18  H5  non d ame     -33.662  13.743  29.916  0.00  0.00     0.163 HD
BRANCH  16  19
ATOM     19  C4  non d ame     -32.781  15.874  28.350  0.00  0.00     0.154 A 
ATOM     20  C1  non d ame     -33.738  16.097  27.309  0.00  0.00    -0.017 A 
ATOM     21  C2  non d ame     -34.077  17.464  27.415  0.00  0.00     0.077 A 
ATOM     22  H1  non d ame     -34.126  15.377  26.589  0.00  0.00     0.091 H 
ATOM     23  O1  non d ame     -33.392  17.959  28.404  0.00  0.00    -0.218 OA
ATOM     24  N1  non d ame     -32.628  17.050  28.965  0.00  0.00    -0.123 NA
BRANCH  21  25
ATOM     25  C3  non d ame     -35.064  18.218  26.534  0.00  0.00    -0.029 C 
ATOM     26  H2  non d ame     -34.769  18.119  25.489  0.00  0.00     0.036 H 
ATOM     27  H3  non d ame     -36.063  17.803  26.670  0.00  0.00     0.036 H 
ATOM     28  H4  non d ame     -35.068  19.272  26.812  0.00  0.00     0.036 H 
ENDBRANCH  21  25
ENDBRANCH  16  19
ENDBRANCH  13  15
BRANCH  13  29
ATOM     29  C8  non d ame     -31.064  12.543  30.974  0.00  0.00    -0.049 C 
ATOM     30  H7  non d ame     -30.754  11.581  31.382  0.00  0.00     0.030 H 
ATOM     31  H8  non d ame     -30.194  13.069  30.581  0.00  0.00     0.030 H 
ATOM     32  H9  non d ame     -31.525  13.140  31.761  0.00  0.00     0.030 H 
ENDBRANCH  13  29
ENDBRANCH  10  13
ENDBRANCH   7   9
BRANCH   7  33
ATOM     33  C11 non d ame     -36.539  10.209  29.117  0.00  0.00    -0.033 C 
ATOM     34  H12 non d ame     -37.117  10.877  29.755  0.00  0.00     0.042 H 
BRANCH  33  35
ATOM     35  C12 non d ame     -36.308  10.942  27.758  0.00  0.00    -0.071 C 
ATOM     36  H13 non d ame     -37.012  11.769  27.668  0.00  0.00     0.028 H 
ATOM     37  H14 non d ame     -35.289  11.327  27.721  0.00  0.00     0.028 H 
ATOM     38  H15 non d ame     -36.463  10.242  26.937  0.00  0.00     0.028 H 
ENDBRANCH  33  35
BRANCH  33  39
ATOM     39  C13 non d ame     -37.363   8.896  28.919  0.00  0.00    -0.071 C 
ATOM     40  H16 non d ame     -38.414   9.146  28.775  0.00  0.00     0.028 H 
ATOM     41  H17 non d ame     -36.992   8.362  28.044  0.00  0.00     0.028 H 
ATOM     42  H18 non d ame     -37.257   8.265  29.801  0.00  0.00     0.028 H 
ENDBRANCH  33  39
ENDBRANCH   7  33
ENDBRANCH   4   7
ENDBRANCH   1   3
BRANCH   1  43
ATOM     43  C15 non d ame     -32.749   7.085  26.475  0.00  0.00     0.240 C 
ATOM     44  O5  non d ame     -31.877   6.302  26.276  0.00  0.00    -0.271 OA
ATOM     45  N6  non d ame     -33.011   8.170  25.487  0.00  0.00    -0.355 N 
ATOM     46  H46 non d ame     -33.752   8.838  25.642  0.00  0.00     0.162 HD
BRANCH  45  47
ATOM     47  C20 non d ame     -32.179   8.268  24.268  0.00  0.00     0.013 C 
ATOM     48  H30 non d ame     -31.162   7.977  24.532  0.00  0.00     0.072 H 
BRANCH  47  49
ATOM     49  C21 non d ame     -32.194   9.694  23.766  0.00  0.00    -0.038 C 
ATOM     50  H31 non d ame     -32.120   9.625  22.680  0.00  0.00     0.036 H 
ATOM     51  H32 non d ame     -33.068  10.158  24.224  0.00  0.00     0.036 H 
BRANCH  49  52
ATOM     52  C22 non d ame     -30.969  10.508  24.237  0.00  0.00     0.018 C 
ATOM     53  H33 non d ame     -30.295   9.787  24.698  0.00  0.00     0.048 H 
ATOM     54  H34 non d ame     -30.644  11.081  23.368  0.00  0.00     0.048 H 
BRANCH  52  55
ATOM     55  C23 non d ame     -31.298  11.553  25.339  0.00  0.00     0.259 C 
ATOM     56  O7  non d ame     -31.057  11.322  26.480  0.00  0.00    -0.265 OA
BRANCH  55  57
ATOM     57  O8  non d ame     -31.904  12.786  24.972  0.00  0.00    -0.317 OA
BRANCH  57  58
ATOM     58  C29 non d ame     -31.027  13.914  25.060  0.00  0.00     0.052 C 
ATOM     59  H47 non d ame     -31.581  14.675  25.609  0.00  0.00     0.082 H 
ATOM     60  H48 non d ame     -30.089  13.528  25.458  0.00  0.00     0.082 H 
BRANCH  58  61
ATOM     61  C35 non d ame     -30.772  14.435  23.620  0.00  0.00    -0.034 A 
ATOM     62  C30 non d ame     -29.952  13.718  22.755  0.00  0.00    -0.075 A 
ATOM     63  C31 non d ame     -29.722  14.185  21.462  0.00  0.00    -0.082 A 
ATOM     64  H49 non d ame     -29.489  12.789  23.090  0.00  0.00     0.084 H 
ATOM     65  C32 non d ame     -30.315  15.377  21.036  0.00  0.00    -0.083 A 
ATOM     66  H50 non d ame     -29.080  13.620  20.786  0.00  0.00     0.083 H 
ATOM     67  C33 non d ame     -31.130  16.091  21.904  0.00  0.00    -0.082 A 
ATOM     68  H51 non d ame     -30.141  15.750  20.026  0.00  0.00     0.083 H 
ATOM     69  C34 non d ame     -31.364  15.626  23.196  0.00  0.00    -0.075 A 
ATOM     70  H52 non d ame     -31.589  17.022  21.569  0.00  0.00     0.083 H 
ATOM     71  H53 non d ame     -32.006  16.192  23.872  0.00  0.00     0.084 H 
ENDBRANCH  58  61
ENDBRANCH  57  58
ENDBRANCH  55  57
ENDBRANCH  52  55
ENDBRANCH  49  52
ENDBRANCH  47  49
BRANCH  47  72
ATOM     72  C24 non d ame     -32.733   7.341  23.188  0.00  0.00    -0.039 C 
ATOM     73  H35 non d ame     -31.976   6.568  23.054  0.00  0.00     0.036 H 
ATOM     74  H36 non d ame     -33.734   7.071  23.523  0.00  0.00     0.036 H 
BRANCH  72  75
ATOM     75  C25 non d ame     -32.892   8.096  21.784  0.00  0.00    -0.001 C 
ATOM     76  C26 non d ame     -34.482   8.186  21.374  0.00  0.00    -0.035 C 
ATOM     77  C27 non d ame     -34.633   7.719  20.111  0.00  0.00     0.085 C 
ATOM     78  H38 non d ame     -35.063   7.487  21.975  0.00  0.00     0.036 H 
ATOM     79  H39 non d ame     -34.790   9.229  21.299  0.00  0.00     0.036 H 
ATOM     80  N5  non d ame     -33.349   7.017  19.742  0.00  0.00    -0.049 N 
ATOM     81  H40 non d ame     -35.437   6.985  20.167  0.00  0.00     0.075 H 
ATOM     82  H41 non d ame     -34.746   8.604  19.485  0.00  0.00     0.075 H 
ATOM     83  C28 non d ame     -32.261   7.473  20.845  0.00  0.00     0.193 C 
ATOM     84  H42 non d ame     -33.522   6.028  19.851  0.00  0.00     0.280 HD
ATOM     85  H43 non d ame     -33.070   7.385  18.844  0.00  0.00     0.280 HD
ATOM     86  H44 non d ame     -31.497   8.210  20.597  0.00  0.00     0.129 H 
ATOM     87  H37 non d ame     -32.316   9.021  21.745  0.00  0.00     0.046 H 
BRANCH  83  88
ATOM     88  O6  non d ame     -31.550   6.335  21.335  0.00  0.00    -0.369 OA
ATOM     89  H45 non d ame     -30.606   6.505  21.293  0.00  0.00     0.212 HD
ENDBRANCH  83  88
ENDBRANCH  72  75
ENDBRANCH  47  72
ENDBRANCH  45  47
ENDBRANCH   1  43
BRANCH   1  90
ATOM     90  C16 non d ame     -34.816   6.074  27.488  0.00  0.00    -0.035 C 
ATOM     91  H21 non d ame     -35.645   6.532  28.026  0.00  0.00     0.037 H 
ATOM     92  H22 non d ame     -34.860   5.973  26.404  0.00  0.00     0.037 H 
BRANCH  90  93
ATOM     93  C17 non d ame     -34.664   4.629  28.061  0.00  0.00    -0.059 C 
ATOM     94  H23 non d ame     -35.598   4.370  28.559  0.00  0.00     0.038 H 
BRANCH  93  95
ATOM     95  C18 non d ame     -34.416   3.572  26.936  0.00  0.00    -0.073 C 
ATOM     96  H24 non d ame     -34.136   2.621  27.387  0.00  0.00     0.028 H 
ATOM     97  H25 non d ame     -35.327   3.443  26.352  0.00  0.00     0.028 H 
ATOM     98  H26 non d ame     -33.613   3.917  26.285  0.00  0.00     0.028 H 
ENDBRANCH  93  95
BRANCH  93  99
ATOM     99  C19 non d ame     -33.555   4.572  29.115  0.00  0.00    -0.073 C 
ATOM    100  H27 non d ame     -32.760   5.268  28.844  0.00  0.00     0.028 H 
ATOM    101  H28 non d ame     -33.963   4.847  30.087  0.00  0.00     0.028 H 
ATOM    102  H29 non d ame     -33.152   3.561  29.164  0.00  0.00     0.028 H 
ENDBRANCH  93  99
ENDBRANCH  90  93
ENDBRANCH   1  90
TORSDOF 26
ENDMDL
MODEL 19
REMARK VINA RESULT:      -6.8      3.574      9.347
REMARK  26 active torsions:
REMARK  status: ('A' for Active; 'I' for Inactive)
REMARK    1  A    between atoms: C2_2  and  C3_3 
REMARK    2  A    between atoms: C4_6  and  C5_7 
REMARK       I    between atoms: C5_7  and  N2_9 
REMARK    3  A    between atoms: N2_9  and  C6_10 
REMARK    4  A    between atoms: C6_10  and  C7_11 
REMARK    5  A    between atoms: C6_10  and  C8_13 
REMARK       I    between atoms: C7_11  and  N3_14 
REMARK    6  A    between atoms: N3_14  and  C9_15 
REMARK    7  A    between atoms: C9_15  and  C10_16 
REMARK    8  A    between atoms: C9_15  and  C11_18 
REMARK       I    between atoms: C10_16  and  N4_21 
REMARK    9  A    between atoms: C11_18  and  C12_19 
REMARK   10  A    between atoms: C11_18  and  C13_20 
REMARK   11  A    between atoms: N4_21  and  C14_22 
REMARK   12  A    between atoms: C14_22  and  C15_23 
REMARK   13  A    between atoms: C14_22  and  C16_25 
REMARK       I    between atoms: C15_23  and  N6_40 
REMARK   14  A    between atoms: C16_25  and  C17_26 
REMARK   15  A    between atoms: C17_26  and  C18_27 
REMARK   16  A    between atoms: C17_26  and  C19_28 
REMARK   17  A    between atoms: C20_29  and  C21_30 
REMARK   18  A    between atoms: C20_29  and  C24_33 
REMARK   19  A    between atoms: C20_29  and  N6_40 
REMARK   20  A    between atoms: C21_30  and  C22_31 
REMARK   21  A    between atoms: C22_31  and  C23_32 
REMARK   22  A    between atoms: C23_32  and  O8_43 
REMARK   23  A    between atoms: C24_33  and  C25_34 
REMARK   24  A    between atoms: C28_38  and  O6_39 
REMARK   25  A    between atoms: C29_42  and  O8_43 
REMARK   26  A    between atoms: C29_42  and  C35_49 
ROOT
ATOM      1  C14 non d ame     -34.852   8.406  31.261  0.00  0.00     0.089 C 
ATOM      2  H20 non d ame     -34.434   8.474  32.266  0.00  0.00     0.087 H 
ENDROOT
BRANCH   1   3
ATOM      3  N4  non d ame     -33.958   9.125  30.366  0.00  0.00    -0.346 N 
ATOM      4  C10 non d ame     -33.429  10.485  30.748  0.00  0.00     0.241 C 
ATOM      5  O4  non d ame     -33.739  10.981  31.781  0.00  0.00    -0.271 OA
ATOM      6  H19 non d ame     -33.708   8.687  29.491  0.00  0.00     0.163 HD
BRANCH   4   7
ATOM      7  C9  non d ame     -32.501  11.212  29.812  0.00  0.00     0.092 C 
ATOM      8  H11 non d ame     -31.815  10.496  29.359  0.00  0.00     0.088 H 
BRANCH   7   9
ATOM      9  N3  non d ame     -33.277  11.817  28.725  0.00  0.00    -0.346 N 
ATOM     10  C7  non d ame     -33.304  11.192  27.425  0.00  0.00     0.240 C 
ATOM     11  O3  non d ame     -32.706  10.204  27.236  0.00  0.00    -0.271 OA
ATOM     12  H10 non d ame     -33.796  12.670  28.873  0.00  0.00     0.163 HD
BRANCH  10  13
ATOM     13  C6  non d ame     -34.130  11.842  26.272  0.00  0.00     0.086 C 
ATOM     14  H6  non d ame     -34.835  12.592  26.629  0.00  0.00     0.086 H 
BRANCH  13  15
ATOM     15  N2  non d ame     -33.220  12.525  25.367  0.00  0.00    -0.343 N 
ATOM     16  C5  non d ame     -32.744  13.869  25.701  0.00  0.00     0.273 C 
ATOM     17  O2  non d ame     -33.102  14.394  26.698  0.00  0.00    -0.266 OA
ATOM     18  H5  non d ame     -32.921  12.070  24.516  0.00  0.00     0.163 HD
BRANCH  16  19
ATOM     19  C4  non d ame     -31.780  14.602  24.755  0.00  0.00     0.154 A 
ATOM     20  C1  non d ame     -30.804  14.014  23.891  0.00  0.00    -0.017 A 
ATOM     21  C2  non d ame     -30.188  15.108  23.241  0.00  0.00     0.077 A 
ATOM     22  H1  non d ame     -30.576  12.957  23.755  0.00  0.00     0.091 H 
ATOM     23  O1  non d ame     -30.753  16.191  23.687  0.00  0.00    -0.218 OA
ATOM     24  N1  non d ame     -31.685  15.922  24.572  0.00  0.00    -0.123 NA
BRANCH  21  25
ATOM     25  C3  non d ame     -29.070  15.031  22.210  0.00  0.00    -0.029 C 
ATOM     26  H2  non d ame     -29.403  14.440  21.357  0.00  0.00     0.036 H 
ATOM     27  H3  non d ame     -28.814  16.036  21.877  0.00  0.00     0.036 H 
ATOM     28  H4  non d ame     -28.194  14.562  22.657  0.00  0.00     0.036 H 
ENDBRANCH  21  25
ENDBRANCH  16  19
ENDBRANCH  13  15
BRANCH  13  29
ATOM     29  C8  non d ame     -34.890  10.772  25.529  0.00  0.00    -0.049 C 
ATOM     30  H7  non d ame     -35.764  10.478  26.110  0.00  0.00     0.030 H 
ATOM     31  H8  non d ame     -35.210  11.159  24.562  0.00  0.00     0.030 H 
ATOM     32  H9  non d ame     -34.245   9.906  25.379  0.00  0.00     0.030 H 
ENDBRANCH  13  29
ENDBRANCH  10  13
ENDBRANCH   7   9
BRANCH   7  33
ATOM     33  C11 non d ame     -31.748  12.330  30.592  0.00  0.00    -0.033 C 
ATOM     34  H12 non d ame     -32.318  12.538  31.498  0.00  0.00     0.042 H 
BRANCH  33  35
ATOM     35  C12 non d ame     -30.326  11.859  31.030  0.00  0.00    -0.071 C 
ATOM     36  H13 non d ame     -29.806  11.430  30.173  0.00  0.00     0.028 H 
ATOM     37  H14 non d ame     -29.762  12.711  31.408  0.00  0.00     0.028 H 
ATOM     38  H15 non d ame     -30.418  11.107  31.813  0.00  0.00     0.028 H 
ENDBRANCH  33  35
BRANCH  33  39
ATOM     39  C13 non d ame     -31.676  13.646  29.753  0.00  0.00    -0.071 C 
ATOM     40  H16 non d ame     -32.296  13.544  28.862  0.00  0.00     0.028 H 
ATOM     41  H17 non d ame     -32.038  14.481  30.354  0.00  0.00     0.028 H 
ATOM     42  H18 non d ame     -30.643  13.833  29.459  0.00  0.00     0.028 H 
ENDBRANCH  33  39
ENDBRANCH   7  33
ENDBRANCH   4   7
ENDBRANCH   1   3
BRANCH   1  43
ATOM     43  C15 non d ame     -34.966   6.934  30.771  0.00  0.00     0.240 C 
ATOM     44  O5  non d ame     -35.450   6.111  31.478  0.00  0.00    -0.271 OA
ATOM     45  N6  non d ame     -34.480   6.553  29.414  0.00  0.00    -0.355 N 
ATOM     46  H46 non d ame     -34.072   7.244  28.802  0.00  0.00     0.162 HD
BRANCH  45  47
ATOM     47  C20 non d ame     -34.597   5.150  28.961  0.00  0.00     0.013 C 
ATOM     48  H30 non d ame     -34.931   4.551  29.808  0.00  0.00     0.072 H 
BRANCH  47  49
ATOM     49  C21 non d ame     -33.246   4.664  28.486  0.00  0.00    -0.038 C 
ATOM     50  H31 non d ame     -32.515   5.326  28.950  0.00  0.00     0.036 H 
ATOM     51  H32 non d ame     -33.227   3.595  28.699  0.00  0.00     0.036 H 
BRANCH  49  52
ATOM     52  C22 non d ame     -33.061   4.809  26.960  0.00  0.00     0.018 C 
ATOM     53  H33 non d ame     -32.482   3.940  26.649  0.00  0.00     0.048 H 
ATOM     54  H34 non d ame     -34.060   4.971  26.555  0.00  0.00     0.048 H 
BRANCH  52  55
ATOM     55  C23 non d ame     -32.224   6.051  26.546  0.00  0.00     0.259 C 
ATOM     56  O7  non d ame     -32.075   6.956  27.300  0.00  0.00    -0.265 OA
BRANCH  55  57
ATOM     57  O8  non d ame     -31.646   6.100  25.247  0.00  0.00    -0.317 OA
BRANCH  57  58
ATOM     58  C29 non d ame     -32.458   6.763  24.273  0.00  0.00     0.052 C 
ATOM     59  H47 non d ame     -32.649   6.023  23.496  0.00  0.00     0.082 H 
ATOM     60  H48 non d ame     -33.289   7.196  24.828  0.00  0.00     0.082 H 
BRANCH  58  61
ATOM     61  C35 non d ame     -31.623   7.917  23.659  0.00  0.00    -0.034 A 
ATOM     62  C30 non d ame     -31.899   9.237  24.003  0.00  0.00    -0.075 A 
ATOM     63  C31 non d ame     -31.149  10.274  23.451  0.00  0.00    -0.082 A 
ATOM     64  H49 non d ame     -32.703   9.458  24.705  0.00  0.00     0.084 H 
ATOM     65  C32 non d ame     -30.120   9.988  22.549  0.00  0.00    -0.083 A 
ATOM     66  H50 non d ame     -31.367  11.307  23.724  0.00  0.00     0.083 H 
ATOM     67  C33 non d ame     -29.850   8.670  22.206  0.00  0.00    -0.082 A 
ATOM     68  H51 non d ame     -29.528  10.793  22.113  0.00  0.00     0.083 H 
ATOM     69  C34 non d ame     -30.596   7.630  22.757  0.00  0.00    -0.075 A 
ATOM     70  H52 non d ame     -29.049   8.451  21.500  0.00  0.00     0.083 H 
ATOM     71  H53 non d ame     -30.378   6.598  22.483  0.00  0.00     0.084 H 
ENDBRANCH  58  61
ENDBRANCH  57  58
ENDBRANCH  55  57
ENDBRANCH  52  55
ENDBRANCH  49  52
ENDBRANCH  47  49
BRANCH  47  72
ATOM     72  C24 non d ame     -35.604   5.058  27.817  0.00  0.00    -0.039 C 
ATOM     73  H35 non d ame     -35.139   5.579  26.979  0.00  0.00     0.036 H 
ATOM     74  H36 non d ame     -35.851   4.000  27.731  0.00  0.00     0.036 H 
BRANCH  72  75
ATOM     75  C25 non d ame     -36.963   5.834  28.159  0.00  0.00    -0.001 C 
ATOM     76  C26 non d ame     -37.866   4.946  29.208  0.00  0.00    -0.035 C 
ATOM     77  C27 non d ame     -39.121   4.830  28.712  0.00  0.00     0.085 C 
ATOM     78  H38 non d ame     -37.506   3.918  29.233  0.00  0.00     0.036 H 
ATOM     79  H39 non d ame     -38.010   5.496  30.137  0.00  0.00     0.036 H 
ATOM     80  N5  non d ame     -39.070   5.277  27.271  0.00  0.00    -0.049 N 
ATOM     81  H40 non d ame     -39.350   3.764  28.746  0.00  0.00     0.075 H 
ATOM     82  H41 non d ame     -39.726   5.535  29.281  0.00  0.00     0.075 H 
ATOM     83  C28 non d ame     -37.662   6.046  27.094  0.00  0.00     0.193 C 
ATOM     84  H42 non d ame     -39.050   4.436  26.711  0.00  0.00     0.280 HD
ATOM     85  H43 non d ame     -39.819   5.944  27.152  0.00  0.00     0.280 HD
ATOM     86  H44 non d ame     -37.627   7.135  27.048  0.00  0.00     0.129 H 
ATOM     87  H37 non d ame     -36.788   6.879  28.418  0.00  0.00     0.046 H 
BRANCH  83  88
ATOM     88  O6  non d ame     -36.996   5.592  25.914  0.00  0.00    -0.369 OA
ATOM     89  H45 non d ame     -36.252   5.037  26.160  0.00  0.00     0.212 HD
ENDBRANCH  83  88
ENDBRANCH  72  75
ENDBRANCH  47  72
ENDBRANCH  45  47
ENDBRANCH   1  43
BRANCH   1  90
ATOM     90  C16 non d ame     -36.222   9.064  31.228  0.00  0.00    -0.035 C 
ATOM     91  H21 non d ame     -36.835   8.490  31.923  0.00  0.00     0.037 H 
ATOM     92  H22 non d ame     -36.039  10.123  31.410  0.00  0.00     0.037 H 
BRANCH  90  93
ATOM     93  C17 non d ame     -36.929   8.970  29.838  0.00  0.00    -0.059 C 
ATOM     94  H23 non d ame     -36.428   8.190  29.265  0.00  0.00     0.038 H 
BRANCH  93  95
ATOM     95  C18 non d ame     -38.435   8.575  29.968  0.00  0.00    -0.073 C 
ATOM     96  H24 non d ame     -38.512   7.556  30.347  0.00  0.00     0.028 H 
ATOM     97  H25 non d ame     -38.932   9.257  30.657  0.00  0.00     0.028 H 
ATOM     98  H26 non d ame     -38.912   8.636  28.990  0.00  0.00     0.028 H 
ENDBRANCH  93  95
BRANCH  93  99
ATOM     99  C19 non d ame     -36.774  10.278  29.058  0.00  0.00    -0.073 C 
ATOM    100  H27 non d ame     -37.711  10.512  28.552  0.00  0.00     0.028 H 
ATOM    101  H28 non d ame     -36.522  11.085  29.746  0.00  0.00     0.028 H 
ATOM    102  H29 non d ame     -35.980  10.169  28.320  0.00  0.00     0.028 H 
ENDBRANCH  93  99
ENDBRANCH  90  93
ENDBRANCH   1  90
TORSDOF 26
ENDMDL
MODEL 20
REMARK VINA RESULT:      -6.7      2.846      7.687
REMARK  26 active torsions:
REMARK  status: ('A' for Active; 'I' for Inactive)
REMARK    1  A    between atoms: C2_2  and  C3_3 
REMARK    2  A    between atoms: C4_6  and  C5_7 
REMARK       I    between atoms: C5_7  and  N2_9 
REMARK    3  A    between atoms: N2_9  and  C6_10 
REMARK    4  A    between atoms: C6_10  and  C7_11 
REMARK    5  A    between atoms: C6_10  and  C8_13 
REMARK       I    between atoms: C7_11  and  N3_14 
REMARK    6  A    between atoms: N3_14  and  C9_15 
REMARK    7  A    between atoms: C9_15  and  C10_16 
REMARK    8  A    between atoms: C9_15  and  C11_18 
REMARK       I    between atoms: C10_16  and  N4_21 
REMARK    9  A    between atoms: C11_18  and  C12_19 
REMARK   10  A    between atoms: C11_18  and  C13_20 
REMARK   11  A    between atoms: N4_21  and  C14_22 
REMARK   12  A    between atoms: C14_22  and  C15_23 
REMARK   13  A    between atoms: C14_22  and  C16_25 
REMARK       I    between atoms: C15_23  and  N6_40 
REMARK   14  A    between atoms: C16_25  and  C17_26 
REMARK   15  A    between atoms: C17_26  and  C18_27 
REMARK   16  A    between atoms: C17_26  and  C19_28 
REMARK   17  A    between atoms: C20_29  and  C21_30 
REMARK   18  A    between atoms: C20_29  and  C24_33 
REMARK   19  A    between atoms: C20_29  and  N6_40 
REMARK   20  A    between atoms: C21_30  and  C22_31 
REMARK   21  A    between atoms: C22_31  and  C23_32 
REMARK   22  A    between atoms: C23_32  and  O8_43 
REMARK   23  A    between atoms: C24_33  and  C25_34 
REMARK   24  A    between atoms: C28_38  and  O6_39 
REMARK   25  A    between atoms: C29_42  and  O8_43 
REMARK   26  A    between atoms: C29_42  and  C35_49 
ROOT
ATOM      1  C14 non d ame     -33.024   9.177  27.451  0.00  0.00     0.089 C 
ATOM      2  H20 non d ame     -32.025   8.743  27.405  0.00  0.00     0.087 H 
ENDROOT
BRANCH   1   3
ATOM      3  N4  non d ame     -32.877  10.578  27.818  0.00  0.00    -0.346 N 
ATOM      4  C10 non d ame     -31.765  11.407  27.227  0.00  0.00     0.241 C 
ATOM      5  O4  non d ame     -30.998  10.924  26.460  0.00  0.00    -0.271 OA
ATOM      6  H19 non d ame     -33.538  10.969  28.474  0.00  0.00     0.163 HD
BRANCH   4   7
ATOM      7  C9  non d ame     -31.631  12.856  27.614  0.00  0.00     0.092 C 
ATOM      8  H11 non d ame     -30.592  13.165  27.494  0.00  0.00     0.088 H 
BRANCH   7   9
ATOM      9  N3  non d ame     -32.435  13.681  26.708  0.00  0.00    -0.346 N 
ATOM     10  C7  non d ame     -31.801  14.384  25.619  0.00  0.00     0.240 C 
ATOM     11  O3  non d ame     -30.645  14.298  25.460  0.00  0.00    -0.271 OA
ATOM     12  H10 non d ame     -33.434  13.766  26.834  0.00  0.00     0.163 HD
BRANCH  10  13
ATOM     13  C6  non d ame     -32.663  15.263  24.660  0.00  0.00     0.086 C 
ATOM     14  H6  non d ame     -33.557  14.749  24.306  0.00  0.00     0.086 H 
BRANCH  13  15
ATOM     15  N2  non d ame     -33.117  16.441  25.380  0.00  0.00    -0.343 N 
ATOM     16  C5  non d ame     -34.381  16.392  26.118  0.00  0.00     0.273 C 
ATOM     17  O2  non d ame     -35.026  15.401  26.125  0.00  0.00    -0.266 OA
ATOM     18  H5  non d ame     -32.561  17.284  25.367  0.00  0.00     0.163 HD
BRANCH  16  19
ATOM     19  C4  non d ame     -34.873  17.629  26.885  0.00  0.00     0.154 A 
ATOM     20  C1  non d ame     -35.601  18.742  26.356  0.00  0.00    -0.017 A 
ATOM     21  C2  non d ame     -35.808  19.599  27.460  0.00  0.00     0.077 A 
ATOM     22  H1  non d ame     -35.929  18.902  25.329  0.00  0.00     0.091 H 
ATOM     23  O1  non d ame     -35.260  19.035  28.496  0.00  0.00    -0.218 OA
ATOM     24  N1  non d ame     -34.708  17.885  28.186  0.00  0.00    -0.123 NA
BRANCH  21  25
ATOM     25  C3  non d ame     -36.538  20.935  27.439  0.00  0.00    -0.029 C 
ATOM     26  H2  non d ame     -37.541  20.795  27.037  0.00  0.00     0.036 H 
ATOM     27  H3  non d ame     -36.605  21.328  28.453  0.00  0.00     0.036 H 
ATOM     28  H4  non d ame     -35.990  21.639  26.813  0.00  0.00     0.036 H 
ENDBRANCH  21  25
ENDBRANCH  16  19
ENDBRANCH  13  15
BRANCH  13  29
ATOM     29  C8  non d ame     -31.834  15.673  23.469  0.00  0.00    -0.049 C 
ATOM     30  H7  non d ame     -30.791  15.776  23.771  0.00  0.00     0.030 H 
ATOM     31  H8  non d ame     -31.914  14.913  22.692  0.00  0.00     0.030 H 
ATOM     32  H9  non d ame     -32.196  16.626  23.085  0.00  0.00     0.030 H 
ENDBRANCH  13  29
ENDBRANCH  10  13
ENDBRANCH   7   9
BRANCH   7  33
ATOM     33  C11 non d ame     -32.134  13.052  29.074  0.00  0.00    -0.033 C 
ATOM     34  H12 non d ame     -32.948  12.345  29.239  0.00  0.00     0.042 H 
BRANCH  33  35
ATOM     35  C12 non d ame     -31.014  12.727  30.111  0.00  0.00    -0.071 C 
ATOM     36  H13 non d ame     -31.044  11.666  30.358  0.00  0.00     0.028 H 
ATOM     37  H14 non d ame     -30.042  12.974  29.684  0.00  0.00     0.028 H 
ATOM     38  H15 non d ame     -31.174  13.315  31.015  0.00  0.00     0.028 H 
ENDBRANCH  33  35
BRANCH  33  39
ATOM     39  C13 non d ame     -32.698  14.494  29.283  0.00  0.00    -0.071 C 
ATOM     40  H16 non d ame     -33.045  14.604  30.310  0.00  0.00     0.028 H 
ATOM     41  H17 non d ame     -31.912  15.224  29.084  0.00  0.00     0.028 H 
ATOM     42  H18 non d ame     -33.529  14.662  28.598  0.00  0.00     0.028 H 
ENDBRANCH  33  39
ENDBRANCH   7  33
ENDBRANCH   4   7
ENDBRANCH   1   3
BRANCH   1  43
ATOM     43  C15 non d ame     -33.761   9.098  26.083  0.00  0.00     0.240 C 
ATOM     44  O5  non d ame     -34.764   9.714  25.916  0.00  0.00    -0.271 OA
ATOM     45  N6  non d ame     -33.212   8.262  24.978  0.00  0.00    -0.355 N 
ATOM     46  H46 non d ame     -32.358   7.739  25.106  0.00  0.00     0.162 HD
BRANCH  45  47
ATOM     47  C20 non d ame     -33.924   8.199  23.683  0.00  0.00     0.013 C 
ATOM     48  H30 non d ame     -34.815   8.822  23.759  0.00  0.00     0.072 H 
BRANCH  47  49
ATOM     49  C21 non d ame     -34.318   6.767  23.399  0.00  0.00    -0.038 C 
ATOM     50  H31 non d ame     -35.337   6.662  23.772  0.00  0.00     0.036 H 
ATOM     51  H32 non d ame     -34.105   6.608  22.342  0.00  0.00     0.036 H 
BRANCH  49  52
ATOM     52  C22 non d ame     -33.461   5.744  24.176  0.00  0.00     0.018 C 
ATOM     53  H33 non d ame     -33.200   4.970  23.455  0.00  0.00     0.048 H 
ATOM     54  H34 non d ame     -32.675   6.325  24.660  0.00  0.00     0.048 H 
BRANCH  52  55
ATOM     55  C23 non d ame     -34.228   5.024  25.319  0.00  0.00     0.259 C 
ATOM     56  O7  non d ame     -34.795   4.001  25.114  0.00  0.00    -0.265 OA
BRANCH  55  57
ATOM     57  O8  non d ame     -34.257   5.610  26.615  0.00  0.00    -0.317 OA
BRANCH  57  58
ATOM     58  C29 non d ame     -34.122   4.667  27.683  0.00  0.00     0.052 C 
ATOM     59  H47 non d ame     -34.508   3.725  27.295  0.00  0.00     0.082 H 
ATOM     60  H48 non d ame     -33.085   4.738  28.010  0.00  0.00     0.082 H 
BRANCH  58  61
ATOM     61  C35 non d ame     -35.036   5.130  28.848  0.00  0.00    -0.034 A 
ATOM     62  C30 non d ame     -36.372   5.436  28.607  0.00  0.00    -0.075 A 
ATOM     63  C31 non d ame     -37.193   5.852  29.653  0.00  0.00    -0.082 A 
ATOM     64  H49 non d ame     -36.775   5.351  27.597  0.00  0.00     0.084 H 
ATOM     65  C32 non d ame     -36.674   5.964  30.946  0.00  0.00    -0.083 A 
ATOM     66  H50 non d ame     -38.240   6.089  29.461  0.00  0.00     0.083 H 
ATOM     67  C33 non d ame     -35.340   5.661  31.182  0.00  0.00    -0.082 A 
ATOM     68  H51 non d ame     -37.310   6.288  31.770  0.00  0.00     0.083 H 
ATOM     69  C34 non d ame     -34.516   5.243  30.139  0.00  0.00    -0.075 A 
ATOM     70  H52 non d ame     -34.937   5.751  32.191  0.00  0.00     0.083 H 
ATOM     71  H53 non d ame     -33.469   5.005  30.332  0.00  0.00     0.084 H 
ENDBRANCH  58  61
ENDBRANCH  57  58
ENDBRANCH  55  57
ENDBRANCH  52  55
ENDBRANCH  49  52
ENDBRANCH  47  49
BRANCH  47  72
ATOM     72  C24 non d ame     -33.013   8.709  22.568  0.00  0.00    -0.039 C 
ATOM     73  H35 non d ame     -33.162   8.021  21.735  0.00  0.00     0.036 H 
ATOM     74  H36 non d ame     -33.258   9.764  22.453  0.00  0.00     0.036 H 
BRANCH  72  75
ATOM     75  C25 non d ame     -31.467   8.624  22.979  0.00  0.00    -0.001 C 
ATOM     76  C26 non d ame     -30.832  10.137  23.082  0.00  0.00    -0.035 C 
ATOM     77  C27 non d ame     -29.697  10.185  22.343  0.00  0.00     0.085 C 
ATOM     78  H38 non d ame     -31.488  10.853  22.587  0.00  0.00     0.036 H 
ATOM     79  H39 non d ame     -30.483  10.328  24.097  0.00  0.00     0.036 H 
ATOM     80  N5  non d ame     -29.677   8.943  21.485  0.00  0.00    -0.049 N 
ATOM     81  H40 non d ame     -29.805  11.059  21.701  0.00  0.00     0.075 H 
ATOM     82  H41 non d ame     -28.880  10.134  23.061  0.00  0.00     0.075 H 
ATOM     83  C28 non d ame     -30.788   7.953  22.110  0.00  0.00     0.193 C 
ATOM     84  H42 non d ame     -29.980   9.226  20.564  0.00  0.00     0.280 HD
ATOM     85  H43 non d ame     -28.766   8.525  21.610  0.00  0.00     0.280 HD
ATOM     86  H44 non d ame     -30.489   7.095  22.712  0.00  0.00     0.129 H 
ATOM     87  H37 non d ame     -31.301   7.958  23.826  0.00  0.00     0.046 H 
BRANCH  83  88
ATOM     88  O6  non d ame     -31.615   7.422  21.073  0.00  0.00    -0.369 OA
ATOM     89  H45 non d ame     -31.163   7.504  20.230  0.00  0.00     0.212 HD
ENDBRANCH  83  88
ENDBRANCH  72  75
ENDBRANCH  47  72
ENDBRANCH  45  47
ENDBRANCH   1  43
BRANCH   1  90
ATOM     90  C16 non d ame     -33.846   8.469  28.516  0.00  0.00    -0.035 C 
ATOM     91  H21 non d ame     -34.587   7.887  27.969  0.00  0.00     0.037 H 
ATOM     92  H22 non d ame     -33.119   7.965  29.153  0.00  0.00     0.037 H 
BRANCH  90  93
ATOM     93  C17 non d ame     -34.644   9.441  29.441  0.00  0.00    -0.059 C 
ATOM     94  H23 non d ame     -34.293  10.453  29.239  0.00  0.00     0.038 H 
BRANCH  93  95
ATOM     95  C18 non d ame     -36.179   9.404  29.150  0.00  0.00    -0.073 C 
ATOM     96  H24 non d ame     -36.609   8.502  29.586  0.00  0.00     0.028 H 
ATOM     97  H25 non d ame     -36.654  10.281  29.590  0.00  0.00     0.028 H 
ATOM     98  H26 non d ame     -36.345   9.402  28.073  0.00  0.00     0.028 H 
ENDBRANCH  93  95
BRANCH  93  99
ATOM     99  C19 non d ame     -34.362   9.147  30.916  0.00  0.00    -0.073 C 
ATOM    100  H27 non d ame     -35.208   8.613  31.349  0.00  0.00     0.028 H 
ATOM    101  H28 non d ame     -33.465   8.534  31.000  0.00  0.00     0.028 H 
ATOM    102  H29 non d ame     -34.212  10.085  31.451  0.00  0.00     0.028 H 
ENDBRANCH  93  99
ENDBRANCH  90  93
ENDBRANCH   1  90
TORSDOF 26
ENDMDL
