MODEL 1
REMARK VINA RESULT:      -7.3      0.000      0.000
REMARK  26 active torsions:
REMARK  status: ('A' for Active; 'I' for Inactive)
REMARK    1  A    between atoms: C2_2  and  C3_3 
REMARK    2  A    between atoms: C4_6  and  C5_7 
REMARK       I    between atoms: C5_7  and  N2_9 
REMARK    3  A    between atoms: N2_9  and  C6_10 
REMARK    4  A    between atoms: C6_10  and  C7_11 
REMARK    5  A    between atoms: C6_10  and  C8_13 
REMARK       I    between atoms: C7_11  and  N3_14 
REMARK    6  A    between atoms: N3_14  and  C9_15 
REMARK    7  A    between atoms: C9_15  and  C10_16 
REMARK    8  A    between atoms: C9_15  and  C11_18 
REMARK       I    between atoms: C10_16  and  N4_21 
REMARK    9  A    between atoms: C11_18  and  C12_19 
REMARK   10  A    between atoms: C11_18  and  C13_20 
REMARK   11  A    between atoms: N4_21  and  C14_22 
REMARK   12  A    between atoms: C14_22  and  C15_23 
REMARK   13  A    between atoms: C14_22  and  C16_25 
REMARK       I    between atoms: C15_23  and  N6_40 
REMARK   14  A    between atoms: C16_25  and  C17_26 
REMARK   15  A    between atoms: C17_26  and  C18_27 
REMARK   16  A    between atoms: C17_26  and  C19_28 
REMARK   17  A    between atoms: C20_29  and  C21_30 
REMARK   18  A    between atoms: C20_29  and  C24_33 
REMARK   19  A    between atoms: C20_29  and  N6_40 
REMARK   20  A    between atoms: C21_30  and  C22_31 
REMARK   21  A    between atoms: C22_31  and  C23_32 
REMARK   22  A    between atoms: C23_32  and  O8_43 
REMARK   23  A    between atoms: C24_33  and  C25_34 
REMARK   24  A    between atoms: C28_38  and  O6_39 
REMARK   25  A    between atoms: C29_42  and  O8_43 
REMARK   26  A    between atoms: C29_42  and  C35_49 
ROOT
ATOM      1  C14 non d ame     -30.791  14.533  23.560  0.00  0.00     0.089 C 
ATOM      2  H20 non d ame     -29.704  14.583  23.489  0.00  0.00     0.087 H 
ENDROOT
BRANCH   1   3
ATOM      3  N4  non d ame     -31.147  13.158  23.877  0.00  0.00    -0.346 N 
ATOM      4  C10 non d ame     -30.462  12.012  23.175  0.00  0.00     0.241 C 
ATOM      5  O4  non d ame     -29.630  12.222  22.356  0.00  0.00    -0.271 OA
ATOM      6  H19 non d ame     -31.860  13.001  24.576  0.00  0.00     0.163 HD
BRANCH   4   7
ATOM      7  C9  non d ame     -30.840  10.596  23.520  0.00  0.00     0.092 C 
ATOM      8  H11 non d ame     -30.381  10.324  24.471  0.00  0.00     0.088 H 
BRANCH   7   9
ATOM      9  N3  non d ame     -32.292  10.506  23.698  0.00  0.00    -0.346 N 
ATOM     10  C7  non d ame     -32.837  10.075  24.962  0.00  0.00     0.240 C 
ATOM     11  O3  non d ame     -32.122   9.795  25.846  0.00  0.00    -0.271 OA
ATOM     12  H10 non d ame     -32.921  10.742  22.945  0.00  0.00     0.163 HD
BRANCH  10  13
ATOM     13  C6  non d ame     -34.384   9.978  25.145  0.00  0.00     0.086 C 
ATOM     14  H6  non d ame     -34.669   9.546  26.104  0.00  0.00     0.086 H 
BRANCH  13  15
ATOM     15  N2  non d ame     -34.948  11.317  25.108  0.00  0.00    -0.343 N 
ATOM     16  C5  non d ame     -36.064  11.654  25.993  0.00  0.00     0.273 C 
ATOM     17  O2  non d ame     -36.504  10.840  26.729  0.00  0.00    -0.266 OA
ATOM     18  H5  non d ame     -34.568  12.006  24.474  0.00  0.00     0.163 HD
BRANCH  16  19
ATOM     19  C4  non d ame     -36.669  13.067  25.966  0.00  0.00     0.154 A 
ATOM     20  C1  non d ame     -36.719  13.964  24.853  0.00  0.00    -0.017 A 
ATOM     21  C2  non d ame     -37.371  15.118  25.345  0.00  0.00     0.077 A 
ATOM     22  H1  non d ame     -36.342  13.804  23.843  0.00  0.00     0.091 H 
ATOM     23  O1  non d ame     -37.657  14.897  26.595  0.00  0.00    -0.218 OA
ATOM     24  N1  non d ame     -37.258  13.707  26.980  0.00  0.00    -0.123 NA
BRANCH  21  25
ATOM     25  C3  non d ame     -37.680  16.384  24.558  0.00  0.00    -0.029 C 
ATOM     26  H2  non d ame     -38.585  16.845  24.951  0.00  0.00     0.036 H 
ATOM     27  H3  non d ame     -36.848  17.081  24.651  0.00  0.00     0.036 H 
ATOM     28  H4  non d ame     -37.827  16.132  23.508  0.00  0.00     0.036 H 
ENDBRANCH  21  25
ENDBRANCH  16  19
ENDBRANCH  13  15
BRANCH  13  29
ATOM     29  C8  non d ame     -34.972   9.139  24.038  0.00  0.00    -0.049 C 
ATOM     30  H7  non d ame     -36.057   9.238  24.045  0.00  0.00     0.030 H 
ATOM     31  H8  non d ame     -34.583   9.480  23.079  0.00  0.00     0.030 H 
ATOM     32  H9  non d ame     -34.701   8.094  24.191  0.00  0.00     0.030 H 
ENDBRANCH  13  29
ENDBRANCH  10  13
ENDBRANCH   7   9
BRANCH   7  33
ATOM     33  C11 non d ame     -30.401   9.647  22.366  0.00  0.00    -0.033 C 
ATOM     34  H12 non d ame     -30.211  10.264  21.488  0.00  0.00     0.042 H 
BRANCH  33  35
ATOM     35  C12 non d ame     -29.074   8.904  22.714  0.00  0.00    -0.071 C 
ATOM     36  H13 non d ame     -29.195   8.365  23.654  0.00  0.00     0.028 H 
ATOM     37  H14 non d ame     -28.833   8.199  21.919  0.00  0.00     0.028 H 
ATOM     38  H15 non d ame     -28.267   9.630  22.813  0.00  0.00     0.028 H 
ENDBRANCH  33  35
BRANCH  33  39
ATOM     39  C13 non d ame     -31.539   8.637  22.010  0.00  0.00    -0.071 C 
ATOM     40  H16 non d ame     -31.321   7.670  22.463  0.00  0.00     0.028 H 
ATOM     41  H17 non d ame     -32.490   9.011  22.391  0.00  0.00     0.028 H 
ATOM     42  H18 non d ame     -31.601   8.526  20.927  0.00  0.00     0.028 H 
ENDBRANCH  33  39
ENDBRANCH   7  33
ENDBRANCH   4   7
ENDBRANCH   1   3
BRANCH   1  43
ATOM     43  C15 non d ame     -31.349  15.460  24.678  0.00  0.00     0.240 C 
ATOM     44  O5  non d ame     -30.618  16.202  25.250  0.00  0.00    -0.271 OA
ATOM     45  N6  non d ame     -32.797  15.427  25.030  0.00  0.00    -0.355 N 
ATOM     46  H46 non d ame     -33.429  14.804  24.548  0.00  0.00     0.162 HD
BRANCH  45  47
ATOM     47  C20 non d ame     -33.313  16.316  26.094  0.00  0.00     0.013 C 
ATOM     48  H30 non d ame     -32.464  16.834  26.539  0.00  0.00     0.072 H 
BRANCH  47  49
ATOM     49  C21 non d ame     -34.017  15.484  27.142  0.00  0.00    -0.038 C 
ATOM     50  H31 non d ame     -35.083  15.595  26.940  0.00  0.00     0.036 H 
ATOM     51  H32 non d ame     -33.553  14.498  27.095  0.00  0.00     0.036 H 
BRANCH  49  52
ATOM     52  C22 non d ame     -33.788  16.007  28.576  0.00  0.00     0.018 C 
ATOM     53  H33 non d ame     -34.024  17.070  28.544  0.00  0.00     0.048 H 
ATOM     54  H34 non d ame     -34.355  15.342  29.228  0.00  0.00     0.048 H 
BRANCH  52  55
ATOM     55  C23 non d ame     -32.310  15.912  29.049  0.00  0.00     0.259 C 
ATOM     56  O7  non d ame     -31.883  16.678  29.851  0.00  0.00    -0.265 OA
BRANCH  55  57
ATOM     57  O8  non d ame     -31.467  14.905  28.502  0.00  0.00    -0.317 OA
BRANCH  57  58
ATOM     58  C29 non d ame     -30.923  14.009  29.475  0.00  0.00     0.052 C 
ATOM     59  H47 non d ame     -29.978  13.661  29.059  0.00  0.00     0.082 H 
ATOM     60  H48 non d ame     -30.935  14.555  30.418  0.00  0.00     0.082 H 
BRANCH  58  61
ATOM     61  C35 non d ame     -31.883  12.796  29.598  0.00  0.00    -0.034 A 
ATOM     62  C30 non d ame     -32.043  12.156  30.823  0.00  0.00    -0.075 A 
ATOM     63  C31 non d ame     -32.905  11.066  30.933  0.00  0.00    -0.082 A 
ATOM     64  H49 non d ame     -31.494  12.508  31.696  0.00  0.00     0.084 H 
ATOM     65  C32 non d ame     -33.606  10.614  29.812  0.00  0.00    -0.083 A 
ATOM     66  H50 non d ame     -33.030  10.567  31.895  0.00  0.00     0.083 H 
ATOM     67  C33 non d ame     -33.440  11.254  28.591  0.00  0.00    -0.082 A 
ATOM     68  H51 non d ame     -34.282   9.763  29.890  0.00  0.00     0.083 H 
ATOM     69  C34 non d ame     -32.582  12.345  28.476  0.00  0.00    -0.075 A 
ATOM     70  H52 non d ame     -33.987  10.897  27.718  0.00  0.00     0.083 H 
ATOM     71  H53 non d ame     -32.457  12.843  27.514  0.00  0.00     0.084 H 
ENDBRANCH  58  61
ENDBRANCH  57  58
ENDBRANCH  55  57
ENDBRANCH  52  55
ENDBRANCH  49  52
ENDBRANCH  47  49
BRANCH  47  72
ATOM     72  C24 non d ame     -34.295  17.321  25.496  0.00  0.00    -0.039 C 
ATOM     73  H35 non d ame     -34.211  17.202  24.416  0.00  0.00     0.036 H 
ATOM     74  H36 non d ame     -35.246  17.128  25.993  0.00  0.00     0.036 H 
BRANCH  72  75
ATOM     75  C25 non d ame     -33.880  18.830  25.839  0.00  0.00    -0.001 C 
ATOM     76  C26 non d ame     -32.479  18.844  26.700  0.00  0.00    -0.035 C 
ATOM     77  C27 non d ame     -32.657  19.599  27.811  0.00  0.00     0.085 C 
ATOM     78  H38 non d ame     -32.275  17.850  27.097  0.00  0.00     0.036 H 
ATOM     79  H39 non d ame     -31.707  19.381  26.149  0.00  0.00     0.036 H 
ATOM     80  N5  non d ame     -34.142  19.831  27.954  0.00  0.00    -0.049 N 
ATOM     81  H40 non d ame     -32.312  18.981  28.640  0.00  0.00     0.075 H 
ATOM     82  H41 non d ame     -32.168  20.549  27.599  0.00  0.00     0.075 H 
ATOM     83  C28 non d ame     -34.794  19.420  26.535  0.00  0.00     0.193 C 
ATOM     84  H42 non d ame     -34.467  19.183  28.657  0.00  0.00     0.280 HD
ATOM     85  H43 non d ame     -34.264  20.825  28.088  0.00  0.00     0.280 HD
ATOM     86  H44 non d ame     -35.116  20.187  25.831  0.00  0.00     0.129 H 
ATOM     87  H37 non d ame     -33.933  19.481  24.966  0.00  0.00     0.046 H 
BRANCH  83  88
ATOM     88  O6  non d ame     -35.936  18.586  26.741  0.00  0.00    -0.369 OA
ATOM     89  H45 non d ame     -36.459  18.933  27.468  0.00  0.00     0.212 HD
ENDBRANCH  83  88
ENDBRANCH  72  75
ENDBRANCH  47  72
ENDBRANCH  45  47
ENDBRANCH   1  43
BRANCH   1  90
ATOM     90  C16 non d ame     -31.412  14.911  22.225  0.00  0.00    -0.035 C 
ATOM     91  H21 non d ame     -31.555  13.969  21.697  0.00  0.00     0.037 H 
ATOM     92  H22 non d ame     -32.272  15.533  22.473  0.00  0.00     0.037 H 
BRANCH  90  93
ATOM     93  C17 non d ame     -30.480  15.784  21.325  0.00  0.00    -0.059 C 
ATOM     94  H23 non d ame     -30.782  16.824  21.448  0.00  0.00     0.038 H 
BRANCH  93  95
ATOM     95  C18 non d ame     -28.980  15.670  21.746  0.00  0.00    -0.073 C 
ATOM     96  H24 non d ame     -28.522  14.823  21.235  0.00  0.00     0.028 H 
ATOM     97  H25 non d ame     -28.455  16.585  21.472  0.00  0.00     0.028 H 
ATOM     98  H26 non d ame     -28.915  15.522  22.824  0.00  0.00     0.028 H 
ENDBRANCH  93  95
BRANCH  93  99
ATOM     99  C19 non d ame     -30.660  15.429  19.847  0.00  0.00    -0.073 C 
ATOM    100  H27 non d ame     -31.714  15.507  19.580  0.00  0.00     0.028 H 
ATOM    101  H28 non d ame     -30.079  16.119  19.234  0.00  0.00     0.028 H 
ATOM    102  H29 non d ame     -30.314  14.411  19.673  0.00  0.00     0.028 H 
ENDBRANCH  93  99
ENDBRANCH  90  93
ENDBRANCH   1  90
TORSDOF 26
ENDMDL
MODEL 2
REMARK VINA RESULT:      -7.1      1.429      2.117
REMARK  26 active torsions:
REMARK  status: ('A' for Active; 'I' for Inactive)
REMARK    1  A    between atoms: C2_2  and  C3_3 
REMARK    2  A    between atoms: C4_6  and  C5_7 
REMARK       I    between atoms: C5_7  and  N2_9 
REMARK    3  A    between atoms: N2_9  and  C6_10 
REMARK    4  A    between atoms: C6_10  and  C7_11 
REMARK    5  A    between atoms: C6_10  and  C8_13 
REMARK       I    between atoms: C7_11  and  N3_14 
REMARK    6  A    between atoms: N3_14  and  C9_15 
REMARK    7  A    between atoms: C9_15  and  C10_16 
REMARK    8  A    between atoms: C9_15  and  C11_18 
REMARK       I    between atoms: C10_16  and  N4_21 
REMARK    9  A    between atoms: C11_18  and  C12_19 
REMARK   10  A    between atoms: C11_18  and  C13_20 
REMARK   11  A    between atoms: N4_21  and  C14_22 
REMARK   12  A    between atoms: C14_22  and  C15_23 
REMARK   13  A    between atoms: C14_22  and  C16_25 
REMARK       I    between atoms: C15_23  and  N6_40 
REMARK   14  A    between atoms: C16_25  and  C17_26 
REMARK   15  A    between atoms: C17_26  and  C18_27 
REMARK   16  A    between atoms: C17_26  and  C19_28 
REMARK   17  A    between atoms: C20_29  and  C21_30 
REMARK   18  A    between atoms: C20_29  and  C24_33 
REMARK   19  A    between atoms: C20_29  and  N6_40 
REMARK   20  A    between atoms: C21_30  and  C22_31 
REMARK   21  A    between atoms: C22_31  and  C23_32 
REMARK   22  A    between atoms: C23_32  and  O8_43 
REMARK   23  A    between atoms: C24_33  and  C25_34 
REMARK   24  A    between atoms: C28_38  and  O6_39 
REMARK   25  A    between atoms: C29_42  and  O8_43 
REMARK   26  A    between atoms: C29_42  and  C35_49 
ROOT
ATOM      1  C14 non d ame     -30.707  14.322  23.767  0.00  0.00     0.089 C 
ATOM      2  H20 non d ame     -29.630  14.340  23.599  0.00  0.00     0.087 H 
ENDROOT
BRANCH   1   3
ATOM      3  N4  non d ame     -31.089  12.940  24.017  0.00  0.00    -0.346 N 
ATOM      4  C10 non d ame     -30.468  11.822  23.218  0.00  0.00     0.241 C 
ATOM      5  O4  non d ame     -29.666  12.059  22.376  0.00  0.00    -0.271 OA
ATOM      6  H19 non d ame     -31.775  12.759  24.736  0.00  0.00     0.163 HD
BRANCH   4   7
ATOM      7  C9  non d ame     -30.871  10.397  23.494  0.00  0.00     0.092 C 
ATOM      8  H11 non d ame     -30.434  10.078  24.441  0.00  0.00     0.088 H 
BRANCH   7   9
ATOM      9  N3  non d ame     -32.327  10.319  23.641  0.00  0.00    -0.346 N 
ATOM     10  C7  non d ame     -32.908  10.066  24.936  0.00  0.00     0.240 C 
ATOM     11  O3  non d ame     -32.219   9.920  25.871  0.00  0.00    -0.271 OA
ATOM     12  H10 non d ame     -32.935  10.441  22.843  0.00  0.00     0.163 HD
BRANCH  10  13
ATOM     13  C6  non d ame     -34.459   9.982  25.086  0.00  0.00     0.086 C 
ATOM     14  H6  non d ame     -34.769   9.573  26.047  0.00  0.00     0.086 H 
BRANCH  13  15
ATOM     15  N2  non d ame     -35.014  11.323  25.006  0.00  0.00    -0.343 N 
ATOM     16  C5  non d ame     -35.491  11.979  26.225  0.00  0.00     0.273 C 
ATOM     17  O2  non d ame     -35.427  11.419  27.264  0.00  0.00    -0.266 OA
ATOM     18  H5  non d ame     -35.067  11.794  24.114  0.00  0.00     0.163 HD
BRANCH  16  19
ATOM     19  C4  non d ame     -36.079  13.398  26.157  0.00  0.00     0.154 A 
ATOM     20  C1  non d ame     -35.805  14.400  25.172  0.00  0.00    -0.017 A 
ATOM     21  C2  non d ame     -36.589  15.511  25.557  0.00  0.00     0.077 A 
ATOM     22  H1  non d ame     -35.141  14.332  24.311  0.00  0.00     0.091 H 
ATOM     23  O1  non d ame     -37.233  15.175  26.636  0.00  0.00    -0.218 OA
ATOM     24  N1  non d ame     -36.952  13.947  27.006  0.00  0.00    -0.123 NA
BRANCH  21  25
ATOM     25  C3  non d ame     -36.665  16.852  24.840  0.00  0.00    -0.029 C 
ATOM     26  H2  non d ame     -37.672  17.258  24.935  0.00  0.00     0.036 H 
ATOM     27  H3  non d ame     -35.951  17.544  25.288  0.00  0.00     0.036 H 
ATOM     28  H4  non d ame     -36.426  16.715  23.786  0.00  0.00     0.036 H 
ENDBRANCH  21  25
ENDBRANCH  16  19
ENDBRANCH  13  15
BRANCH  13  29
ATOM     29  C8  non d ame     -35.027   9.122  23.985  0.00  0.00    -0.049 C 
ATOM     30  H7  non d ame     -35.500   9.757  23.235  0.00  0.00     0.030 H 
ATOM     31  H8  non d ame     -34.224   8.549  23.521  0.00  0.00     0.030 H 
ATOM     32  H9  non d ame     -35.767   8.439  24.402  0.00  0.00     0.030 H 
ENDBRANCH  13  29
ENDBRANCH  10  13
ENDBRANCH   7   9
BRANCH   7  33
ATOM     33  C11 non d ame     -30.423   9.492  22.309  0.00  0.00    -0.033 C 
ATOM     34  H12 non d ame     -30.255  10.139  21.447  0.00  0.00     0.042 H 
BRANCH  33  35
ATOM     35  C12 non d ame     -29.076   8.769  22.622  0.00  0.00    -0.071 C 
ATOM     36  H13 non d ame     -29.134   7.733  22.290  0.00  0.00     0.028 H 
ATOM     37  H14 non d ame     -28.263   9.273  22.100  0.00  0.00     0.028 H 
ATOM     38  H15 non d ame     -28.891   8.796  23.696  0.00  0.00     0.028 H 
ENDBRANCH  33  35
BRANCH  33  39
ATOM     39  C13 non d ame     -31.541   8.468  21.933  0.00  0.00    -0.071 C 
ATOM     40  H16 non d ame     -31.695   7.778  22.762  0.00  0.00     0.028 H 
ATOM     41  H17 non d ame     -32.469   9.002  21.727  0.00  0.00     0.028 H 
ATOM     42  H18 non d ame     -31.240   7.911  21.046  0.00  0.00     0.028 H 
ENDBRANCH  33  39
ENDBRANCH   7  33
ENDBRANCH   4   7
ENDBRANCH   1   3
BRANCH   1  43
ATOM     43  C15 non d ame     -31.124  15.181  24.995  0.00  0.00     0.240 C 
ATOM     44  O5  non d ame     -30.761  16.309  25.078  0.00  0.00    -0.271 OA
ATOM     45  N6  non d ame     -31.984  14.598  26.065  0.00  0.00    -0.355 N 
ATOM     46  H46 non d ame     -32.302  13.642  26.004  0.00  0.00     0.162 HD
BRANCH  45  47
ATOM     47  C20 non d ame     -32.372  15.428  27.226  0.00  0.00     0.013 C 
ATOM     48  H30 non d ame     -31.464  15.845  27.659  0.00  0.00     0.072 H 
BRANCH  47  49
ATOM     49  C21 non d ame     -33.081  14.563  28.244  0.00  0.00    -0.038 C 
ATOM     50  H31 non d ame     -33.748  15.233  28.787  0.00  0.00     0.036 H 
ATOM     51  H32 non d ame     -33.490  13.723  27.682  0.00  0.00     0.036 H 
BRANCH  49  52
ATOM     52  C22 non d ame     -32.119  13.961  29.291  0.00  0.00     0.018 C 
ATOM     53  H33 non d ame     -31.214  14.566  29.244  0.00  0.00     0.048 H 
ATOM     54  H34 non d ame     -32.690  13.906  30.219  0.00  0.00     0.048 H 
BRANCH  52  55
ATOM     55  C23 non d ame     -31.677  12.506  28.973  0.00  0.00     0.259 C 
ATOM     56  O7  non d ame     -30.990  12.277  28.031  0.00  0.00    -0.265 OA
BRANCH  55  57
ATOM     57  O8  non d ame     -32.115  11.445  29.814  0.00  0.00    -0.317 OA
BRANCH  57  58
ATOM     58  C29 non d ame     -32.937  11.869  30.905  0.00  0.00     0.052 C 
ATOM     59  H47 non d ame     -32.261  12.002  31.749  0.00  0.00     0.082 H 
ATOM     60  H48 non d ame     -33.513  12.714  30.529  0.00  0.00     0.082 H 
BRANCH  58  61
ATOM     61  C35 non d ame     -33.919  10.715  31.240  0.00  0.00    -0.034 A 
ATOM     62  C30 non d ame     -33.964   9.581  30.434  0.00  0.00    -0.075 A 
ATOM     63  C31 non d ame     -34.846   8.545  30.735  0.00  0.00    -0.082 A 
ATOM     64  H49 non d ame     -33.307   9.505  29.567  0.00  0.00     0.084 H 
ATOM     65  C32 non d ame     -35.689   8.646  31.845  0.00  0.00    -0.083 A 
ATOM     66  H50 non d ame     -34.877   7.657  30.103  0.00  0.00     0.083 H 
ATOM     67  C33 non d ame     -35.643   9.780  32.644  0.00  0.00    -0.082 A 
ATOM     68  H51 non d ame     -36.381   7.840  32.088  0.00  0.00     0.083 H 
ATOM     69  C34 non d ame     -34.761  10.818  32.349  0.00  0.00    -0.075 A 
ATOM     70  H52 non d ame     -36.304   9.857  33.509  0.00  0.00     0.083 H 
ATOM     71  H53 non d ame     -34.731  11.705  32.982  0.00  0.00     0.084 H 
ENDBRANCH  58  61
ENDBRANCH  57  58
ENDBRANCH  55  57
ENDBRANCH  52  55
ENDBRANCH  49  52
ENDBRANCH  47  49
BRANCH  47  72
ATOM     72  C24 non d ame     -33.306  16.548  26.770  0.00  0.00    -0.039 C 
ATOM     73  H35 non d ame     -32.774  17.061  25.969  0.00  0.00     0.036 H 
ATOM     74  H36 non d ame     -34.261  16.065  26.567  0.00  0.00     0.036 H 
BRANCH  72  75
ATOM     75  C25 non d ame     -33.556  17.620  27.934  0.00  0.00    -0.001 C 
ATOM     76  C26 non d ame     -35.159  17.979  28.029  0.00  0.00    -0.035 C 
ATOM     77  C27 non d ame     -35.307  19.325  27.999  0.00  0.00     0.085 C 
ATOM     78  H38 non d ame     -35.671  17.645  27.127  0.00  0.00     0.036 H 
ATOM     79  H39 non d ame     -35.546  17.702  29.010  0.00  0.00     0.036 H 
ATOM     80  N5  non d ame     -33.984  19.905  27.563  0.00  0.00    -0.049 N 
ATOM     81  H40 non d ame     -36.052  19.518  27.227  0.00  0.00     0.075 H 
ATOM     82  H41 non d ame     -35.502  19.619  29.030  0.00  0.00     0.075 H 
ATOM     83  C28 non d ame     -32.906  18.713  27.711  0.00  0.00     0.193 C 
ATOM     84  H42 non d ame     -34.080  20.133  26.583  0.00  0.00     0.280 HD
ATOM     85  H43 non d ame     -33.757  20.630  28.229  0.00  0.00     0.280 HD
ATOM     86  H44 non d ame     -32.205  18.701  28.546  0.00  0.00     0.129 H 
ATOM     87  H37 non d ame     -33.053  17.349  28.862  0.00  0.00     0.046 H 
BRANCH  83  88
ATOM     88  O6  non d ame     -32.099  18.629  26.534  0.00  0.00    -0.369 OA
ATOM     89  H45 non d ame     -31.684  19.479  26.370  0.00  0.00     0.212 HD
ENDBRANCH  83  88
ENDBRANCH  72  75
ENDBRANCH  47  72
ENDBRANCH  45  47
ENDBRANCH   1  43
BRANCH   1  90
ATOM     90  C16 non d ame     -31.431  14.819  22.526  0.00  0.00    -0.035 C 
ATOM     91  H21 non d ame     -31.719  13.921  21.980  0.00  0.00     0.037 H 
ATOM     92  H22 non d ame     -32.197  15.503  22.893  0.00  0.00     0.037 H 
BRANCH  90  93
ATOM     93  C17 non d ame     -30.524  15.649  21.562  0.00  0.00    -0.059 C 
ATOM     94  H23 non d ame     -30.816  16.695  21.652  0.00  0.00     0.038 H 
BRANCH  93  95
ATOM     95  C18 non d ame     -29.011  15.543  21.940  0.00  0.00    -0.073 C 
ATOM     96  H24 non d ame     -28.910  15.481  23.023  0.00  0.00     0.028 H 
ATOM     97  H25 non d ame     -28.585  14.650  21.484  0.00  0.00     0.028 H 
ATOM     98  H26 non d ame     -28.484  16.424  21.575  0.00  0.00     0.028 H 
ENDBRANCH  93  95
BRANCH  93  99
ATOM     99  C19 non d ame     -30.752  15.236  20.106  0.00  0.00    -0.073 C 
ATOM    100  H27 non d ame     -30.538  14.173  19.992  0.00  0.00     0.028 H 
ATOM    101  H28 non d ame     -31.790  15.428  19.832  0.00  0.00     0.028 H 
ATOM    102  H29 non d ame     -30.093  15.811  19.457  0.00  0.00     0.028 H 
ENDBRANCH  93  99
ENDBRANCH  90  93
ENDBRANCH   1  90
TORSDOF 26
ENDMDL
MODEL 3
REMARK VINA RESULT:      -7.1      2.987      6.584
REMARK  26 active torsions:
REMARK  status: ('A' for Active; 'I' for Inactive)
REMARK    1  A    between atoms: C2_2  and  C3_3 
REMARK    2  A    between atoms: C4_6  and  C5_7 
REMARK       I    between atoms: C5_7  and  N2_9 
REMARK    3  A    between atoms: N2_9  and  C6_10 
REMARK    4  A    between atoms: C6_10  and  C7_11 
REMARK    5  A    between atoms: C6_10  and  C8_13 
REMARK       I    between atoms: C7_11  and  N3_14 
REMARK    6  A    between atoms: N3_14  and  C9_15 
REMARK    7  A    between atoms: C9_15  and  C10_16 
REMARK    8  A    between atoms: C9_15  and  C11_18 
REMARK       I    between atoms: C10_16  and  N4_21 
REMARK    9  A    between atoms: C11_18  and  C12_19 
REMARK   10  A    between atoms: C11_18  and  C13_20 
REMARK   11  A    between atoms: N4_21  and  C14_22 
REMARK   12  A    between atoms: C14_22  and  C15_23 
REMARK   13  A    between atoms: C14_22  and  C16_25 
REMARK       I    between atoms: C15_23  and  N6_40 
REMARK   14  A    between atoms: C16_25  and  C17_26 
REMARK   15  A    between atoms: C17_26  and  C18_27 
REMARK   16  A    between atoms: C17_26  and  C19_28 
REMARK   17  A    between atoms: C20_29  and  C21_30 
REMARK   18  A    between atoms: C20_29  and  C24_33 
REMARK   19  A    between atoms: C20_29  and  N6_40 
REMARK   20  A    between atoms: C21_30  and  C22_31 
REMARK   21  A    between atoms: C22_31  and  C23_32 
REMARK   22  A    between atoms: C23_32  and  O8_43 
REMARK   23  A    between atoms: C24_33  and  C25_34 
REMARK   24  A    between atoms: C28_38  and  O6_39 
REMARK   25  A    between atoms: C29_42  and  O8_43 
REMARK   26  A    between atoms: C29_42  and  C35_49 
ROOT
ATOM      1  C14 non d ame     -31.098  13.971  24.111  0.00  0.00     0.089 C 
ATOM      2  H20 non d ame     -30.103  13.904  24.553  0.00  0.00     0.087 H 
ENDROOT
BRANCH   1   3
ATOM      3  N4  non d ame     -31.664  12.631  24.101  0.00  0.00    -0.346 N 
ATOM      4  C10 non d ame     -31.551  11.747  25.318  0.00  0.00     0.241 C 
ATOM      5  O4  non d ame     -30.997  12.136  26.293  0.00  0.00    -0.271 OA
ATOM      6  H19 non d ame     -32.130  12.318  23.261  0.00  0.00     0.163 HD
BRANCH   4   7
ATOM      7  C9  non d ame     -32.149  10.365  25.293  0.00  0.00     0.092 C 
ATOM      8  H11 non d ame     -33.040  10.371  24.665  0.00  0.00     0.088 H 
BRANCH   7   9
ATOM      9  N3  non d ame     -31.196   9.432  24.683  0.00  0.00    -0.346 N 
ATOM     10  C7  non d ame     -31.308   9.101  23.283  0.00  0.00     0.240 C 
ATOM     11  O3  non d ame     -32.158   9.575  22.634  0.00  0.00    -0.271 OA
ATOM     12  H10 non d ame     -30.458   9.014  25.231  0.00  0.00     0.163 HD
BRANCH  10  13
ATOM     13  C6  non d ame     -30.293   8.105  22.641  0.00  0.00     0.086 C 
ATOM     14  H6  non d ame     -29.996   7.308  23.322  0.00  0.00     0.086 H 
BRANCH  13  15
ATOM     15  N2  non d ame     -30.922   7.463  21.498  0.00  0.00    -0.343 N 
ATOM     16  C5  non d ame     -31.683   6.227  21.694  0.00  0.00     0.273 C 
ATOM     17  O2  non d ame     -31.781   5.756  22.774  0.00  0.00    -0.266 OA
ATOM     18  H5  non d ame     -30.831   7.871  20.579  0.00  0.00     0.163 HD
BRANCH  16  19
ATOM     19  C4  non d ame     -32.354   5.539  20.496  0.00  0.00     0.154 A 
ATOM     20  C1  non d ame     -32.390   4.136  20.213  0.00  0.00    -0.017 A 
ATOM     21  C2  non d ame     -33.122   4.027  19.009  0.00  0.00     0.077 A 
ATOM     22  H1  non d ame     -31.952   3.323  20.791  0.00  0.00     0.091 H 
ATOM     23  O1  non d ame     -33.464   5.230  18.653  0.00  0.00    -0.218 OA
ATOM     24  N1  non d ame     -33.027   6.130  19.504  0.00  0.00    -0.123 NA
BRANCH  21  25
ATOM     25  C3  non d ame     -33.451   2.737  18.269  0.00  0.00    -0.029 C 
ATOM     26  H2  non d ame     -34.451   2.404  18.545  0.00  0.00     0.036 H 
ATOM     27  H3  non d ame     -33.413   2.916  17.194  0.00  0.00     0.036 H 
ATOM     28  H4  non d ame     -32.725   1.969  18.535  0.00  0.00     0.036 H 
ENDBRANCH  21  25
ENDBRANCH  16  19
ENDBRANCH  13  15
BRANCH  13  29
ATOM     29  C8  non d ame     -29.061   8.853  22.199  0.00  0.00    -0.049 C 
ATOM     30  H7  non d ame     -29.023   8.880  21.110  0.00  0.00     0.030 H 
ATOM     31  H8  non d ame     -29.096   9.871  22.587  0.00  0.00     0.030 H 
ATOM     32  H9  non d ame     -28.173   8.349  22.581  0.00  0.00     0.030 H 
ENDBRANCH  13  29
ENDBRANCH  10  13
ENDBRANCH   7   9
BRANCH   7  33
ATOM     33  C11 non d ame     -32.460   9.907  26.748  0.00  0.00    -0.033 C 
ATOM     34  H12 non d ame     -31.691  10.329  27.396  0.00  0.00     0.042 H 
BRANCH  33  35
ATOM     35  C12 non d ame     -33.837  10.457  27.235  0.00  0.00    -0.071 C 
ATOM     36  H13 non d ame     -33.958  10.243  28.297  0.00  0.00     0.028 H 
ATOM     37  H14 non d ame     -33.875  11.534  27.074  0.00  0.00     0.028 H 
ATOM     38  H15 non d ame     -34.638   9.976  26.674  0.00  0.00     0.028 H 
ENDBRANCH  33  35
BRANCH  33  39
ATOM     39  C13 non d ame     -32.395   8.351  26.870  0.00  0.00    -0.071 C 
ATOM     40  H16 non d ame     -31.623   7.966  26.204  0.00  0.00     0.028 H 
ATOM     41  H17 non d ame     -32.158   8.077  27.899  0.00  0.00     0.028 H 
ATOM     42  H18 non d ame     -33.360   7.925  26.595  0.00  0.00     0.028 H 
ENDBRANCH  33  39
ENDBRANCH   7  33
ENDBRANCH   4   7
ENDBRANCH   1   3
BRANCH   1  43
ATOM     43  C15 non d ame     -32.041  14.902  24.926  0.00  0.00     0.240 C 
ATOM     44  O5  non d ame     -32.985  15.396  24.399  0.00  0.00    -0.271 OA
ATOM     45  N6  non d ame     -31.772  15.171  26.367  0.00  0.00    -0.355 N 
ATOM     46  H46 non d ame     -30.976  14.754  26.828  0.00  0.00     0.162 HD
BRANCH  45  47
ATOM     47  C20 non d ame     -32.679  16.057  27.129  0.00  0.00     0.013 C 
ATOM     48  H30 non d ame     -33.693  15.892  26.765  0.00  0.00     0.072 H 
BRANCH  47  49
ATOM     49  C21 non d ame     -32.277  17.497  26.903  0.00  0.00    -0.038 C 
ATOM     50  H31 non d ame     -31.199  17.480  26.739  0.00  0.00     0.036 H 
ATOM     51  H32 non d ame     -32.941  17.869  26.122  0.00  0.00     0.036 H 
BRANCH  49  52
ATOM     52  C22 non d ame     -32.517  18.388  28.141  0.00  0.00     0.018 C 
ATOM     53  H33 non d ame     -33.027  17.754  28.866  0.00  0.00     0.048 H 
ATOM     54  H34 non d ame     -31.547  18.822  28.385  0.00  0.00     0.048 H 
BRANCH  52  55
ATOM     55  C23 non d ame     -33.469  19.587  27.875  0.00  0.00     0.259 C 
ATOM     56  O7  non d ame     -33.146  20.461  27.138  0.00  0.00    -0.265 OA
BRANCH  55  57
ATOM     57  O8  non d ame     -34.729  19.635  28.534  0.00  0.00    -0.317 OA
BRANCH  57  58
ATOM     58  C29 non d ame     -35.848  19.690  27.645  0.00  0.00     0.052 C 
ATOM     59  H47 non d ame     -36.718  19.870  28.278  0.00  0.00     0.082 H 
ATOM     60  H48 non d ame     -35.578  20.410  26.874  0.00  0.00     0.082 H 
BRANCH  58  61
ATOM     61  C35 non d ame     -36.003  18.295  26.982  0.00  0.00    -0.034 A 
ATOM     62  C30 non d ame     -36.202  17.167  27.772  0.00  0.00    -0.075 A 
ATOM     63  C31 non d ame     -36.340  15.914  27.176  0.00  0.00    -0.082 A 
ATOM     64  H49 non d ame     -36.249  17.264  28.856  0.00  0.00     0.084 H 
ATOM     65  C32 non d ame     -36.276  15.791  25.786  0.00  0.00    -0.083 A 
ATOM     66  H50 non d ame     -36.498  15.032  27.798  0.00  0.00     0.083 H 
ATOM     67  C33 non d ame     -36.074  16.919  25.003  0.00  0.00    -0.082 A 
ATOM     68  H51 non d ame     -36.384  14.815  25.312  0.00  0.00     0.083 H 
ATOM     69  C34 non d ame     -35.937  18.174  25.593  0.00  0.00    -0.075 A 
ATOM     70  H52 non d ame     -36.022  16.820  23.918  0.00  0.00     0.083 H 
ATOM     71  H53 non d ame     -35.780  19.056  24.971  0.00  0.00     0.084 H 
ENDBRANCH  58  61
ENDBRANCH  57  58
ENDBRANCH  55  57
ENDBRANCH  52  55
ENDBRANCH  49  52
ENDBRANCH  47  49
BRANCH  47  72
ATOM     72  C24 non d ame     -32.590  15.730  28.618  0.00  0.00    -0.039 C 
ATOM     73  H35 non d ame     -32.172  16.622  29.086  0.00  0.00     0.036 H 
ATOM     74  H36 non d ame     -33.584  15.383  28.899  0.00  0.00     0.036 H 
BRANCH  72  75
ATOM     75  C25 non d ame     -31.571  14.527  28.901  0.00  0.00    -0.001 C 
ATOM     76  C26 non d ame     -32.408  13.158  29.263  0.00  0.00    -0.035 C 
ATOM     77  C27 non d ame     -31.921  12.641  30.416  0.00  0.00     0.085 C 
ATOM     78  H38 non d ame     -33.440  13.406  29.511  0.00  0.00     0.036 H 
ATOM     79  H39 non d ame     -32.196  12.384  28.526  0.00  0.00     0.036 H 
ATOM     80  N5  non d ame     -31.052  13.704  31.044  0.00  0.00    -0.049 N 
ATOM     81  H40 non d ame     -32.791  12.472  31.050  0.00  0.00     0.075 H 
ATOM     82  H41 non d ame     -31.295  11.801  30.117  0.00  0.00     0.075 H 
ATOM     83  C28 non d ame     -30.787  14.800  29.890  0.00  0.00     0.193 C 
ATOM     84  H42 non d ame     -31.605  14.131  31.774  0.00  0.00     0.280 HD
ATOM     85  H43 non d ame     -30.175  13.257  31.272  0.00  0.00     0.280 HD
ATOM     86  H44 non d ame     -29.827  14.842  29.375  0.00  0.00     0.129 H 
ATOM     87  H37 non d ame     -30.801  14.448  28.134  0.00  0.00     0.046 H 
BRANCH  83  88
ATOM     88  O6  non d ame     -31.004  16.117  30.401  0.00  0.00    -0.369 OA
ATOM     89  H45 non d ame     -31.207  16.712  29.676  0.00  0.00     0.212 HD
ENDBRANCH  83  88
ENDBRANCH  72  75
ENDBRANCH  47  72
ENDBRANCH  45  47
ENDBRANCH   1  43
BRANCH   1  90
ATOM     90  C16 non d ame     -30.993  14.476  22.681  0.00  0.00    -0.035 C 
ATOM     91  H21 non d ame     -30.804  13.590  22.075  0.00  0.00     0.037 H 
ATOM     92  H22 non d ame     -31.894  15.067  22.516  0.00  0.00     0.037 H 
BRANCH  90  93
ATOM     93  C17 non d ame     -29.785  15.437  22.442  0.00  0.00    -0.059 C 
ATOM     94  H23 non d ame     -29.890  16.277  23.129  0.00  0.00     0.038 H 
BRANCH  93  95
ATOM     95  C18 non d ame     -28.415  14.748  22.740  0.00  0.00    -0.073 C 
ATOM     96  H24 non d ame     -27.617  15.293  22.237  0.00  0.00     0.028 H 
ATOM     97  H25 non d ame     -28.233  14.748  23.814  0.00  0.00     0.028 H 
ATOM     98  H26 non d ame     -28.439  13.721  22.376  0.00  0.00     0.028 H 
ENDBRANCH  93  95
BRANCH  93  99
ATOM     99  C19 non d ame     -29.811  16.006  21.021  0.00  0.00    -0.073 C 
ATOM    100  H27 non d ame     -30.260  17.000  21.036  0.00  0.00     0.028 H 
ATOM    101  H28 non d ame     -28.793  16.073  20.637  0.00  0.00     0.028 H 
ATOM    102  H29 non d ame     -30.399  15.351  20.379  0.00  0.00     0.028 H 
ENDBRANCH  93  99
ENDBRANCH  90  93
ENDBRANCH   1  90
TORSDOF 26
ENDMDL
MODEL 4
REMARK VINA RESULT:      -7.0      1.739      2.682
REMARK  26 active torsions:
REMARK  status: ('A' for Active; 'I' for Inactive)
REMARK    1  A    between atoms: C2_2  and  C3_3 
REMARK    2  A    between atoms: C4_6  and  C5_7 
REMARK       I    between atoms: C5_7  and  N2_9 
REMARK    3  A    between atoms: N2_9  and  C6_10 
REMARK    4  A    between atoms: C6_10  and  C7_11 
REMARK    5  A    between atoms: C6_10  and  C8_13 
REMARK       I    between atoms: C7_11  and  N3_14 
REMARK    6  A    between atoms: N3_14  and  C9_15 
REMARK    7  A    between atoms: C9_15  and  C10_16 
REMARK    8  A    between atoms: C9_15  and  C11_18 
REMARK       I    between atoms: C10_16  and  N4_21 
REMARK    9  A    between atoms: C11_18  and  C12_19 
REMARK   10  A    between atoms: C11_18  and  C13_20 
REMARK   11  A    between atoms: N4_21  and  C14_22 
REMARK   12  A    between atoms: C14_22  and  C15_23 
REMARK   13  A    between atoms: C14_22  and  C16_25 
REMARK       I    between atoms: C15_23  and  N6_40 
REMARK   14  A    between atoms: C16_25  and  C17_26 
REMARK   15  A    between atoms: C17_26  and  C18_27 
REMARK   16  A    between atoms: C17_26  and  C19_28 
REMARK   17  A    between atoms: C20_29  and  C21_30 
REMARK   18  A    between atoms: C20_29  and  C24_33 
REMARK   19  A    between atoms: C20_29  and  N6_40 
REMARK   20  A    between atoms: C21_30  and  C22_31 
REMARK   21  A    between atoms: C22_31  and  C23_32 
REMARK   22  A    between atoms: C23_32  and  O8_43 
REMARK   23  A    between atoms: C24_33  and  C25_34 
REMARK   24  A    between atoms: C28_38  and  O6_39 
REMARK   25  A    between atoms: C29_42  and  O8_43 
REMARK   26  A    between atoms: C29_42  and  C35_49 
ROOT
ATOM      1  C14 non d ame     -31.091  14.139  24.372  0.00  0.00     0.089 C 
ATOM      2  H20 non d ame     -30.107  13.730  24.605  0.00  0.00     0.087 H 
ENDROOT
BRANCH   1   3
ATOM      3  N4  non d ame     -32.067  13.080  24.584  0.00  0.00    -0.346 N 
ATOM      4  C10 non d ame     -31.878  12.082  25.698  0.00  0.00     0.241 C 
ATOM      5  O4  non d ame     -30.930  12.148  26.410  0.00  0.00    -0.271 OA
ATOM      6  H19 non d ame     -32.865  13.039  23.966  0.00  0.00     0.163 HD
BRANCH   4   7
ATOM      7  C9  non d ame     -32.901  10.996  25.906  0.00  0.00     0.092 C 
ATOM      8  H11 non d ame     -33.037  10.832  26.975  0.00  0.00     0.088 H 
BRANCH   7   9
ATOM      9  N3  non d ame     -34.192  11.431  25.366  0.00  0.00    -0.346 N 
ATOM     10  C7  non d ame     -35.150  12.083  26.226  0.00  0.00     0.240 C 
ATOM     11  O3  non d ame     -34.897  12.265  27.355  0.00  0.00    -0.271 OA
ATOM     12  H10 non d ame     -34.425  11.280  24.395  0.00  0.00     0.163 HD
BRANCH  10  13
ATOM     13  C6  non d ame     -36.524  12.541  25.647  0.00  0.00     0.086 C 
ATOM     14  H6  non d ame     -37.358  12.318  26.312  0.00  0.00     0.086 H 
BRANCH  13  15
ATOM     15  N2  non d ame     -36.505  13.984  25.473  0.00  0.00    -0.343 N 
ATOM     16  C5  non d ame     -37.561  14.798  26.080  0.00  0.00     0.273 C 
ATOM     17  O2  non d ame     -38.423  14.281  26.703  0.00  0.00    -0.266 OA
ATOM     18  H5  non d ame     -35.766  14.417  24.937  0.00  0.00     0.163 HD
BRANCH  16  19
ATOM     19  C4  non d ame     -37.553  16.324  25.907  0.00  0.00     0.154 A 
ATOM     20  C1  non d ame     -37.140  17.061  24.751  0.00  0.00    -0.017 A 
ATOM     21  C2  non d ame     -37.325  18.418  25.100  0.00  0.00     0.077 A 
ATOM     22  H1  non d ame     -36.765  16.671  23.805  0.00  0.00     0.091 H 
ATOM     23  O1  non d ame     -37.791  18.445  26.314  0.00  0.00    -0.218 OA
ATOM     24  N1  non d ame     -37.932  17.236  26.806  0.00  0.00    -0.123 NA
BRANCH  21  25
ATOM     25  C3  non d ame     -37.034  19.623  24.216  0.00  0.00    -0.029 C 
ATOM     26  H2  non d ame     -37.869  19.786  23.536  0.00  0.00     0.036 H 
ATOM     27  H3  non d ame     -36.897  20.506  24.840  0.00  0.00     0.036 H 
ATOM     28  H4  non d ame     -36.127  19.441  23.641  0.00  0.00     0.036 H 
ENDBRANCH  21  25
ENDBRANCH  16  19
ENDBRANCH  13  15
BRANCH  13  29
ATOM     29  C8  non d ame     -36.764  11.865  24.321  0.00  0.00    -0.049 C 
ATOM     30  H7  non d ame     -37.737  11.373  24.335  0.00  0.00     0.030 H 
ATOM     31  H8  non d ame     -36.745  12.609  23.525  0.00  0.00     0.030 H 
ATOM     32  H9  non d ame     -35.984  11.124  24.144  0.00  0.00     0.030 H 
ENDBRANCH  13  29
ENDBRANCH  10  13
ENDBRANCH   7   9
BRANCH   7  33
ATOM     33  C11 non d ame     -32.443   9.703  25.169  0.00  0.00    -0.033 C 
ATOM     34  H12 non d ame     -31.384   9.815  24.937  0.00  0.00     0.042 H 
BRANCH  33  35
ATOM     35  C12 non d ame     -32.593   8.446  26.081  0.00  0.00    -0.071 C 
ATOM     36  H13 non d ame     -31.800   8.442  26.829  0.00  0.00     0.028 H 
ATOM     37  H14 non d ame     -33.562   8.471  26.578  0.00  0.00     0.028 H 
ATOM     38  H15 non d ame     -32.520   7.545  25.471  0.00  0.00     0.028 H 
ENDBRANCH  33  35
BRANCH  33  39
ATOM     39  C13 non d ame     -33.216   9.523  23.823  0.00  0.00    -0.071 C 
ATOM     40  H16 non d ame     -33.270   8.463  23.575  0.00  0.00     0.028 H 
ATOM     41  H17 non d ame     -34.224   9.925  23.927  0.00  0.00     0.028 H 
ATOM     42  H18 non d ame     -32.693  10.057  23.030  0.00  0.00     0.028 H 
ENDBRANCH  33  39
ENDBRANCH   7  33
ENDBRANCH   4   7
ENDBRANCH   1   3
BRANCH   1  43
ATOM     43  C15 non d ame     -31.458  15.342  25.287  0.00  0.00     0.240 C 
ATOM     44  O5  non d ame     -31.063  16.430  25.020  0.00  0.00    -0.271 OA
ATOM     45  N6  non d ame     -32.311  15.138  26.493  0.00  0.00    -0.355 N 
ATOM     46  H46 non d ame     -32.656  14.219  26.728  0.00  0.00     0.162 HD
BRANCH  45  47
ATOM     47  C20 non d ame     -32.653  16.292  27.352  0.00  0.00     0.013 C 
ATOM     48  H30 non d ame     -31.913  17.073  27.175  0.00  0.00     0.072 H 
BRANCH  47  49
ATOM     49  C21 non d ame     -32.615  15.864  28.802  0.00  0.00    -0.038 C 
ATOM     50  H31 non d ame     -31.701  16.294  29.212  0.00  0.00     0.036 H 
ATOM     51  H32 non d ame     -33.583  16.145  29.217  0.00  0.00     0.036 H 
BRANCH  49  52
ATOM     52  C22 non d ame     -32.494  14.335  28.973  0.00  0.00     0.018 C 
ATOM     53  H33 non d ame     -33.313  14.045  29.631  0.00  0.00     0.048 H 
ATOM     54  H34 non d ame     -32.437  13.928  27.962  0.00  0.00     0.048 H 
BRANCH  52  55
ATOM     55  C23 non d ame     -31.190  13.886  29.689  0.00  0.00     0.259 C 
ATOM     56  O7  non d ame     -30.487  14.684  30.219  0.00  0.00    -0.265 OA
BRANCH  55  57
ATOM     57  O8  non d ame     -30.837  12.508  29.695  0.00  0.00    -0.317 OA
BRANCH  57  58
ATOM     58  C29 non d ame     -31.210  11.816  30.890  0.00  0.00     0.052 C 
ATOM     59  H47 non d ame     -30.436  11.065  31.050  0.00  0.00     0.082 H 
ATOM     60  H48 non d ame     -31.382  12.590  31.637  0.00  0.00     0.082 H 
BRANCH  58  61
ATOM     61  C35 non d ame     -32.554  11.087  30.621  0.00  0.00    -0.034 A 
ATOM     62  C30 non d ame     -32.705  10.301  29.483  0.00  0.00    -0.075 A 
ATOM     63  C31 non d ame     -33.912   9.647  29.242  0.00  0.00    -0.082 A 
ATOM     64  H49 non d ame     -31.878  10.199  28.780  0.00  0.00     0.084 H 
ATOM     65  C32 non d ame     -34.971   9.781  30.143  0.00  0.00    -0.083 A 
ATOM     66  H50 non d ame     -34.027   9.031  28.349  0.00  0.00     0.083 H 
ATOM     67  C33 non d ame     -34.817  10.569  31.276  0.00  0.00    -0.082 A 
ATOM     68  H51 non d ame     -35.918   9.272  29.962  0.00  0.00     0.083 H 
ATOM     69  C34 non d ame     -33.612  11.223  31.522  0.00  0.00    -0.075 A 
ATOM     70  H52 non d ame     -35.646  10.674  31.976  0.00  0.00     0.083 H 
ATOM     71  H53 non d ame     -33.498  11.839  32.415  0.00  0.00     0.084 H 
ENDBRANCH  58  61
ENDBRANCH  57  58
ENDBRANCH  55  57
ENDBRANCH  52  55
ENDBRANCH  49  52
ENDBRANCH  47  49
BRANCH  47  72
ATOM     72  C24 non d ame     -34.052  16.797  27.006  0.00  0.00    -0.039 C 
ATOM     73  H35 non d ame     -34.317  16.300  26.072  0.00  0.00     0.036 H 
ATOM     74  H36 non d ame     -34.651  16.630  27.901  0.00  0.00     0.036 H 
BRANCH  72  75
ATOM     75  C25 non d ame     -34.059  18.374  26.720  0.00  0.00    -0.001 C 
ATOM     76  C26 non d ame     -32.532  18.972  26.844  0.00  0.00    -0.035 C 
ATOM     77  C27 non d ame     -32.548  20.040  27.677  0.00  0.00     0.085 C 
ATOM     78  H38 non d ame     -31.891  18.257  27.358  0.00  0.00     0.036 H 
ATOM     79  H39 non d ame     -32.219  19.397  25.890  0.00  0.00     0.036 H 
ATOM     80  N5  non d ame     -33.879  20.025  28.388  0.00  0.00    -0.049 N 
ATOM     81  H40 non d ame     -31.755  19.855  28.402  0.00  0.00     0.075 H 
ATOM     82  H41 non d ame     -32.500  20.915  27.030  0.00  0.00     0.075 H 
ATOM     83  C28 non d ame     -34.812  18.998  27.563  0.00  0.00     0.193 C 
ATOM     84  H42 non d ame     -33.710  19.639  29.306  0.00  0.00     0.280 HD
ATOM     85  H43 non d ame     -34.263  20.955  28.294  0.00  0.00     0.280 HD
ATOM     86  H44 non d ame     -35.590  19.370  26.895  0.00  0.00     0.129 H 
ATOM     87  H37 non d ame     -34.620  18.628  25.821  0.00  0.00     0.046 H 
BRANCH  83  88
ATOM     88  O6  non d ame     -35.474  18.104  28.459  0.00  0.00    -0.369 OA
ATOM     89  H45 non d ame     -34.825  17.541  28.887  0.00  0.00     0.212 HD
ENDBRANCH  83  88
ENDBRANCH  72  75
ENDBRANCH  47  72
ENDBRANCH  45  47
ENDBRANCH   1  43
BRANCH   1  90
ATOM     90  C16 non d ame     -31.136  14.572  22.916  0.00  0.00    -0.035 C 
ATOM     91  H21 non d ame     -31.902  13.949  22.453  0.00  0.00     0.037 H 
ATOM     92  H22 non d ame     -31.257  15.655  22.940  0.00  0.00     0.037 H 
BRANCH  90  93
ATOM     93  C17 non d ame     -29.812  14.292  22.137  0.00  0.00    -0.059 C 
ATOM     94  H23 non d ame     -29.951  14.638  21.113  0.00  0.00     0.038 H 
BRANCH  93  95
ATOM     95  C18 non d ame     -28.598  15.068  22.742  0.00  0.00    -0.073 C 
ATOM     96  H24 non d ame     -28.427  14.736  23.765  0.00  0.00     0.028 H 
ATOM     97  H25 non d ame     -27.708  14.873  22.144  0.00  0.00     0.028 H 
ATOM     98  H26 non d ame     -28.811  16.137  22.737  0.00  0.00     0.028 H 
ENDBRANCH  93  95
BRANCH  93  99
ATOM     99  C19 non d ame     -29.521  12.790  22.074  0.00  0.00    -0.073 C 
ATOM    100  H27 non d ame     -29.395  12.402  23.085  0.00  0.00     0.028 H 
ATOM    101  H28 non d ame     -30.353  12.279  21.589  0.00  0.00     0.028 H 
ATOM    102  H29 non d ame     -28.609  12.621  21.502  0.00  0.00     0.028 H 
ENDBRANCH  93  99
ENDBRANCH  90  93
ENDBRANCH   1  90
TORSDOF 26
ENDMDL
MODEL 5
REMARK VINA RESULT:      -7.0      1.970      3.495
REMARK  26 active torsions:
REMARK  status: ('A' for Active; 'I' for Inactive)
REMARK    1  A    between atoms: C2_2  and  C3_3 
REMARK    2  A    between atoms: C4_6  and  C5_7 
REMARK       I    between atoms: C5_7  and  N2_9 
REMARK    3  A    between atoms: N2_9  and  C6_10 
REMARK    4  A    between atoms: C6_10  and  C7_11 
REMARK    5  A    between atoms: C6_10  and  C8_13 
REMARK       I    between atoms: C7_11  and  N3_14 
REMARK    6  A    between atoms: N3_14  and  C9_15 
REMARK    7  A    between atoms: C9_15  and  C10_16 
REMARK    8  A    between atoms: C9_15  and  C11_18 
REMARK       I    between atoms: C10_16  and  N4_21 
REMARK    9  A    between atoms: C11_18  and  C12_19 
REMARK   10  A    between atoms: C11_18  and  C13_20 
REMARK   11  A    between atoms: N4_21  and  C14_22 
REMARK   12  A    between atoms: C14_22  and  C15_23 
REMARK   13  A    between atoms: C14_22  and  C16_25 
REMARK       I    between atoms: C15_23  and  N6_40 
REMARK   14  A    between atoms: C16_25  and  C17_26 
REMARK   15  A    between atoms: C17_26  and  C18_27 
REMARK   16  A    between atoms: C17_26  and  C19_28 
REMARK   17  A    between atoms: C20_29  and  C21_30 
REMARK   18  A    between atoms: C20_29  and  C24_33 
REMARK   19  A    between atoms: C20_29  and  N6_40 
REMARK   20  A    between atoms: C21_30  and  C22_31 
REMARK   21  A    between atoms: C22_31  and  C23_32 
REMARK   22  A    between atoms: C23_32  and  O8_43 
REMARK   23  A    between atoms: C24_33  and  C25_34 
REMARK   24  A    between atoms: C28_38  and  O6_39 
REMARK   25  A    between atoms: C29_42  and  O8_43 
REMARK   26  A    between atoms: C29_42  and  C35_49 
ROOT
ATOM      1  C14 non d ame     -30.870  14.543  23.627  0.00  0.00     0.089 C 
ATOM      2  H20 non d ame     -29.782  14.585  23.569  0.00  0.00     0.087 H 
ENDROOT
BRANCH   1   3
ATOM      3  N4  non d ame     -31.239  13.172  23.944  0.00  0.00    -0.346 N 
ATOM      4  C10 non d ame     -30.549  12.019  23.259  0.00  0.00     0.241 C 
ATOM      5  O4  non d ame     -29.701  12.220  22.454  0.00  0.00    -0.271 OA
ATOM      6  H19 non d ame     -31.966  13.022  24.630  0.00  0.00     0.163 HD
BRANCH   4   7
ATOM      7  C9  non d ame     -30.941  10.606  23.603  0.00  0.00     0.092 C 
ATOM      8  H11 non d ame     -30.438  10.309  24.523  0.00  0.00     0.088 H 
BRANCH   7   9
ATOM      9  N3  non d ame     -32.383  10.546  23.858  0.00  0.00    -0.346 N 
ATOM     10  C7  non d ame     -32.870  10.069  25.129  0.00  0.00     0.240 C 
ATOM     11  O3  non d ame     -32.116   9.728  25.957  0.00  0.00    -0.271 OA
ATOM     12  H10 non d ame     -33.046  10.836  23.153  0.00  0.00     0.163 HD
BRANCH  10  13
ATOM     13  C6  non d ame     -34.407  10.006  25.394  0.00  0.00     0.086 C 
ATOM     14  H6  non d ame     -34.959   9.557  24.569  0.00  0.00     0.086 H 
BRANCH  13  15
ATOM     15  N2  non d ame     -34.650   9.171  26.559  0.00  0.00    -0.343 N 
ATOM     16  C5  non d ame     -34.991   7.759  26.377  0.00  0.00     0.273 C 
ATOM     17  O2  non d ame     -35.069   7.304  25.288  0.00  0.00    -0.266 OA
ATOM     18  H5  non d ame     -34.583   9.569  27.486  0.00  0.00     0.163 HD
BRANCH  16  19
ATOM     19  C4  non d ame     -35.249   6.865  27.600  0.00  0.00     0.154 A 
ATOM     20  C1  non d ame     -34.751   7.052  28.928  0.00  0.00    -0.017 A 
ATOM     21  C2  non d ame     -35.273   5.968  29.668  0.00  0.00     0.077 A 
ATOM     22  H1  non d ame     -34.110   7.852  29.299  0.00  0.00     0.091 H 
ATOM     23  O1  non d ame     -35.986   5.249  28.851  0.00  0.00    -0.218 OA
ATOM     24  N1  non d ame     -35.987   5.752  27.638  0.00  0.00    -0.123 NA
BRANCH  21  25
ATOM     25  C3  non d ame     -35.043   5.693  31.148  0.00  0.00    -0.029 C 
ATOM     26  H2  non d ame     -34.008   5.918  31.404  0.00  0.00     0.036 H 
ATOM     27  H3  non d ame     -35.709   6.320  31.741  0.00  0.00     0.036 H 
ATOM     28  H4  non d ame     -35.249   4.643  31.359  0.00  0.00     0.036 H 
ENDBRANCH  21  25
ENDBRANCH  16  19
ENDBRANCH  13  15
BRANCH  13  29
ATOM     29  C8  non d ame     -34.936  11.396  25.635  0.00  0.00    -0.049 C 
ATOM     30  H7  non d ame     -34.606  11.747  26.613  0.00  0.00     0.030 H 
ATOM     31  H8  non d ame     -34.560  12.067  24.863  0.00  0.00     0.030 H 
ATOM     32  H9  non d ame     -36.026  11.381  25.604  0.00  0.00     0.030 H 
ENDBRANCH  13  29
ENDBRANCH  10  13
ENDBRANCH   7   9
BRANCH   7  33
ATOM     33  C11 non d ame     -30.588   9.666  22.413  0.00  0.00    -0.033 C 
ATOM     34  H12 non d ame     -30.470  10.288  21.526  0.00  0.00     0.042 H 
BRANCH  33  35
ATOM     35  C12 non d ame     -29.234   8.929  22.653  0.00  0.00    -0.071 C 
ATOM     36  H13 non d ame     -28.898   8.473  21.721  0.00  0.00     0.028 H 
ATOM     37  H14 non d ame     -28.487   9.644  22.998  0.00  0.00     0.028 H 
ATOM     38  H15 non d ame     -29.371   8.153  23.406  0.00  0.00     0.028 H 
ENDBRANCH  33  35
BRANCH  33  39
ATOM     39  C13 non d ame     -31.745   8.651  22.140  0.00  0.00    -0.071 C 
ATOM     40  H16 non d ame     -31.336   7.643  22.074  0.00  0.00     0.028 H 
ATOM     41  H17 non d ame     -32.469   8.698  22.955  0.00  0.00     0.028 H 
ATOM     42  H18 non d ame     -32.238   8.906  21.202  0.00  0.00     0.028 H 
ENDBRANCH  33  39
ENDBRANCH   7  33
ENDBRANCH   4   7
ENDBRANCH   1   3
BRANCH   1  43
ATOM     43  C15 non d ame     -31.434  15.477  24.735  0.00  0.00     0.240 C 
ATOM     44  O5  non d ame     -30.704  16.214  25.316  0.00  0.00    -0.271 OA
ATOM     45  N6  non d ame     -32.888  15.459  25.067  0.00  0.00    -0.355 N 
ATOM     46  H46 non d ame     -33.518  14.841  24.577  0.00  0.00     0.162 HD
BRANCH  45  47
ATOM     47  C20 non d ame     -33.409  16.354  26.122  0.00  0.00     0.013 C 
ATOM     48  H30 non d ame     -32.565  16.894  26.552  0.00  0.00     0.072 H 
BRANCH  47  49
ATOM     49  C21 non d ame     -34.090  15.526  27.189  0.00  0.00    -0.038 C 
ATOM     50  H31 non d ame     -35.160  15.651  27.021  0.00  0.00     0.036 H 
ATOM     51  H32 non d ame     -33.639  14.535  27.123  0.00  0.00     0.036 H 
BRANCH  49  52
ATOM     52  C22 non d ame     -33.809  16.040  28.617  0.00  0.00     0.018 C 
ATOM     53  H33 non d ame     -34.083  17.095  28.611  0.00  0.00     0.048 H 
ATOM     54  H34 non d ame     -34.321  15.348  29.286  0.00  0.00     0.048 H 
BRANCH  52  55
ATOM     55  C23 non d ame     -32.308  15.991  29.017  0.00  0.00     0.259 C 
ATOM     56  O7  non d ame     -31.880  16.725  29.848  0.00  0.00    -0.265 OA
BRANCH  55  57
ATOM     57  O8  non d ame     -31.444  15.065  28.368  0.00  0.00    -0.317 OA
BRANCH  57  58
ATOM     58  C29 non d ame     -30.726  14.212  29.264  0.00  0.00     0.052 C 
ATOM     59  H47 non d ame     -29.836  13.896  28.721  0.00  0.00     0.082 H 
ATOM     60  H48 non d ame     -30.626  14.776  30.192  0.00  0.00     0.082 H 
BRANCH  58  61
ATOM     61  C35 non d ame     -31.602  12.962  29.542  0.00  0.00    -0.034 A 
ATOM     62  C30 non d ame     -31.620  12.391  30.811  0.00  0.00    -0.075 A 
ATOM     63  C31 non d ame     -32.407  11.268  31.061  0.00  0.00    -0.082 A 
ATOM     64  H49 non d ame     -31.016  12.824  31.609  0.00  0.00     0.084 H 
ATOM     65  C32 non d ame     -33.177  10.714  30.035  0.00  0.00    -0.083 A 
ATOM     66  H50 non d ame     -32.419  10.824  32.056  0.00  0.00     0.083 H 
ATOM     67  C33 non d ame     -33.154  11.285  28.770  0.00  0.00    -0.082 A 
ATOM     68  H51 non d ame     -33.796   9.836  30.222  0.00  0.00     0.083 H 
ATOM     69  C34 non d ame     -32.371  12.409  28.516  0.00  0.00    -0.075 A 
ATOM     70  H52 non d ame     -33.755  10.849  27.971  0.00  0.00     0.083 H 
ATOM     71  H53 non d ame     -32.359  12.852  27.520  0.00  0.00     0.084 H 
ENDBRANCH  58  61
ENDBRANCH  57  58
ENDBRANCH  55  57
ENDBRANCH  52  55
ENDBRANCH  49  52
ENDBRANCH  47  49
BRANCH  47  72
ATOM     72  C24 non d ame     -34.414  17.334  25.519  0.00  0.00    -0.039 C 
ATOM     73  H35 non d ame     -34.331  17.206  24.439  0.00  0.00     0.036 H 
ATOM     74  H36 non d ame     -35.359  17.126  26.021  0.00  0.00     0.036 H 
BRANCH  72  75
ATOM     75  C25 non d ame     -34.029  18.854  25.846  0.00  0.00    -0.001 C 
ATOM     76  C26 non d ame     -32.589  18.909  26.638  0.00  0.00    -0.035 C 
ATOM     77  C27 non d ame     -32.736  19.656  27.758  0.00  0.00     0.085 C 
ATOM     78  H38 non d ame     -32.336  17.921  27.022  0.00  0.00     0.036 H 
ATOM     79  H39 non d ame     -31.861  19.469  26.052  0.00  0.00     0.036 H 
ATOM     80  N5  non d ame     -34.219  19.843  27.973  0.00  0.00    -0.049 N 
ATOM     81  H40 non d ame     -32.333  19.049  28.569  0.00  0.00     0.075 H 
ATOM     82  H41 non d ame     -32.287  20.621  27.526  0.00  0.00     0.075 H 
ATOM     83  C28 non d ame     -34.926  19.415  26.586  0.00  0.00     0.193 C 
ATOM     84  H42 non d ame     -34.490  19.185  28.689  0.00  0.00     0.280 HD
ATOM     85  H43 non d ame     -34.364  20.833  28.116  0.00  0.00     0.280 HD
ATOM     86  H44 non d ame     -35.304  20.173  25.900  0.00  0.00     0.129 H 
ATOM     87  H37 non d ame     -34.143  19.504  24.978  0.00  0.00     0.046 H 
BRANCH  83  88
ATOM     88  O6  non d ame     -36.031  18.547  26.844  0.00  0.00    -0.369 OA
ATOM     89  H45 non d ame     -36.494  18.365  26.023  0.00  0.00     0.212 HD
ENDBRANCH  83  88
ENDBRANCH  72  75
ENDBRANCH  47  72
ENDBRANCH  45  47
ENDBRANCH   1  43
BRANCH   1  90
ATOM     90  C16 non d ame     -31.472  14.922  22.283  0.00  0.00    -0.035 C 
ATOM     91  H21 non d ame     -31.645  13.977  21.768  0.00  0.00     0.037 H 
ATOM     92  H22 non d ame     -32.311  15.577  22.518  0.00  0.00     0.037 H 
BRANCH  90  93
ATOM     93  C17 non d ame     -30.507  15.748  21.375  0.00  0.00    -0.059 C 
ATOM     94  H23 non d ame     -30.786  16.798  21.465  0.00  0.00     0.038 H 
BRANCH  93  95
ATOM     95  C18 non d ame     -29.016  15.611  21.820  0.00  0.00    -0.073 C 
ATOM     96  H24 non d ame     -28.654  16.573  22.181  0.00  0.00     0.028 H 
ATOM     97  H25 non d ame     -28.942  14.873  22.619  0.00  0.00     0.028 H 
ATOM     98  H26 non d ame     -28.412  15.290  20.972  0.00  0.00     0.028 H 
ENDBRANCH  93  95
BRANCH  93  99
ATOM     99  C19 non d ame     -30.674  15.359  19.904  0.00  0.00    -0.073 C 
ATOM    100  H27 non d ame     -31.702  15.040  19.726  0.00  0.00     0.028 H 
ATOM    101  H28 non d ame     -30.447  16.218  19.272  0.00  0.00     0.028 H 
ATOM    102  H29 non d ame     -29.993  14.543  19.664  0.00  0.00     0.028 H 
ENDBRANCH  93  99
ENDBRANCH  90  93
ENDBRANCH   1  90
TORSDOF 26
ENDMDL
MODEL 6
REMARK VINA RESULT:      -7.0      2.400      5.254
REMARK  26 active torsions:
REMARK  status: ('A' for Active; 'I' for Inactive)
REMARK    1  A    between atoms: C2_2  and  C3_3 
REMARK    2  A    between atoms: C4_6  and  C5_7 
REMARK       I    between atoms: C5_7  and  N2_9 
REMARK    3  A    between atoms: N2_9  and  C6_10 
REMARK    4  A    between atoms: C6_10  and  C7_11 
REMARK    5  A    between atoms: C6_10  and  C8_13 
REMARK       I    between atoms: C7_11  and  N3_14 
REMARK    6  A    between atoms: N3_14  and  C9_15 
REMARK    7  A    between atoms: C9_15  and  C10_16 
REMARK    8  A    between atoms: C9_15  and  C11_18 
REMARK       I    between atoms: C10_16  and  N4_21 
REMARK    9  A    between atoms: C11_18  and  C12_19 
REMARK   10  A    between atoms: C11_18  and  C13_20 
REMARK   11  A    between atoms: N4_21  and  C14_22 
REMARK   12  A    between atoms: C14_22  and  C15_23 
REMARK   13  A    between atoms: C14_22  and  C16_25 
REMARK       I    between atoms: C15_23  and  N6_40 
REMARK   14  A    between atoms: C16_25  and  C17_26 
REMARK   15  A    between atoms: C17_26  and  C18_27 
REMARK   16  A    between atoms: C17_26  and  C19_28 
REMARK   17  A    between atoms: C20_29  and  C21_30 
REMARK   18  A    between atoms: C20_29  and  C24_33 
REMARK   19  A    between atoms: C20_29  and  N6_40 
REMARK   20  A    between atoms: C21_30  and  C22_31 
REMARK   21  A    between atoms: C22_31  and  C23_32 
REMARK   22  A    between atoms: C23_32  and  O8_43 
REMARK   23  A    between atoms: C24_33  and  C25_34 
REMARK   24  A    between atoms: C28_38  and  O6_39 
REMARK   25  A    between atoms: C29_42  and  O8_43 
REMARK   26  A    between atoms: C29_42  and  C35_49 
ROOT
ATOM      1  C14 non d ame     -31.039  14.715  23.888  0.00  0.00     0.089 C 
ATOM      2  H20 non d ame     -29.965  14.851  24.015  0.00  0.00     0.087 H 
ENDROOT
BRANCH   1   3
ATOM      3  N4  non d ame     -31.350  13.337  24.239  0.00  0.00    -0.346 N 
ATOM      4  C10 non d ame     -30.658  12.197  23.535  0.00  0.00     0.241 C 
ATOM      5  O4  non d ame     -29.857  12.413  22.687  0.00  0.00    -0.271 OA
ATOM      6  H19 non d ame     -32.037  13.174  24.962  0.00  0.00     0.163 HD
BRANCH   4   7
ATOM      7  C9  non d ame     -30.989  10.777  23.916  0.00  0.00     0.092 C 
ATOM      8  H11 non d ame     -30.314  10.452  24.708  0.00  0.00     0.088 H 
BRANCH   7   9
ATOM      9  N3  non d ame     -32.351  10.719  24.455  0.00  0.00    -0.346 N 
ATOM     10  C7  non d ame     -32.563  10.755  25.881  0.00  0.00     0.240 C 
ATOM     11  O3  non d ame     -31.649  10.829  26.609  0.00  0.00    -0.271 OA
ATOM     12  H10 non d ame     -33.149  10.654  23.840  0.00  0.00     0.163 HD
BRANCH  10  13
ATOM     13  C6  non d ame     -34.014  10.690  26.449  0.00  0.00     0.086 C 
ATOM     14  H6  non d ame     -34.687  10.107  25.821  0.00  0.00     0.086 H 
BRANCH  13  15
ATOM     15  N2  non d ame     -33.984  10.036  27.747  0.00  0.00    -0.343 N 
ATOM     16  C5  non d ame     -34.870   8.898  28.002  0.00  0.00     0.273 C 
ATOM     17  O2  non d ame     -35.606   8.519  27.157  0.00  0.00    -0.266 OA
ATOM     18  H5  non d ame     -33.354  10.368  28.463  0.00  0.00     0.163 HD
BRANCH  16  19
ATOM     19  C4  non d ame     -34.848   8.195  29.368  0.00  0.00     0.154 A 
ATOM     20  C1  non d ame     -35.002   6.796  29.623  0.00  0.00    -0.017 A 
ATOM     21  C2  non d ame     -34.904   6.669  31.027  0.00  0.00     0.077 A 
ATOM     22  H1  non d ame     -35.161   5.995  28.901  0.00  0.00     0.091 H 
ATOM     23  O1  non d ame     -34.714   7.862  31.511  0.00  0.00    -0.218 OA
ATOM     24  N1  non d ame     -34.678   8.769  30.562  0.00  0.00    -0.123 NA
BRANCH  21  25
ATOM     25  C3  non d ame     -35.001   5.376  31.825  0.00  0.00    -0.029 C 
ATOM     26  H2  non d ame     -35.919   5.379  32.412  0.00  0.00     0.036 H 
ATOM     27  H3  non d ame     -35.011   4.527  31.141  0.00  0.00     0.036 H 
ATOM     28  H4  non d ame     -34.143   5.294  32.492  0.00  0.00     0.036 H 
ENDBRANCH  21  25
ENDBRANCH  16  19
ENDBRANCH  13  15
BRANCH  13  29
ATOM     29  C8  non d ame     -34.566  12.087  26.588  0.00  0.00    -0.049 C 
ATOM     30  H7  non d ame     -34.037  12.755  25.908  0.00  0.00     0.030 H 
ATOM     31  H8  non d ame     -35.627  12.084  26.343  0.00  0.00     0.030 H 
ATOM     32  H9  non d ame     -34.430  12.431  27.614  0.00  0.00     0.030 H 
ENDBRANCH  13  29
ENDBRANCH  10  13
ENDBRANCH   7   9
BRANCH   7  33
ATOM     33  C11 non d ame     -30.894   9.867  22.656  0.00  0.00    -0.033 C 
ATOM     34  H12 non d ame     -30.844  10.518  21.783  0.00  0.00     0.042 H 
BRANCH  33  35
ATOM     35  C12 non d ame     -29.592   9.007  22.673  0.00  0.00    -0.071 C 
ATOM     36  H13 non d ame     -28.722   9.663  22.675  0.00  0.00     0.028 H 
ATOM     37  H14 non d ame     -29.580   8.385  23.568  0.00  0.00     0.028 H 
ATOM     38  H15 non d ame     -29.565   8.371  21.788  0.00  0.00     0.028 H 
ENDBRANCH  33  35
BRANCH  33  39
ATOM     39  C13 non d ame     -32.165   8.969  22.517  0.00  0.00    -0.071 C 
ATOM     40  H16 non d ame     -32.510   8.673  23.508  0.00  0.00     0.028 H 
ATOM     41  H17 non d ame     -32.951   9.529  22.010  0.00  0.00     0.028 H 
ATOM     42  H18 non d ame     -31.920   8.080  21.936  0.00  0.00     0.028 H 
ENDBRANCH  33  39
ENDBRANCH   7  33
ENDBRANCH   4   7
ENDBRANCH   1   3
BRANCH   1  43
ATOM     43  C15 non d ame     -31.864  15.659  24.808  0.00  0.00     0.240 C 
ATOM     44  O5  non d ame     -32.413  16.605  24.344  0.00  0.00    -0.271 OA
ATOM     45  N6  non d ame     -31.978  15.378  26.268  0.00  0.00    -0.355 N 
ATOM     46  H46 non d ame     -31.520  14.574  26.673  0.00  0.00     0.162 HD
BRANCH  45  47
ATOM     47  C20 non d ame     -32.767  16.285  27.129  0.00  0.00     0.013 C 
ATOM     48  H30 non d ame     -33.793  16.290  26.760  0.00  0.00     0.072 H 
BRANCH  47  49
ATOM     49  C21 non d ame     -32.185  17.678  27.054  0.00  0.00    -0.038 C 
ATOM     50  H31 non d ame     -31.108  17.554  27.171  0.00  0.00     0.036 H 
ATOM     51  H32 non d ame     -32.588  18.117  26.141  0.00  0.00     0.036 H 
BRANCH  49  52
ATOM     52  C22 non d ame     -32.648  18.584  28.216  0.00  0.00     0.018 C 
ATOM     53  H33 non d ame     -33.217  17.940  28.885  0.00  0.00     0.048 H 
ATOM     54  H34 non d ame     -31.749  19.086  28.576  0.00  0.00     0.048 H 
BRANCH  52  55
ATOM     55  C23 non d ame     -33.622  19.714  27.779  0.00  0.00     0.259 C 
ATOM     56  O7  non d ame     -33.267  20.555  27.019  0.00  0.00    -0.265 OA
BRANCH  55  57
ATOM     57  O8  non d ame     -34.942  19.739  28.308  0.00  0.00    -0.317 OA
BRANCH  57  58
ATOM     58  C29 non d ame     -35.969  19.667  27.315  0.00  0.00     0.052 C 
ATOM     59  H47 non d ame     -36.899  19.894  27.836  0.00  0.00     0.082 H 
ATOM     60  H48 non d ame     -35.633  20.305  26.497  0.00  0.00     0.082 H 
BRANCH  58  61
ATOM     61  C35 non d ame     -36.037  18.204  26.801  0.00  0.00    -0.034 A 
ATOM     62  C30 non d ame     -35.810  17.927  25.456  0.00  0.00    -0.075 A 
ATOM     63  C31 non d ame     -35.871  16.613  24.994  0.00  0.00    -0.082 A 
ATOM     64  H49 non d ame     -35.584  18.739  24.765  0.00  0.00     0.084 H 
ATOM     65  C32 non d ame     -36.164  15.574  25.882  0.00  0.00    -0.083 A 
ATOM     66  H50 non d ame     -35.691  16.399  23.940  0.00  0.00     0.083 H 
ATOM     67  C33 non d ame     -36.393  15.856  27.222  0.00  0.00    -0.082 A 
ATOM     68  H51 non d ame     -36.213  14.544  25.529  0.00  0.00     0.083 H 
ATOM     69  C34 non d ame     -36.330  17.168  27.688  0.00  0.00    -0.075 A 
ATOM     70  H52 non d ame     -36.623  15.044  27.911  0.00  0.00     0.083 H 
ATOM     71  H53 non d ame     -36.510  17.381  28.742  0.00  0.00     0.084 H 
ENDBRANCH  58  61
ENDBRANCH  57  58
ENDBRANCH  55  57
ENDBRANCH  52  55
ENDBRANCH  49  52
ENDBRANCH  47  49
BRANCH  47  72
ATOM     72  C24 non d ame     -32.725  15.791  28.574  0.00  0.00    -0.039 C 
ATOM     73  H35 non d ame     -32.438  16.659  29.169  0.00  0.00     0.036 H 
ATOM     74  H36 non d ame     -33.688  15.309  28.744  0.00  0.00     0.036 H 
BRANCH  72  75
ATOM     75  C25 non d ame     -31.594  14.677  28.787  0.00  0.00    -0.001 C 
ATOM     76  C26 non d ame     -32.294  13.215  29.067  0.00  0.00    -0.035 C 
ATOM     77  C27 non d ame     -31.754  12.681  30.189  0.00  0.00     0.085 C 
ATOM     78  H38 non d ame     -33.344  13.348  29.328  0.00  0.00     0.036 H 
ATOM     79  H39 non d ame     -32.011  12.509  28.286  0.00  0.00     0.036 H 
ATOM     80  N5  non d ame     -30.989  13.784  30.879  0.00  0.00    -0.049 N 
ATOM     81  H40 non d ame     -32.602  12.392  30.811  0.00  0.00     0.075 H 
ATOM     82  H41 non d ame     -31.051  11.925  29.841  0.00  0.00     0.075 H 
ATOM     83  C28 non d ame     -30.836  14.967  29.791  0.00  0.00     0.193 C 
ATOM     84  H42 non d ame     -31.577  14.113  31.631  0.00  0.00     0.280 HD
ATOM     85  H43 non d ame     -30.072  13.412  31.081  0.00  0.00     0.280 HD
ATOM     86  H44 non d ame     -29.886  15.130  29.281  0.00  0.00     0.129 H 
ATOM     87  H37 non d ame     -30.824  14.718  28.017  0.00  0.00     0.046 H 
BRANCH  83  88
ATOM     88  O6  non d ame     -31.176  16.224  30.379  0.00  0.00    -0.369 OA
ATOM     89  H45 non d ame     -32.126  16.267  30.514  0.00  0.00     0.212 HD
ENDBRANCH  83  88
ENDBRANCH  72  75
ENDBRANCH  47  72
ENDBRANCH  45  47
ENDBRANCH   1  43
BRANCH   1  90
ATOM     90  C16 non d ame     -31.420  14.954  22.436  0.00  0.00    -0.035 C 
ATOM     91  H21 non d ame     -31.444  13.967  21.977  0.00  0.00     0.037 H 
ATOM     92  H22 non d ame     -32.325  15.561  22.471  0.00  0.00     0.037 H 
BRANCH  90  93
ATOM     93  C17 non d ame     -30.363  15.785  21.640  0.00  0.00    -0.059 C 
ATOM     94  H23 non d ame     -30.560  16.840  21.830  0.00  0.00     0.038 H 
BRANCH  93  95
ATOM     95  C18 non d ame     -28.903  15.480  22.104  0.00  0.00    -0.073 C 
ATOM     96  H24 non d ame     -28.384  14.920  21.327  0.00  0.00     0.028 H 
ATOM     97  H25 non d ame     -28.378  16.417  22.289  0.00  0.00     0.028 H 
ATOM     98  H26 non d ame     -28.929  14.892  23.021  0.00  0.00     0.028 H 
ENDBRANCH  93  95
BRANCH  93  99
ATOM     99  C19 non d ame     -30.513  15.559  20.133  0.00  0.00    -0.073 C 
ATOM    100  H27 non d ame     -29.534  15.620  19.657  0.00  0.00     0.028 H 
ATOM    101  H28 non d ame     -30.944  14.574  19.954  0.00  0.00     0.028 H 
ATOM    102  H29 non d ame     -31.169  16.323  19.715  0.00  0.00     0.028 H 
ENDBRANCH  93  99
ENDBRANCH  90  93
ENDBRANCH   1  90
TORSDOF 26
ENDMDL
MODEL 7
REMARK VINA RESULT:      -6.9      3.587      6.320
REMARK  26 active torsions:
REMARK  status: ('A' for Active; 'I' for Inactive)
REMARK    1  A    between atoms: C2_2  and  C3_3 
REMARK    2  A    between atoms: C4_6  and  C5_7 
REMARK       I    between atoms: C5_7  and  N2_9 
REMARK    3  A    between atoms: N2_9  and  C6_10 
REMARK    4  A    between atoms: C6_10  and  C7_11 
REMARK    5  A    between atoms: C6_10  and  C8_13 
REMARK       I    between atoms: C7_11  and  N3_14 
REMARK    6  A    between atoms: N3_14  and  C9_15 
REMARK    7  A    between atoms: C9_15  and  C10_16 
REMARK    8  A    between atoms: C9_15  and  C11_18 
REMARK       I    between atoms: C10_16  and  N4_21 
REMARK    9  A    between atoms: C11_18  and  C12_19 
REMARK   10  A    between atoms: C11_18  and  C13_20 
REMARK   11  A    between atoms: N4_21  and  C14_22 
REMARK   12  A    between atoms: C14_22  and  C15_23 
REMARK   13  A    between atoms: C14_22  and  C16_25 
REMARK       I    between atoms: C15_23  and  N6_40 
REMARK   14  A    between atoms: C16_25  and  C17_26 
REMARK   15  A    between atoms: C17_26  and  C18_27 
REMARK   16  A    between atoms: C17_26  and  C19_28 
REMARK   17  A    between atoms: C20_29  and  C21_30 
REMARK   18  A    between atoms: C20_29  and  C24_33 
REMARK   19  A    between atoms: C20_29  and  N6_40 
REMARK   20  A    between atoms: C21_30  and  C22_31 
REMARK   21  A    between atoms: C22_31  and  C23_32 
REMARK   22  A    between atoms: C23_32  and  O8_43 
REMARK   23  A    between atoms: C24_33  and  C25_34 
REMARK   24  A    between atoms: C28_38  and  O6_39 
REMARK   25  A    between atoms: C29_42  and  O8_43 
REMARK   26  A    between atoms: C29_42  and  C35_49 
ROOT
ATOM      1  C14 non d ame     -32.884  10.554  25.716  0.00  0.00     0.089 C 
ATOM      2  H20 non d ame     -33.637  10.626  24.931  0.00  0.00     0.087 H 
ENDROOT
BRANCH   1   3
ATOM      3  N4  non d ame     -32.310   9.218  25.651  0.00  0.00    -0.346 N 
ATOM      4  C10 non d ame     -32.991   8.135  24.853  0.00  0.00     0.241 C 
ATOM      5  O4  non d ame     -34.002   8.361  24.275  0.00  0.00    -0.271 OA
ATOM      6  H19 non d ame     -31.450   9.046  26.153  0.00  0.00     0.163 HD
BRANCH   4   7
ATOM      7  C9  non d ame     -32.379   6.759  24.792  0.00  0.00     0.092 C 
ATOM      8  H11 non d ame     -31.324   6.824  25.057  0.00  0.00     0.088 H 
BRANCH   7   9
ATOM      9  N3  non d ame     -33.023   5.894  25.785  0.00  0.00    -0.346 N 
ATOM     10  C7  non d ame     -32.623   5.964  27.169  0.00  0.00     0.240 C 
ATOM     11  O3  non d ame     -31.784   6.710  27.501  0.00  0.00    -0.271 OA
ATOM     12  H10 non d ame     -33.747   5.244  25.514  0.00  0.00     0.163 HD
BRANCH  10  13
ATOM     13  C6  non d ame     -33.309   5.038  28.221  0.00  0.00     0.086 C 
ATOM     14  H6  non d ame     -32.690   4.869  29.102  0.00  0.00     0.086 H 
BRANCH  13  15
ATOM     15  N2  non d ame     -34.529   5.675  28.685  0.00  0.00    -0.343 N 
ATOM     16  C5  non d ame     -34.924   5.542  30.090  0.00  0.00     0.273 C 
ATOM     17  O2  non d ame     -34.254   4.916  30.836  0.00  0.00    -0.266 OA
ATOM     18  H5  non d ame     -35.097   6.206  28.040  0.00  0.00     0.163 HD
BRANCH  16  19
ATOM     19  C4  non d ame     -36.211   6.212  30.595  0.00  0.00     0.154 A 
ATOM     20  C1  non d ame     -36.495   7.614  30.642  0.00  0.00    -0.017 A 
ATOM     21  C2  non d ame     -37.797   7.703  31.183  0.00  0.00     0.077 A 
ATOM     22  H1  non d ame     -35.854   8.439  30.331  0.00  0.00     0.091 H 
ATOM     23  O1  non d ame     -38.204   6.489  31.414  0.00  0.00    -0.218 OA
ATOM     24  N1  non d ame     -37.296   5.602  31.080  0.00  0.00    -0.123 NA
BRANCH  21  25
ATOM     25  C3  non d ame     -38.578   8.984  31.445  0.00  0.00    -0.029 C 
ATOM     26  H2  non d ame     -37.888   9.781  31.717  0.00  0.00     0.036 H 
ATOM     27  H3  non d ame     -39.123   9.267  30.545  0.00  0.00     0.036 H 
ATOM     28  H4  non d ame     -39.283   8.819  32.259  0.00  0.00     0.036 H 
ENDBRANCH  21  25
ENDBRANCH  16  19
ENDBRANCH  13  15
BRANCH  13  29
ATOM     29  C8  non d ame     -33.630   3.707  27.589  0.00  0.00    -0.049 C 
ATOM     30  H7  non d ame     -32.742   3.319  27.090  0.00  0.00     0.030 H 
ATOM     31  H8  non d ame     -33.948   3.006  28.361  0.00  0.00     0.030 H 
ATOM     32  H9  non d ame     -34.430   3.834  26.860  0.00  0.00     0.030 H 
ENDBRANCH  13  29
ENDBRANCH  10  13
ENDBRANCH   7   9
BRANCH   7  33
ATOM     33  C11 non d ame     -32.591   6.161  23.371  0.00  0.00    -0.033 C 
ATOM     34  H12 non d ame     -33.389   6.727  22.891  0.00  0.00     0.042 H 
BRANCH  33  35
ATOM     35  C12 non d ame     -31.311   6.316  22.492  0.00  0.00    -0.071 C 
ATOM     36  H13 non d ame     -31.197   5.437  21.858  0.00  0.00     0.028 H 
ATOM     37  H14 non d ame     -31.405   7.205  21.868  0.00  0.00     0.028 H 
ATOM     38  H15 non d ame     -30.438   6.415  23.137  0.00  0.00     0.028 H 
ENDBRANCH  33  35
BRANCH  33  39
ATOM     39  C13 non d ame     -33.042   4.667  23.455  0.00  0.00    -0.071 C 
ATOM     40  H16 non d ame     -32.491   4.079  22.721  0.00  0.00     0.028 H 
ATOM     41  H17 non d ame     -32.840   4.282  24.455  0.00  0.00     0.028 H 
ATOM     42  H18 non d ame     -34.110   4.598  23.249  0.00  0.00     0.028 H 
ENDBRANCH  33  39
ENDBRANCH   7  33
ENDBRANCH   4   7
ENDBRANCH   1   3
BRANCH   1  43
ATOM     43  C15 non d ame     -31.742  11.594  25.531  0.00  0.00     0.240 C 
ATOM     44  O5  non d ame     -30.644  11.340  25.910  0.00  0.00    -0.271 OA
ATOM     45  N6  non d ame     -32.014  12.904  24.874  0.00  0.00    -0.355 N 
ATOM     46  H46 non d ame     -32.942  13.129  24.544  0.00  0.00     0.162 HD
BRANCH  45  47
ATOM     47  C20 non d ame     -30.917  13.881  24.704  0.00  0.00     0.013 C 
ATOM     48  H30 non d ame     -30.095  13.577  25.352  0.00  0.00     0.072 H 
BRANCH  47  49
ATOM     49  C21 non d ame     -31.407  15.255  25.101  0.00  0.00    -0.038 C 
ATOM     50  H31 non d ame     -31.071  15.402  26.128  0.00  0.00     0.036 H 
ATOM     51  H32 non d ame     -31.065  15.928  24.314  0.00  0.00     0.036 H 
BRANCH  49  52
ATOM     52  C22 non d ame     -32.947  15.359  25.126  0.00  0.00     0.018 C 
ATOM     53  H33 non d ame     -33.222  15.883  24.211  0.00  0.00     0.048 H 
ATOM     54  H34 non d ame     -33.308  14.346  25.303  0.00  0.00     0.048 H 
BRANCH  52  55
ATOM     55  C23 non d ame     -33.498  16.221  26.296  0.00  0.00     0.259 C 
ATOM     56  O7  non d ame     -34.334  17.042  26.098  0.00  0.00    -0.265 OA
BRANCH  55  57
ATOM     57  O8  non d ame     -32.983  16.027  27.607  0.00  0.00    -0.317 OA
BRANCH  57  58
ATOM     58  C29 non d ame     -33.667  15.021  28.359  0.00  0.00     0.052 C 
ATOM     59  H47 non d ame     -34.126  15.543  29.199  0.00  0.00     0.082 H 
ATOM     60  H48 non d ame     -34.291  14.490  27.641  0.00  0.00     0.082 H 
BRANCH  58  61
ATOM     61  C35 non d ame     -32.607  14.034  28.914  0.00  0.00    -0.034 A 
ATOM     62  C30 non d ame     -32.957  13.117  29.900  0.00  0.00    -0.075 A 
ATOM     63  C31 non d ame     -32.005  12.230  30.399  0.00  0.00    -0.082 A 
ATOM     64  H49 non d ame     -33.978  13.094  30.283  0.00  0.00     0.084 H 
ATOM     65  C32 non d ame     -30.696  12.263  29.910  0.00  0.00    -0.083 A 
ATOM     66  H50 non d ame     -32.283  11.511  31.171  0.00  0.00     0.083 H 
ATOM     67  C33 non d ame     -30.350  13.182  28.928  0.00  0.00    -0.082 A 
ATOM     68  H51 non d ame     -29.945  11.572  30.294  0.00  0.00     0.083 H 
ATOM     69  C34 non d ame     -31.299  14.069  28.425  0.00  0.00    -0.075 A 
ATOM     70  H52 non d ame     -29.328  13.207  28.550  0.00  0.00     0.083 H 
ATOM     71  H53 non d ame     -31.020  14.787  27.653  0.00  0.00     0.084 H 
ENDBRANCH  58  61
ENDBRANCH  57  58
ENDBRANCH  55  57
ENDBRANCH  52  55
ENDBRANCH  49  52
ENDBRANCH  47  49
BRANCH  47  72
ATOM     72  C24 non d ame     -30.465  13.902  23.246  0.00  0.00    -0.039 C 
ATOM     73  H35 non d ame     -29.528  13.346  23.225  0.00  0.00     0.036 H 
ATOM     74  H36 non d ame     -31.321  13.548  22.672  0.00  0.00     0.036 H 
BRANCH  72  75
ATOM     75  C25 non d ame     -30.143  15.390  22.747  0.00  0.00    -0.001 C 
ATOM     76  C26 non d ame     -31.256  15.859  21.631  0.00  0.00    -0.035 C 
ATOM     77  C27 non d ame     -30.608  16.323  20.536  0.00  0.00     0.085 C 
ATOM     78  H38 non d ame     -31.800  14.992  21.257  0.00  0.00     0.036 H 
ATOM     79  H39 non d ame     -31.803  16.731  21.992  0.00  0.00     0.036 H 
ATOM     80  N5  non d ame     -29.162  15.910  20.671  0.00  0.00    -0.049 N 
ATOM     81  H40 non d ame     -31.051  15.796  19.691  0.00  0.00     0.075 H 
ATOM     82  H41 non d ame     -30.674  17.409  20.597  0.00  0.00     0.075 H 
ATOM     83  C28 non d ame     -28.971  15.459  22.209  0.00  0.00     0.193 C 
ATOM     84  H42 non d ame     -29.040  15.099  20.081  0.00  0.00     0.280 HD
ATOM     85  H43 non d ame     -28.611  16.741  20.508  0.00  0.00     0.280 HD
ATOM     86  H44 non d ame     -28.466  16.114  22.920  0.00  0.00     0.129 H 
ATOM     87  H37 non d ame     -29.954  16.072  23.576  0.00  0.00     0.046 H 
BRANCH  83  88
ATOM     88  O6  non d ame     -28.273  14.214  22.275  0.00  0.00    -0.369 OA
ATOM     89  H45 non d ame     -28.882  13.496  22.087  0.00  0.00     0.212 HD
ENDBRANCH  83  88
ENDBRANCH  72  75
ENDBRANCH  47  72
ENDBRANCH  45  47
ENDBRANCH   1  43
BRANCH   1  90
ATOM     90  C16 non d ame     -33.536  10.748  27.076  0.00  0.00    -0.035 C 
ATOM     91  H21 non d ame     -32.737  11.088  27.733  0.00  0.00     0.037 H 
ATOM     92  H22 non d ame     -34.401  11.387  26.892  0.00  0.00     0.037 H 
BRANCH  90  93
ATOM     93  C17 non d ame     -34.088   9.427  27.700  0.00  0.00    -0.059 C 
ATOM     94  H23 non d ame     -33.648   8.593  27.153  0.00  0.00     0.038 H 
BRANCH  93  95
ATOM     95  C18 non d ame     -33.691   9.274  29.203  0.00  0.00    -0.073 C 
ATOM     96  H24 non d ame     -33.601  10.260  29.657  0.00  0.00     0.028 H 
ATOM     97  H25 non d ame     -34.457   8.702  29.725  0.00  0.00     0.028 H 
ATOM     98  H26 non d ame     -32.737   8.752  29.275  0.00  0.00     0.028 H 
ENDBRANCH  93  95
BRANCH  93  99
ATOM     99  C19 non d ame     -35.606   9.332  27.526  0.00  0.00    -0.073 C 
ATOM    100  H27 non d ame     -35.931   8.309  27.714  0.00  0.00     0.028 H 
ATOM    101  H28 non d ame     -36.096  10.004  28.231  0.00  0.00     0.028 H 
ATOM    102  H29 non d ame     -35.874   9.618  26.509  0.00  0.00     0.028 H 
ENDBRANCH  93  99
ENDBRANCH  90  93
ENDBRANCH   1  90
TORSDOF 26
ENDMDL
MODEL 8
REMARK VINA RESULT:      -6.9      2.639      5.851
REMARK  26 active torsions:
REMARK  status: ('A' for Active; 'I' for Inactive)
REMARK    1  A    between atoms: C2_2  and  C3_3 
REMARK    2  A    between atoms: C4_6  and  C5_7 
REMARK       I    between atoms: C5_7  and  N2_9 
REMARK    3  A    between atoms: N2_9  and  C6_10 
REMARK    4  A    between atoms: C6_10  and  C7_11 
REMARK    5  A    between atoms: C6_10  and  C8_13 
REMARK       I    between atoms: C7_11  and  N3_14 
REMARK    6  A    between atoms: N3_14  and  C9_15 
REMARK    7  A    between atoms: C9_15  and  C10_16 
REMARK    8  A    between atoms: C9_15  and  C11_18 
REMARK       I    between atoms: C10_16  and  N4_21 
REMARK    9  A    between atoms: C11_18  and  C12_19 
REMARK   10  A    between atoms: C11_18  and  C13_20 
REMARK   11  A    between atoms: N4_21  and  C14_22 
REMARK   12  A    between atoms: C14_22  and  C15_23 
REMARK   13  A    between atoms: C14_22  and  C16_25 
REMARK       I    between atoms: C15_23  and  N6_40 
REMARK   14  A    between atoms: C16_25  and  C17_26 
REMARK   15  A    between atoms: C17_26  and  C18_27 
REMARK   16  A    between atoms: C17_26  and  C19_28 
REMARK   17  A    between atoms: C20_29  and  C21_30 
REMARK   18  A    between atoms: C20_29  and  C24_33 
REMARK   19  A    between atoms: C20_29  and  N6_40 
REMARK   20  A    between atoms: C21_30  and  C22_31 
REMARK   21  A    between atoms: C22_31  and  C23_32 
REMARK   22  A    between atoms: C23_32  and  O8_43 
REMARK   23  A    between atoms: C24_33  and  C25_34 
REMARK   24  A    between atoms: C28_38  and  O6_39 
REMARK   25  A    between atoms: C29_42  and  O8_43 
REMARK   26  A    between atoms: C29_42  and  C35_49 
ROOT
ATOM      1  C14 non d ame     -33.023  10.246  26.393  0.00  0.00     0.089 C 
ATOM      2  H20 non d ame     -33.825  10.580  25.734  0.00  0.00     0.087 H 
ENDROOT
BRANCH   1   3
ATOM      3  N4  non d ame     -32.314   9.174  25.711  0.00  0.00    -0.346 N 
ATOM      4  C10 non d ame     -33.051   8.246  24.777  0.00  0.00     0.241 C 
ATOM      5  O4  non d ame     -34.216   8.382  24.593  0.00  0.00    -0.271 OA
ATOM      6  H19 non d ame     -31.323   9.074  25.883  0.00  0.00     0.163 HD
BRANCH   4   7
ATOM      7  C9  non d ame     -32.300   7.145  24.075  0.00  0.00     0.092 C 
ATOM      8  H11 non d ame     -32.845   6.857  23.176  0.00  0.00     0.088 H 
BRANCH   7   9
ATOM      9  N3  non d ame     -30.989   7.643  23.648  0.00  0.00    -0.346 N 
ATOM     10  C7  non d ame     -30.785   8.051  22.279  0.00  0.00     0.240 C 
ATOM     11  O3  non d ame     -31.664   7.985  21.509  0.00  0.00    -0.271 OA
ATOM     12  H10 non d ame     -30.221   7.704  24.300  0.00  0.00     0.163 HD
BRANCH  10  13
ATOM     13  C6  non d ame     -29.387   8.577  21.829  0.00  0.00     0.086 C 
ATOM     14  H6  non d ame     -29.074   8.172  20.867  0.00  0.00     0.086 H 
BRANCH  13  15
ATOM     15  N2  non d ame     -29.454  10.020  21.671  0.00  0.00    -0.343 N 
ATOM     16  C5  non d ame     -29.912  10.848  22.789  0.00  0.00     0.273 C 
ATOM     17  O2  non d ame     -30.228  10.343  23.810  0.00  0.00    -0.266 OA
ATOM     18  H5  non d ame     -29.185  10.443  20.794  0.00  0.00     0.163 HD
BRANCH  16  19
ATOM     19  C4  non d ame     -29.987  12.375  22.637  0.00  0.00     0.154 A 
ATOM     20  C1  non d ame     -30.728  13.290  23.450  0.00  0.00    -0.017 A 
ATOM     21  C2  non d ame     -30.463  14.563  22.898  0.00  0.00     0.077 A 
ATOM     22  H1  non d ame     -31.361  13.065  24.309  0.00  0.00     0.091 H 
ATOM     23  O1  non d ame     -29.662  14.389  21.888  0.00  0.00    -0.218 OA
ATOM     24  N1  non d ame     -29.370  13.120  21.715  0.00  0.00    -0.123 NA
BRANCH  21  25
ATOM     25  C3  non d ame     -31.013  15.894  23.396  0.00  0.00    -0.029 C 
ATOM     26  H2  non d ame     -31.302  16.509  22.544  0.00  0.00     0.036 H 
ATOM     27  H3  non d ame     -31.885  15.714  24.025  0.00  0.00     0.036 H 
ATOM     28  H4  non d ame     -30.248  16.410  23.975  0.00  0.00     0.036 H 
ENDBRANCH  21  25
ENDBRANCH  16  19
ENDBRANCH  13  15
BRANCH  13  29
ATOM     29  C8  non d ame     -28.354   8.219  22.868  0.00  0.00    -0.049 C 
ATOM     30  H7  non d ame     -28.664   8.608  23.838  0.00  0.00     0.030 H 
ATOM     31  H8  non d ame     -28.258   7.135  22.925  0.00  0.00     0.030 H 
ATOM     32  H9  non d ame     -27.394   8.655  22.592  0.00  0.00     0.030 H 
ENDBRANCH  13  29
ENDBRANCH  10  13
ENDBRANCH   7   9
BRANCH   7  33
ATOM     33  C11 non d ame     -32.105   5.948  25.050  0.00  0.00    -0.033 C 
ATOM     34  H12 non d ame     -31.057   5.653  25.003  0.00  0.00     0.042 H 
BRANCH  33  35
ATOM     35  C12 non d ame     -32.410   6.359  26.524  0.00  0.00    -0.071 C 
ATOM     36  H13 non d ame     -32.192   5.522  27.188  0.00  0.00     0.028 H 
ATOM     37  H14 non d ame     -31.789   7.211  26.799  0.00  0.00     0.028 H 
ATOM     38  H15 non d ame     -33.461   6.631  26.616  0.00  0.00     0.028 H 
ENDBRANCH  33  35
BRANCH  33  39
ATOM     39  C13 non d ame     -32.972   4.723  24.613  0.00  0.00    -0.071 C 
ATOM     40  H16 non d ame     -33.270   4.156  25.495  0.00  0.00     0.028 H 
ATOM     41  H17 non d ame     -33.861   5.076  24.089  0.00  0.00     0.028 H 
ATOM     42  H18 non d ame     -32.389   4.084  23.949  0.00  0.00     0.028 H 
ENDBRANCH  33  39
ENDBRANCH   7  33
ENDBRANCH   4   7
ENDBRANCH   1   3
BRANCH   1  43
ATOM     43  C15 non d ame     -32.011  11.384  26.710  0.00  0.00     0.240 C 
ATOM     44  O5  non d ame     -30.859  11.238  26.460  0.00  0.00    -0.271 OA
ATOM     45  N6  non d ame     -32.481  12.661  27.319  0.00  0.00    -0.355 N 
ATOM     46  H46 non d ame     -33.459  12.799  27.532  0.00  0.00     0.162 HD
BRANCH  45  47
ATOM     47  C20 non d ame     -31.508  13.735  27.614  0.00  0.00     0.013 C 
ATOM     48  H30 non d ame     -30.611  13.546  27.023  0.00  0.00     0.072 H 
BRANCH  47  49
ATOM     49  C21 non d ame     -31.169  13.711  29.088  0.00  0.00    -0.038 C 
ATOM     50  H31 non d ame     -30.282  13.084  29.176  0.00  0.00     0.036 H 
ATOM     51  H32 non d ame     -31.131  14.756  29.397  0.00  0.00     0.036 H 
BRANCH  49  52
ATOM     52  C22 non d ame     -32.265  13.041  29.944  0.00  0.00     0.018 C 
ATOM     53  H33 non d ame     -32.544  13.778  30.696  0.00  0.00     0.048 H 
ATOM     54  H34 non d ame     -33.010  12.675  29.237  0.00  0.00     0.048 H 
BRANCH  52  55
ATOM     55  C23 non d ame     -31.772  11.794  30.729  0.00  0.00     0.259 C 
ATOM     56  O7  non d ame     -30.642  11.716  31.089  0.00  0.00    -0.265 OA
BRANCH  55  57
ATOM     57  O8  non d ame     -32.684  10.738  31.004  0.00  0.00    -0.317 OA
BRANCH  57  58
ATOM     58  C29 non d ame     -33.937  11.175  31.538  0.00  0.00     0.052 C 
ATOM     59  H47 non d ame     -33.750  11.387  32.591  0.00  0.00     0.082 H 
ATOM     60  H48 non d ame     -34.280  11.968  30.875  0.00  0.00     0.082 H 
BRANCH  58  61
ATOM     61  C35 non d ame     -34.936   9.991  31.446  0.00  0.00    -0.034 A 
ATOM     62  C30 non d ame     -36.304  10.224  31.544  0.00  0.00    -0.075 A 
ATOM     63  C31 non d ame     -37.202   9.161  31.462  0.00  0.00    -0.082 A 
ATOM     64  H49 non d ame     -36.673  11.240  31.687  0.00  0.00     0.084 H 
ATOM     65  C32 non d ame     -36.726   7.859  31.283  0.00  0.00    -0.083 A 
ATOM     66  H50 non d ame     -38.273   9.347  31.538  0.00  0.00     0.083 H 
ATOM     67  C33 non d ame     -35.360   7.630  31.188  0.00  0.00    -0.082 A 
ATOM     68  H51 non d ame     -37.421   7.022  31.216  0.00  0.00     0.083 H 
ATOM     69  C34 non d ame     -34.460   8.691  31.268  0.00  0.00    -0.075 A 
ATOM     70  H52 non d ame     -34.993   6.613  31.051  0.00  0.00     0.083 H 
ATOM     71  H53 non d ame     -33.388   8.503  31.192  0.00  0.00     0.084 H 
ENDBRANCH  58  61
ENDBRANCH  57  58
ENDBRANCH  55  57
ENDBRANCH  52  55
ENDBRANCH  49  52
ENDBRANCH  47  49
BRANCH  47  72
ATOM     72  C24 non d ame     -32.108  15.091  27.250  0.00  0.00    -0.039 C 
ATOM     73  H35 non d ame     -31.870  15.748  28.088  0.00  0.00     0.036 H 
ATOM     74  H36 non d ame     -31.728  15.319  26.254  0.00  0.00     0.036 H 
BRANCH  72  75
ATOM     75  C25 non d ame     -33.705  15.023  27.143  0.00  0.00    -0.001 C 
ATOM     76  C26 non d ame     -34.177  15.357  25.603  0.00  0.00    -0.035 C 
ATOM     77  C27 non d ame     -35.126  16.323  25.638  0.00  0.00     0.085 C 
ATOM     78  H38 non d ame     -33.359  15.822  25.054  0.00  0.00     0.036 H 
ATOM     79  H39 non d ame     -34.701  14.500  25.179  0.00  0.00     0.036 H 
ATOM     80  N5  non d ame     -35.109  16.909  27.029  0.00  0.00    -0.049 N 
ATOM     81  H40 non d ame     -34.795  17.082  24.929  0.00  0.00     0.075 H 
ATOM     82  H41 non d ame     -36.073  15.807  25.482  0.00  0.00     0.075 H 
ATOM     83  C28 non d ame     -34.264  15.875  27.936  0.00  0.00     0.193 C 
ATOM     84  H42 non d ame     -34.596  17.777  26.969  0.00  0.00     0.280 HD
ATOM     85  H43 non d ame     -36.067  16.909  27.350  0.00  0.00     0.280 HD
ATOM     86  H44 non d ame     -34.771  15.200  28.626  0.00  0.00     0.129 H 
ATOM     87  H37 non d ame     -34.111  14.121  27.602  0.00  0.00     0.046 H 
BRANCH  83  88
ATOM     88  O6  non d ame     -33.307  16.581  28.728  0.00  0.00    -0.369 OA
ATOM     89  H45 non d ame     -32.609  16.919  28.162  0.00  0.00     0.212 HD
ENDBRANCH  83  88
ENDBRANCH  72  75
ENDBRANCH  47  72
ENDBRANCH  45  47
ENDBRANCH   1  43
BRANCH   1  90
ATOM     90  C16 non d ame     -33.610   9.708  27.688  0.00  0.00    -0.035 C 
ATOM     91  H21 non d ame     -33.427   8.634  27.663  0.00  0.00     0.037 H 
ATOM     92  H22 non d ame     -33.172  10.317  28.478  0.00  0.00     0.037 H 
BRANCH  90  93
ATOM     93  C17 non d ame     -35.157   9.888  27.797  0.00  0.00    -0.059 C 
ATOM     94  H23 non d ame     -35.377  10.266  28.795  0.00  0.00     0.038 H 
BRANCH  93  95
ATOM     95  C18 non d ame     -35.704  10.925  26.764  0.00  0.00    -0.073 C 
ATOM     96  H24 non d ame     -34.878  11.319  26.172  0.00  0.00     0.028 H 
ATOM     97  H25 non d ame     -36.423  10.439  26.105  0.00  0.00     0.028 H 
ATOM     98  H26 non d ame     -36.193  11.743  27.294  0.00  0.00     0.028 H 
ENDBRANCH  93  95
BRANCH  93  99
ATOM     99  C19 non d ame     -35.876   8.544  27.651  0.00  0.00    -0.073 C 
ATOM    100  H27 non d ame     -35.347   7.785  28.227  0.00  0.00     0.028 H 
ATOM    101  H28 non d ame     -36.897   8.636  28.023  0.00  0.00     0.028 H 
ATOM    102  H29 non d ame     -35.898   8.256  26.601  0.00  0.00     0.028 H 
ENDBRANCH  93  99
ENDBRANCH  90  93
ENDBRANCH   1  90
TORSDOF 26
ENDMDL
MODEL 9
REMARK VINA RESULT:      -6.8      2.508      4.010
REMARK  26 active torsions:
REMARK  status: ('A' for Active; 'I' for Inactive)
REMARK    1  A    between atoms: C2_2  and  C3_3 
REMARK    2  A    between atoms: C4_6  and  C5_7 
REMARK       I    between atoms: C5_7  and  N2_9 
REMARK    3  A    between atoms: N2_9  and  C6_10 
REMARK    4  A    between atoms: C6_10  and  C7_11 
REMARK    5  A    between atoms: C6_10  and  C8_13 
REMARK       I    between atoms: C7_11  and  N3_14 
REMARK    6  A    between atoms: N3_14  and  C9_15 
REMARK    7  A    between atoms: C9_15  and  C10_16 
REMARK    8  A    between atoms: C9_15  and  C11_18 
REMARK       I    between atoms: C10_16  and  N4_21 
REMARK    9  A    between atoms: C11_18  and  C12_19 
REMARK   10  A    between atoms: C11_18  and  C13_20 
REMARK   11  A    between atoms: N4_21  and  C14_22 
REMARK   12  A    between atoms: C14_22  and  C15_23 
REMARK   13  A    between atoms: C14_22  and  C16_25 
REMARK       I    between atoms: C15_23  and  N6_40 
REMARK   14  A    between atoms: C16_25  and  C17_26 
REMARK   15  A    between atoms: C17_26  and  C18_27 
REMARK   16  A    between atoms: C17_26  and  C19_28 
REMARK   17  A    between atoms: C20_29  and  C21_30 
REMARK   18  A    between atoms: C20_29  and  C24_33 
REMARK   19  A    between atoms: C20_29  and  N6_40 
REMARK   20  A    between atoms: C21_30  and  C22_31 
REMARK   21  A    between atoms: C22_31  and  C23_32 
REMARK   22  A    between atoms: C23_32  and  O8_43 
REMARK   23  A    between atoms: C24_33  and  C25_34 
REMARK   24  A    between atoms: C28_38  and  O6_39 
REMARK   25  A    between atoms: C29_42  and  O8_43 
REMARK   26  A    between atoms: C29_42  and  C35_49 
ROOT
ATOM      1  C14 non d ame     -30.702  14.198  23.859  0.00  0.00     0.089 C 
ATOM      2  H20 non d ame     -29.619  14.119  23.758  0.00  0.00     0.087 H 
ENDROOT
BRANCH   1   3
ATOM      3  N4  non d ame     -31.219  12.860  24.104  0.00  0.00    -0.346 N 
ATOM      4  C10 non d ame     -30.638  11.674  23.377  0.00  0.00     0.241 C 
ATOM      5  O4  non d ame     -29.755  11.821  22.597  0.00  0.00    -0.271 OA
ATOM      6  H19 non d ame     -31.972  12.756  24.770  0.00  0.00     0.163 HD
BRANCH   4   7
ATOM      7  C9  non d ame     -31.181  10.295  23.647  0.00  0.00     0.092 C 
ATOM      8  H11 non d ame     -30.673   9.873  24.514  0.00  0.00     0.088 H 
BRANCH   7   9
ATOM      9  N3  non d ame     -32.605  10.388  23.983  0.00  0.00    -0.346 N 
ATOM     10  C7  non d ame     -33.050  10.093  25.323  0.00  0.00     0.240 C 
ATOM     11  O3  non d ame     -32.277   9.778  26.142  0.00  0.00    -0.271 OA
ATOM     12  H10 non d ame     -33.285  10.657  23.286  0.00  0.00     0.163 HD
BRANCH  10  13
ATOM     13  C6  non d ame     -34.568  10.190  25.673  0.00  0.00     0.086 C 
ATOM     14  H6  non d ame     -35.210   9.831  24.869  0.00  0.00     0.086 H 
BRANCH  13  15
ATOM     15  N2  non d ame     -34.840   9.352  26.829  0.00  0.00    -0.343 N 
ATOM     16  C5  non d ame     -35.373   8.002  26.632  0.00  0.00     0.273 C 
ATOM     17  O2  non d ame     -35.582   7.601  25.539  0.00  0.00    -0.266 OA
ATOM     18  H5  non d ame     -34.661   9.704  27.759  0.00  0.00     0.163 HD
BRANCH  16  19
ATOM     19  C4  non d ame     -35.663   7.105  27.844  0.00  0.00     0.154 A 
ATOM     20  C1  non d ame     -36.795   7.170  28.717  0.00  0.00    -0.017 A 
ATOM     21  C2  non d ame     -36.588   6.138  29.660  0.00  0.00     0.077 A 
ATOM     22  H1  non d ame     -37.637   7.861  28.674  0.00  0.00     0.091 H 
ATOM     23  O1  non d ame     -35.467   5.554  29.354  0.00  0.00    -0.218 OA
ATOM     24  N1  non d ame     -34.908   6.100  28.298  0.00  0.00    -0.123 NA
BRANCH  21  25
ATOM     25  C3  non d ame     -37.508   5.777  30.818  0.00  0.00    -0.029 C 
ATOM     26  H2  non d ame     -38.422   5.328  30.430  0.00  0.00     0.036 H 
ATOM     27  H3  non d ame     -37.005   5.067  31.473  0.00  0.00     0.036 H 
ATOM     28  H4  non d ame     -37.756   6.677  31.380  0.00  0.00     0.036 H 
ENDBRANCH  21  25
ENDBRANCH  16  19
ENDBRANCH  13  15
BRANCH  13  29
ATOM     29  C8  non d ame     -34.925  11.623  25.978  0.00  0.00    -0.049 C 
ATOM     30  H7  non d ame     -34.216  12.287  25.484  0.00  0.00     0.030 H 
ATOM     31  H8  non d ame     -35.931  11.832  25.616  0.00  0.00     0.030 H 
ATOM     32  H9  non d ame     -34.885  11.786  27.055  0.00  0.00     0.030 H 
ENDBRANCH  13  29
ENDBRANCH  10  13
ENDBRANCH   7   9
BRANCH   7  33
ATOM     33  C11 non d ame     -31.007   9.411  22.378  0.00  0.00    -0.033 C 
ATOM     34  H12 non d ame     -30.880  10.080  21.527  0.00  0.00     0.042 H 
BRANCH  33  35
ATOM     35  C12 non d ame     -29.725   8.526  22.474  0.00  0.00    -0.071 C 
ATOM     36  H13 non d ame     -29.069   8.744  21.631  0.00  0.00     0.028 H 
ATOM     37  H14 non d ame     -29.204   8.741  23.406  0.00  0.00     0.028 H 
ATOM     38  H15 non d ame     -30.008   7.473  22.449  0.00  0.00     0.028 H 
ENDBRANCH  33  35
BRANCH  33  39
ATOM     39  C13 non d ame     -32.279   8.541  22.123  0.00  0.00    -0.071 C 
ATOM     40  H16 non d ame     -32.481   7.927  23.001  0.00  0.00     0.028 H 
ATOM     41  H17 non d ame     -33.132   9.192  21.931  0.00  0.00     0.028 H 
ATOM     42  H18 non d ame     -32.112   7.897  21.260  0.00  0.00     0.028 H 
ENDBRANCH  33  39
ENDBRANCH   7  33
ENDBRANCH   4   7
ENDBRANCH   1   3
BRANCH   1  43
ATOM     43  C15 non d ame     -31.116  15.114  25.046  0.00  0.00     0.240 C 
ATOM     44  O5  non d ame     -30.817  16.265  25.037  0.00  0.00    -0.271 OA
ATOM     45  N6  non d ame     -31.893  14.559  26.191  0.00  0.00    -0.355 N 
ATOM     46  H46 non d ame     -32.157  13.585  26.207  0.00  0.00     0.162 HD
BRANCH  45  47
ATOM     47  C20 non d ame     -32.280  15.444  27.311  0.00  0.00     0.013 C 
ATOM     48  H30 non d ame     -31.373  15.901  27.706  0.00  0.00     0.072 H 
BRANCH  47  49
ATOM     49  C21 non d ame     -32.955  14.622  28.386  0.00  0.00    -0.038 C 
ATOM     50  H31 non d ame     -33.592  15.318  28.932  0.00  0.00     0.036 H 
ATOM     51  H32 non d ame     -33.395  13.768  27.870  0.00  0.00     0.036 H 
BRANCH  49  52
ATOM     52  C22 non d ame     -31.958  14.045  29.414  0.00  0.00     0.018 C 
ATOM     53  H33 non d ame     -31.044  14.627  29.298  0.00  0.00     0.048 H 
ATOM     54  H34 non d ame     -32.486  14.042  30.368  0.00  0.00     0.048 H 
BRANCH  52  55
ATOM     55  C23 non d ame     -31.561  12.567  29.140  0.00  0.00     0.259 C 
ATOM     56  O7  non d ame     -30.981  12.273  28.146  0.00  0.00    -0.265 OA
BRANCH  55  57
ATOM     57  O8  non d ame     -31.911  11.565  30.087  0.00  0.00    -0.317 OA
BRANCH  57  58
ATOM     58  C29 non d ame     -32.830  10.589  29.590  0.00  0.00     0.052 C 
ATOM     59  H47 non d ame     -33.392  11.088  28.800  0.00  0.00     0.082 H 
ATOM     60  H48 non d ame     -32.230   9.709  29.359  0.00  0.00     0.082 H 
BRANCH  58  61
ATOM     61  C35 non d ame     -33.812  10.227  30.736  0.00  0.00    -0.034 A 
ATOM     62  C30 non d ame     -34.178  11.190  31.670  0.00  0.00    -0.075 A 
ATOM     63  C31 non d ame     -35.059  10.865  32.700  0.00  0.00    -0.082 A 
ATOM     64  H49 non d ame     -33.774  12.200  31.596  0.00  0.00     0.084 H 
ATOM     65  C32 non d ame     -35.573   9.569  32.796  0.00  0.00    -0.083 A 
ATOM     66  H50 non d ame     -35.345  11.623  33.430  0.00  0.00     0.083 H 
ATOM     67  C33 non d ame     -35.202   8.610  31.863  0.00  0.00    -0.082 A 
ATOM     68  H51 non d ame     -36.263   9.307  33.598  0.00  0.00     0.083 H 
ATOM     69  C34 non d ame     -34.324   8.931  30.831  0.00  0.00    -0.075 A 
ATOM     70  H52 non d ame     -35.603   7.599  31.942  0.00  0.00     0.083 H 
ATOM     71  H53 non d ame     -34.038   8.173  30.101  0.00  0.00     0.084 H 
ENDBRANCH  58  61
ENDBRANCH  57  58
ENDBRANCH  55  57
ENDBRANCH  52  55
ENDBRANCH  49  52
ENDBRANCH  47  49
BRANCH  47  72
ATOM     72  C24 non d ame     -33.242  16.519  26.812  0.00  0.00    -0.039 C 
ATOM     73  H35 non d ame     -32.714  17.030  26.006  0.00  0.00     0.036 H 
ATOM     74  H36 non d ame     -34.177  15.999  26.605  0.00  0.00     0.036 H 
BRANCH  72  75
ATOM     75  C25 non d ame     -33.548  17.612  27.942  0.00  0.00    -0.001 C 
ATOM     76  C26 non d ame     -35.164  17.909  28.011  0.00  0.00    -0.035 C 
ATOM     77  C27 non d ame     -35.365  19.247  27.942  0.00  0.00     0.085 C 
ATOM     78  H38 non d ame     -35.652  17.532  27.112  0.00  0.00     0.036 H 
ATOM     79  H39 non d ame     -35.552  17.644  28.994  0.00  0.00     0.036 H 
ATOM     80  N5  non d ame     -34.060  19.867  27.504  0.00  0.00    -0.049 N 
ATOM     81  H40 non d ame     -36.107  19.390  27.157  0.00  0.00     0.075 H 
ATOM     82  H41 non d ame     -35.583  19.562  28.962  0.00  0.00     0.075 H 
ATOM     83  C28 non d ame     -32.938  18.723  27.697  0.00  0.00     0.193 C 
ATOM     84  H42 non d ame     -34.153  20.064  26.518  0.00  0.00     0.280 HD
ATOM     85  H43 non d ame     -33.869  20.618  28.153  0.00  0.00     0.280 HD
ATOM     86  H44 non d ame     -32.247  18.760  28.540  0.00  0.00     0.129 H 
ATOM     87  H37 non d ame     -33.046  17.385  28.883  0.00  0.00     0.046 H 
BRANCH  83  88
ATOM     88  O6  non d ame     -32.114  18.639  26.532  0.00  0.00    -0.369 OA
ATOM     89  H45 non d ame     -31.524  17.886  26.611  0.00  0.00     0.212 HD
ENDBRANCH  83  88
ENDBRANCH  72  75
ENDBRANCH  47  72
ENDBRANCH  45  47
ENDBRANCH   1  43
BRANCH   1  90
ATOM     90  C16 non d ame     -31.301  14.733  22.568  0.00  0.00    -0.035 C 
ATOM     91  H21 non d ame     -31.955  13.941  22.204  0.00  0.00     0.037 H 
ATOM     92  H22 non d ame     -31.716  15.708  22.824  0.00  0.00     0.037 H 
BRANCH  90  93
ATOM     93  C17 non d ame     -30.246  14.984  21.444  0.00  0.00    -0.059 C 
ATOM     94  H23 non d ame     -30.160  14.068  20.860  0.00  0.00     0.038 H 
BRANCH  93  95
ATOM     95  C18 non d ame     -30.680  16.129  20.473  0.00  0.00    -0.073 C 
ATOM     96  H24 non d ame     -31.680  16.469  20.737  0.00  0.00     0.028 H 
ATOM     97  H25 non d ame     -29.980  16.960  20.556  0.00  0.00     0.028 H 
ATOM     98  H26 non d ame     -30.681  15.756  19.449  0.00  0.00     0.028 H 
ENDBRANCH  93  95
BRANCH  93  99
ATOM     99  C19 non d ame     -28.867  15.272  22.044  0.00  0.00    -0.073 C 
ATOM    100  H27 non d ame     -28.951  15.350  23.128  0.00  0.00     0.028 H 
ATOM    101  H28 non d ame     -28.184  14.461  21.790  0.00  0.00     0.028 H 
ATOM    102  H29 non d ame     -28.483  16.208  21.640  0.00  0.00     0.028 H 
ENDBRANCH  93  99
ENDBRANCH  90  93
ENDBRANCH   1  90
TORSDOF 26
ENDMDL
MODEL 10
REMARK VINA RESULT:      -6.8      2.164      8.437
REMARK  26 active torsions:
REMARK  status: ('A' for Active; 'I' for Inactive)
REMARK    1  A    between atoms: C2_2  and  C3_3 
REMARK    2  A    between atoms: C4_6  and  C5_7 
REMARK       I    between atoms: C5_7  and  N2_9 
REMARK    3  A    between atoms: N2_9  and  C6_10 
REMARK    4  A    between atoms: C6_10  and  C7_11 
REMARK    5  A    between atoms: C6_10  and  C8_13 
REMARK       I    between atoms: C7_11  and  N3_14 
REMARK    6  A    between atoms: N3_14  and  C9_15 
REMARK    7  A    between atoms: C9_15  and  C10_16 
REMARK    8  A    between atoms: C9_15  and  C11_18 
REMARK       I    between atoms: C10_16  and  N4_21 
REMARK    9  A    between atoms: C11_18  and  C12_19 
REMARK   10  A    between atoms: C11_18  and  C13_20 
REMARK   11  A    between atoms: N4_21  and  C14_22 
REMARK   12  A    between atoms: C14_22  and  C15_23 
REMARK   13  A    between atoms: C14_22  and  C16_25 
REMARK       I    between atoms: C15_23  and  N6_40 
REMARK   14  A    between atoms: C16_25  and  C17_26 
REMARK   15  A    between atoms: C17_26  and  C18_27 
REMARK   16  A    between atoms: C17_26  and  C19_28 
REMARK   17  A    between atoms: C20_29  and  C21_30 
REMARK   18  A    between atoms: C20_29  and  C24_33 
REMARK   19  A    between atoms: C20_29  and  N6_40 
REMARK   20  A    between atoms: C21_30  and  C22_31 
REMARK   21  A    between atoms: C22_31  and  C23_32 
REMARK   22  A    between atoms: C23_32  and  O8_43 
REMARK   23  A    between atoms: C24_33  and  C25_34 
REMARK   24  A    between atoms: C28_38  and  O6_39 
REMARK   25  A    between atoms: C29_42  and  O8_43 
REMARK   26  A    between atoms: C29_42  and  C35_49 
ROOT
ATOM      1  C14 non d ame     -37.625  13.903  25.224  0.00  0.00     0.089 C 
ATOM      2  H20 non d ame     -38.607  13.969  25.693  0.00  0.00     0.087 H 
ENDROOT
BRANCH   1   3
ATOM      3  N4  non d ame     -37.032  15.232  25.258  0.00  0.00    -0.346 N 
ATOM      4  C10 non d ame     -37.442  16.222  26.320  0.00  0.00     0.241 C 
ATOM      5  O4  non d ame     -38.253  15.926  27.134  0.00  0.00    -0.271 OA
ATOM      6  H19 non d ame     -36.346  15.465  24.554  0.00  0.00     0.163 HD
BRANCH   4   7
ATOM      7  C9  non d ame     -36.815  17.591  26.343  0.00  0.00     0.092 C 
ATOM      8  H11 non d ame     -37.230  18.161  27.175  0.00  0.00     0.088 H 
BRANCH   7   9
ATOM      9  N3  non d ame     -35.374  17.464  26.581  0.00  0.00    -0.346 N 
ATOM     10  C7  non d ame     -34.774  18.102  27.728  0.00  0.00     0.240 C 
ATOM     11  O3  non d ame     -35.436  18.722  28.468  0.00  0.00    -0.271 OA
ATOM     12  H10 non d ame     -34.790  16.934  25.951  0.00  0.00     0.163 HD
BRANCH  10  13
ATOM     13  C6  non d ame     -33.239  17.966  27.974  0.00  0.00     0.086 C 
ATOM     14  H6  non d ame     -32.921  18.422  28.912  0.00  0.00     0.086 H 
BRANCH  13  15
ATOM     15  N2  non d ame     -32.899  16.556  28.061  0.00  0.00    -0.343 N 
ATOM     16  C5  non d ame     -32.099  16.075  29.189  0.00  0.00     0.273 C 
ATOM     17  O2  non d ame     -31.732  16.831  30.021  0.00  0.00    -0.266 OA
ATOM     18  H5  non d ame     -33.214  15.917  27.344  0.00  0.00     0.163 HD
BRANCH  16  19
ATOM     19  C4  non d ame     -31.733  14.586  29.294  0.00  0.00     0.154 A 
ATOM     20  C1  non d ame     -32.550  13.529  29.807  0.00  0.00    -0.017 A 
ATOM     21  C2  non d ame     -31.758  12.365  29.683  0.00  0.00     0.077 A 
ATOM     22  H1  non d ame     -33.561  13.596  30.207  0.00  0.00     0.091 H 
ATOM     23  O1  non d ame     -30.623  12.723  29.158  0.00  0.00    -0.218 OA
ATOM     24  N1  non d ame     -30.584  14.015  28.923  0.00  0.00    -0.123 NA
BRANCH  21  25
ATOM     25  C3  non d ame     -32.161  10.954  30.087  0.00  0.00    -0.029 C 
ATOM     26  H2  non d ame     -32.269  10.337  29.196  0.00  0.00     0.036 H 
ATOM     27  H3  non d ame     -31.392  10.527  30.732  0.00  0.00     0.036 H 
ATOM     28  H4  non d ame     -33.109  10.986  30.624  0.00  0.00     0.036 H 
ENDBRANCH  21  25
ENDBRANCH  16  19
ENDBRANCH  13  15
BRANCH  13  29
ATOM     29  C8  non d ame     -32.486  18.611  26.838  0.00  0.00    -0.049 C 
ATOM     30  H7  non d ame     -31.426  18.375  26.926  0.00  0.00     0.030 H 
ATOM     31  H8  non d ame     -32.866  18.232  25.890  0.00  0.00     0.030 H 
ATOM     32  H9  non d ame     -32.623  19.692  26.879  0.00  0.00     0.030 H 
ENDBRANCH  13  29
ENDBRANCH  10  13
ENDBRANCH   7   9
BRANCH   7  33
ATOM     33  C11 non d ame     -37.052  18.294  24.975  0.00  0.00    -0.033 C 
ATOM     34  H12 non d ame     -36.545  17.704  24.210  0.00  0.00     0.042 H 
BRANCH  33  35
ATOM     35  C12 non d ame     -38.569  18.331  24.610  0.00  0.00    -0.071 C 
ATOM     36  H13 non d ame     -39.002  17.342  24.759  0.00  0.00     0.028 H 
ATOM     37  H14 non d ame     -39.078  19.051  25.249  0.00  0.00     0.028 H 
ATOM     38  H15 non d ame     -38.684  18.624  23.567  0.00  0.00     0.028 H 
ENDBRANCH  33  35
BRANCH  33  39
ATOM     39  C13 non d ame     -36.432  19.728  24.968  0.00  0.00    -0.071 C 
ATOM     40  H16 non d ame     -36.002  19.943  25.947  0.00  0.00     0.028 H 
ATOM     41  H17 non d ame     -35.653  19.784  24.208  0.00  0.00     0.028 H 
ATOM     42  H18 non d ame     -37.210  20.459  24.744  0.00  0.00     0.028 H 
ENDBRANCH  33  39
ENDBRANCH   7  33
ENDBRANCH   4   7
ENDBRANCH   1   3
BRANCH   1  43
ATOM     43  C15 non d ame     -36.680  12.921  25.973  0.00  0.00     0.240 C 
ATOM     44  O5  non d ame     -36.805  12.759  27.144  0.00  0.00    -0.271 OA
ATOM     45  N6  non d ame     -35.625  12.174  25.230  0.00  0.00    -0.355 N 
ATOM     46  H46 non d ame     -35.513  12.300  24.234  0.00  0.00     0.162 HD
BRANCH  45  47
ATOM     47  C20 non d ame     -34.737  11.243  25.957  0.00  0.00     0.013 C 
ATOM     48  H30 non d ame     -35.348  10.672  26.656  0.00  0.00     0.072 H 
BRANCH  47  49
ATOM     49  C21 non d ame     -33.692  12.034  26.711  0.00  0.00    -0.038 C 
ATOM     50  H31 non d ame     -34.244  12.781  27.283  0.00  0.00     0.036 H 
ATOM     51  H32 non d ame     -33.079  11.295  27.227  0.00  0.00     0.036 H 
BRANCH  49  52
ATOM     52  C22 non d ame     -32.742  12.815  25.777  0.00  0.00     0.018 C 
ATOM     53  H33 non d ame     -31.742  12.672  26.187  0.00  0.00     0.048 H 
ATOM     54  H34 non d ame     -32.971  12.471  24.768  0.00  0.00     0.048 H 
BRANCH  52  55
ATOM     55  C23 non d ame     -32.988  14.349  25.774  0.00  0.00     0.259 C 
ATOM     56  O7  non d ame     -34.081  14.785  25.940  0.00  0.00    -0.265 OA
BRANCH  55  57
ATOM     57  O8  non d ame     -31.892  15.230  25.556  0.00  0.00    -0.317 OA
BRANCH  57  58
ATOM     58  C29 non d ame     -30.700  14.577  25.110  0.00  0.00     0.052 C 
ATOM     59  H47 non d ame     -29.879  15.084  25.617  0.00  0.00     0.082 H 
ATOM     60  H48 non d ame     -30.868  13.513  25.273  0.00  0.00     0.082 H 
BRANCH  58  61
ATOM     61  C35 non d ame     -30.562  14.823  23.584  0.00  0.00    -0.034 A 
ATOM     62  C30 non d ame     -31.126  15.956  23.006  0.00  0.00    -0.075 A 
ATOM     63  C31 non d ame     -31.003  16.177  21.636  0.00  0.00    -0.082 A 
ATOM     64  H49 non d ame     -31.666  16.670  23.628  0.00  0.00     0.084 H 
ATOM     65  C32 non d ame     -30.313  15.258  20.840  0.00  0.00    -0.083 A 
ATOM     66  H50 non d ame     -31.445  17.066  21.186  0.00  0.00     0.083 H 
ATOM     67  C33 non d ame     -29.754  14.127  21.420  0.00  0.00    -0.082 A 
ATOM     68  H51 non d ame     -30.211  15.423  19.768  0.00  0.00     0.083 H 
ATOM     69  C34 non d ame     -29.873  13.903  22.790  0.00  0.00    -0.075 A 
ATOM     70  H52 non d ame     -29.218  13.411  20.796  0.00  0.00     0.083 H 
ATOM     71  H53 non d ame     -29.431  13.013  23.238  0.00  0.00     0.084 H 
ENDBRANCH  58  61
ENDBRANCH  57  58
ENDBRANCH  55  57
ENDBRANCH  52  55
ENDBRANCH  49  52
ENDBRANCH  47  49
BRANCH  47  72
ATOM     72  C24 non d ame     -34.049  10.305  24.966  0.00  0.00    -0.039 C 
ATOM     73  H35 non d ame     -34.723  10.242  24.111  0.00  0.00     0.036 H 
ATOM     74  H36 non d ame     -33.043  10.706  24.838  0.00  0.00     0.036 H 
BRANCH  72  75
ATOM     75  C25 non d ame     -33.897   8.825  25.558  0.00  0.00    -0.001 C 
ATOM     76  C26 non d ame     -34.469   8.777  27.099  0.00  0.00    -0.035 C 
ATOM     77  C27 non d ame     -33.528   8.216  27.896  0.00  0.00     0.085 C 
ATOM     78  H38 non d ame     -34.567   9.788  27.493  0.00  0.00     0.036 H 
ATOM     79  H39 non d ame     -35.306   8.082  27.166  0.00  0.00     0.036 H 
ATOM     80  N5  non d ame     -32.244   8.177  27.104  0.00  0.00    -0.049 N 
ATOM     81  H40 non d ame     -33.408   8.904  28.734  0.00  0.00     0.075 H 
ATOM     82  H41 non d ame     -33.867   7.196  28.074  0.00  0.00     0.075 H 
ATOM     83  C28 non d ame     -32.661   8.450  25.568  0.00  0.00     0.193 C 
ATOM     84  H42 non d ame     -31.684   8.953  27.427  0.00  0.00     0.280 HD
ATOM     85  H43 non d ame     -31.891   7.234  27.178  0.00  0.00     0.280 HD
ATOM     86  H44 non d ame     -32.697   7.630  24.850  0.00  0.00     0.129 H 
ATOM     87  H37 non d ame     -34.265   8.065  24.869  0.00  0.00     0.046 H 
BRANCH  83  88
ATOM     88  O6  non d ame     -31.796   9.428  24.989  0.00  0.00    -0.369 OA
ATOM     89  H45 non d ame     -31.030   8.993  24.609  0.00  0.00     0.212 HD
ENDBRANCH  83  88
ENDBRANCH  72  75
ENDBRANCH  47  72
ENDBRANCH  45  47
ENDBRANCH   1  43
BRANCH   1  90
ATOM     90  C16 non d ame     -37.774  13.464  23.776  0.00  0.00    -0.035 C 
ATOM     91  H21 non d ame     -36.759  13.290  23.421  0.00  0.00     0.037 H 
ATOM     92  H22 non d ame     -38.493  12.645  23.796  0.00  0.00     0.037 H 
BRANCH  90  93
ATOM     93  C17 non d ame     -38.383  14.563  22.848  0.00  0.00    -0.059 C 
ATOM     94  H23 non d ame     -37.936  15.517  23.127  0.00  0.00     0.038 H 
BRANCH  93  95
ATOM     95  C18 non d ame     -38.059  14.307  21.341  0.00  0.00    -0.073 C 
ATOM     96  H24 non d ame     -38.815  14.786  20.720  0.00  0.00     0.028 H 
ATOM     97  H25 non d ame     -37.079  14.722  21.104  0.00  0.00     0.028 H 
ATOM     98  H26 non d ame     -38.055  13.235  21.147  0.00  0.00     0.028 H 
ENDBRANCH  93  95
BRANCH  93  99
ATOM     99  C19 non d ame     -39.893  14.688  23.066  0.00  0.00    -0.073 C 
ATOM    100  H27 non d ame     -40.324  13.695  23.201  0.00  0.00     0.028 H 
ATOM    101  H28 non d ame     -40.084  15.290  23.954  0.00  0.00     0.028 H 
ATOM    102  H29 non d ame     -40.347  15.167  22.199  0.00  0.00     0.028 H 
ENDBRANCH  93  99
ENDBRANCH  90  93
ENDBRANCH   1  90
TORSDOF 26
ENDMDL
MODEL 11
REMARK VINA RESULT:      -6.8      2.520      7.869
REMARK  26 active torsions:
REMARK  status: ('A' for Active; 'I' for Inactive)
REMARK    1  A    between atoms: C2_2  and  C3_3 
REMARK    2  A    between atoms: C4_6  and  C5_7 
REMARK       I    between atoms: C5_7  and  N2_9 
REMARK    3  A    between atoms: N2_9  and  C6_10 
REMARK    4  A    between atoms: C6_10  and  C7_11 
REMARK    5  A    between atoms: C6_10  and  C8_13 
REMARK       I    between atoms: C7_11  and  N3_14 
REMARK    6  A    between atoms: N3_14  and  C9_15 
REMARK    7  A    between atoms: C9_15  and  C10_16 
REMARK    8  A    between atoms: C9_15  and  C11_18 
REMARK       I    between atoms: C10_16  and  N4_21 
REMARK    9  A    between atoms: C11_18  and  C12_19 
REMARK   10  A    between atoms: C11_18  and  C13_20 
REMARK   11  A    between atoms: N4_21  and  C14_22 
REMARK   12  A    between atoms: C14_22  and  C15_23 
REMARK   13  A    between atoms: C14_22  and  C16_25 
REMARK       I    between atoms: C15_23  and  N6_40 
REMARK   14  A    between atoms: C16_25  and  C17_26 
REMARK   15  A    between atoms: C17_26  and  C18_27 
REMARK   16  A    between atoms: C17_26  and  C19_28 
REMARK   17  A    between atoms: C20_29  and  C21_30 
REMARK   18  A    between atoms: C20_29  and  C24_33 
REMARK   19  A    between atoms: C20_29  and  N6_40 
REMARK   20  A    between atoms: C21_30  and  C22_31 
REMARK   21  A    between atoms: C22_31  and  C23_32 
REMARK   22  A    between atoms: C23_32  and  O8_43 
REMARK   23  A    between atoms: C24_33  and  C25_34 
REMARK   24  A    between atoms: C28_38  and  O6_39 
REMARK   25  A    between atoms: C29_42  and  O8_43 
REMARK   26  A    between atoms: C29_42  and  C35_49 
ROOT
ATOM      1  C14 non d ame     -36.457  15.945  26.531  0.00  0.00     0.089 C 
ATOM      2  H20 non d ame     -37.073  16.502  27.236  0.00  0.00     0.087 H 
ENDROOT
BRANCH   1   3
ATOM      3  N4  non d ame     -35.069  16.112  26.934  0.00  0.00    -0.346 N 
ATOM      4  C10 non d ame     -34.679  17.218  27.882  0.00  0.00     0.241 C 
ATOM      5  O4  non d ame     -35.500  17.964  28.304  0.00  0.00    -0.271 OA
ATOM      6  H19 non d ame     -34.385  15.468  26.562  0.00  0.00     0.163 HD
BRANCH   4   7
ATOM      7  C9  non d ame     -33.238  17.373  28.294  0.00  0.00     0.092 C 
ATOM      8  H11 non d ame     -33.194  17.863  29.266  0.00  0.00     0.088 H 
BRANCH   7   9
ATOM      9  N3  non d ame     -32.629  16.048  28.449  0.00  0.00    -0.346 N 
ATOM     10  C7  non d ame     -31.731  15.792  29.548  0.00  0.00     0.240 C 
ATOM     11  O3  non d ame     -31.487  16.641  30.316  0.00  0.00    -0.271 OA
ATOM     12  H10 non d ame     -32.829  15.307  27.793  0.00  0.00     0.163 HD
BRANCH  10  13
ATOM     13  C6  non d ame     -31.084  14.381  29.706  0.00  0.00     0.086 C 
ATOM     14  H6  non d ame     -30.429  14.313  30.574  0.00  0.00     0.086 H 
BRANCH  13  15
ATOM     15  N2  non d ame     -32.136  13.398  29.900  0.00  0.00    -0.343 N 
ATOM     16  C5  non d ame     -31.835  12.147  30.599  0.00  0.00     0.273 C 
ATOM     17  O2  non d ame     -30.741  11.940  30.998  0.00  0.00    -0.266 OA
ATOM     18  H5  non d ame     -33.067  13.583  29.554  0.00  0.00     0.163 HD
BRANCH  16  19
ATOM     19  C4  non d ame     -32.938  11.100  30.813  0.00  0.00     0.154 A 
ATOM     20  C1  non d ame     -33.335  10.064  29.909  0.00  0.00    -0.017 A 
ATOM     21  C2  non d ame     -34.379   9.382  30.573  0.00  0.00     0.077 A 
ATOM     22  H1  non d ame     -32.928   9.842  28.922  0.00  0.00     0.091 H 
ATOM     23  O1  non d ame     -34.552   9.964  31.723  0.00  0.00    -0.218 OA
ATOM     24  N1  non d ame     -33.724  10.970  31.886  0.00  0.00    -0.123 NA
BRANCH  21  25
ATOM     25  C3  non d ame     -35.156   8.186  30.040  0.00  0.00    -0.029 C 
ATOM     26  H2  non d ame     -35.466   7.554  30.871  0.00  0.00     0.036 H 
ATOM     27  H3  non d ame     -36.037   8.536  29.502  0.00  0.00     0.036 H 
ATOM     28  H4  non d ame     -34.522   7.612  29.363  0.00  0.00     0.036 H 
ENDBRANCH  21  25
ENDBRANCH  16  19
ENDBRANCH  13  15
BRANCH  13  29
ATOM     29  C8  non d ame     -30.289  14.049  28.468  0.00  0.00    -0.049 C 
ATOM     30  H7  non d ame     -30.971  13.854  27.640  0.00  0.00     0.030 H 
ATOM     31  H8  non d ame     -29.642  14.889  28.216  0.00  0.00     0.030 H 
ATOM     32  H9  non d ame     -29.680  13.164  28.654  0.00  0.00     0.030 H 
ENDBRANCH  13  29
ENDBRANCH  10  13
ENDBRANCH   7   9
BRANCH   7  33
ATOM     33  C11 non d ame     -32.469  18.170  27.200  0.00  0.00    -0.033 C 
ATOM     34  H12 non d ame     -31.415  17.902  27.278  0.00  0.00     0.042 H 
BRANCH  33  35
ATOM     35  C12 non d ame     -32.948  17.777  25.768  0.00  0.00    -0.071 C 
ATOM     36  H13 non d ame     -32.756  16.718  25.598  0.00  0.00     0.028 H 
ATOM     37  H14 non d ame     -34.016  17.973  25.676  0.00  0.00     0.028 H 
ATOM     38  H15 non d ame     -32.406  18.367  25.029  0.00  0.00     0.028 H 
ENDBRANCH  33  35
BRANCH  33  39
ATOM     39  C13 non d ame     -32.594  19.709  27.438  0.00  0.00    -0.071 C 
ATOM     40  H16 non d ame     -32.349  20.240  26.517  0.00  0.00     0.028 H 
ATOM     41  H17 non d ame     -33.616  19.949  27.735  0.00  0.00     0.028 H 
ATOM     42  H18 non d ame     -31.907  20.012  28.227  0.00  0.00     0.028 H 
ENDBRANCH  33  39
ENDBRANCH   7  33
ENDBRANCH   4   7
ENDBRANCH   1   3
BRANCH   1  43
ATOM     43  C15 non d ame     -36.793  14.426  26.529  0.00  0.00     0.240 C 
ATOM     44  O5  non d ame     -37.853  14.055  26.918  0.00  0.00    -0.271 OA
ATOM     45  N6  non d ame     -35.796  13.435  26.032  0.00  0.00    -0.355 N 
ATOM     46  H46 non d ame     -34.895  13.739  25.694  0.00  0.00     0.162 HD
BRANCH  45  47
ATOM     47  C20 non d ame     -36.132  11.994  26.035  0.00  0.00     0.013 C 
ATOM     48  H30 non d ame     -37.040  11.863  26.624  0.00  0.00     0.072 H 
BRANCH  47  49
ATOM     49  C21 non d ame     -34.994  11.218  26.659  0.00  0.00    -0.038 C 
ATOM     50  H31 non d ame     -34.795  11.704  27.615  0.00  0.00     0.036 H 
ATOM     51  H32 non d ame     -35.303  10.172  26.633  0.00  0.00     0.036 H 
BRANCH  49  52
ATOM     52  C22 non d ame     -33.687  11.309  25.842  0.00  0.00     0.018 C 
ATOM     53  H33 non d ame     -33.057  10.497  26.203  0.00  0.00     0.048 H 
ATOM     54  H34 non d ame     -33.995  11.337  24.796  0.00  0.00     0.048 H 
BRANCH  52  55
ATOM     55  C23 non d ame     -32.885  12.616  26.088  0.00  0.00     0.259 C 
ATOM     56  O7  non d ame     -33.154  13.327  27.001  0.00  0.00    -0.265 OA
BRANCH  55  57
ATOM     57  O8  non d ame     -31.828  12.962  25.200  0.00  0.00    -0.317 OA
BRANCH  57  58
ATOM     58  C29 non d ame     -31.650  14.371  25.029  0.00  0.00     0.052 C 
ATOM     59  H47 non d ame     -32.650  14.803  25.070  0.00  0.00     0.082 H 
ATOM     60  H48 non d ame     -30.900  14.665  25.764  0.00  0.00     0.082 H 
BRANCH  58  61
ATOM     61  C35 non d ame     -31.068  14.612  23.611  0.00  0.00    -0.034 A 
ATOM     62  C30 non d ame     -30.250  13.654  23.022  0.00  0.00    -0.075 A 
ATOM     63  C31 non d ame     -29.727  13.870  21.748  0.00  0.00    -0.082 A 
ATOM     64  H49 non d ame     -30.018  12.733  23.558  0.00  0.00     0.084 H 
ATOM     65  C32 non d ame     -30.023  15.052  21.063  0.00  0.00    -0.083 A 
ATOM     66  H50 non d ame     -29.087  13.116  21.288  0.00  0.00     0.083 H 
ATOM     67  C33 non d ame     -30.837  16.007  21.657  0.00  0.00    -0.082 A 
ATOM     68  H51 non d ame     -29.619  15.229  20.066  0.00  0.00     0.083 H 
ATOM     69  C34 non d ame     -31.363  15.794  22.929  0.00  0.00    -0.075 A 
ATOM     70  H52 non d ame     -31.064  16.929  21.121  0.00  0.00     0.083 H 
ATOM     71  H53 non d ame     -32.003  16.549  23.388  0.00  0.00     0.084 H 
ENDBRANCH  58  61
ENDBRANCH  57  58
ENDBRANCH  55  57
ENDBRANCH  52  55
ENDBRANCH  49  52
ENDBRANCH  47  49
BRANCH  47  72
ATOM     72  C24 non d ame     -36.353  11.512  24.603  0.00  0.00    -0.039 C 
ATOM     73  H35 non d ame     -35.764  12.183  23.977  0.00  0.00     0.036 H 
ATOM     74  H36 non d ame     -36.131  10.445  24.618  0.00  0.00     0.036 H 
BRANCH  72  75
ATOM     75  C25 non d ame     -37.883  11.670  24.155  0.00  0.00    -0.001 C 
ATOM     76  C26 non d ame     -38.401  10.285  23.434  0.00  0.00    -0.035 C 
ATOM     77  C27 non d ame     -38.964  10.598  22.243  0.00  0.00     0.085 C 
ATOM     78  H38 non d ame     -37.548   9.666  23.158  0.00  0.00     0.036 H 
ATOM     79  H39 non d ame     -39.226   9.855  24.001  0.00  0.00     0.036 H 
ATOM     80  N5  non d ame     -38.585  12.027  21.936  0.00  0.00    -0.049 N 
ATOM     81  H40 non d ame     -38.489   9.940  21.515  0.00  0.00     0.075 H 
ATOM     82  H41 non d ame     -40.040  10.543  22.406  0.00  0.00     0.075 H 
ATOM     83  C28 non d ame     -38.027  12.644  23.320  0.00  0.00     0.193 C 
ATOM     84  H42 non d ame     -37.825  11.986  21.273  0.00  0.00     0.280 HD
ATOM     85  H43 non d ame     -39.442  12.503  21.694  0.00  0.00     0.280 HD
ATOM     86  H44 non d ame     -38.643  13.323  23.911  0.00  0.00     0.129 H 
ATOM     87  H37 non d ame     -38.507  12.078  24.950  0.00  0.00     0.046 H 
BRANCH  83  88
ATOM     88  O6  non d ame     -36.802  13.342  23.089  0.00  0.00    -0.369 OA
ATOM     89  H45 non d ame     -36.202  12.780  22.593  0.00  0.00     0.212 HD
ENDBRANCH  83  88
ENDBRANCH  72  75
ENDBRANCH  47  72
ENDBRANCH  45  47
ENDBRANCH   1  43
BRANCH   1  90
ATOM     90  C16 non d ame     -36.638  16.511  25.131  0.00  0.00    -0.035 C 
ATOM     91  H21 non d ame     -35.629  16.683  24.757  0.00  0.00     0.037 H 
ATOM     92  H22 non d ame     -37.297  15.809  24.619  0.00  0.00     0.037 H 
BRANCH  90  93
ATOM     93  C17 non d ame     -37.360  17.895  25.103  0.00  0.00    -0.059 C 
ATOM     94  H23 non d ame     -37.945  17.981  26.018  0.00  0.00     0.038 H 
BRANCH  93  95
ATOM     95  C18 non d ame     -36.350  19.086  25.070  0.00  0.00    -0.073 C 
ATOM     96  H24 non d ame     -35.607  18.955  25.855  0.00  0.00     0.028 H 
ATOM     97  H25 non d ame     -35.852  19.114  24.101  0.00  0.00     0.028 H 
ATOM     98  H26 non d ame     -36.886  20.022  25.230  0.00  0.00     0.028 H 
ENDBRANCH  93  95
BRANCH  93  99
ATOM     99  C19 non d ame     -38.338  17.978  23.928  0.00  0.00    -0.073 C 
ATOM    100  H27 non d ame     -38.956  17.079  23.906  0.00  0.00     0.028 H 
ATOM    101  H28 non d ame     -38.976  18.854  24.047  0.00  0.00     0.028 H 
ATOM    102  H29 non d ame     -37.781  18.059  22.996  0.00  0.00     0.028 H 
ENDBRANCH  93  99
ENDBRANCH  90  93
ENDBRANCH   1  90
TORSDOF 26
ENDMDL
MODEL 12
REMARK VINA RESULT:      -6.8      1.781      5.556
REMARK  26 active torsions:
REMARK  status: ('A' for Active; 'I' for Inactive)
REMARK    1  A    between atoms: C2_2  and  C3_3 
REMARK    2  A    between atoms: C4_6  and  C5_7 
REMARK       I    between atoms: C5_7  and  N2_9 
REMARK    3  A    between atoms: N2_9  and  C6_10 
REMARK    4  A    between atoms: C6_10  and  C7_11 
REMARK    5  A    between atoms: C6_10  and  C8_13 
REMARK       I    between atoms: C7_11  and  N3_14 
REMARK    6  A    between atoms: N3_14  and  C9_15 
REMARK    7  A    between atoms: C9_15  and  C10_16 
REMARK    8  A    between atoms: C9_15  and  C11_18 
REMARK       I    between atoms: C10_16  and  N4_21 
REMARK    9  A    between atoms: C11_18  and  C12_19 
REMARK   10  A    between atoms: C11_18  and  C13_20 
REMARK   11  A    between atoms: N4_21  and  C14_22 
REMARK   12  A    between atoms: C14_22  and  C15_23 
REMARK   13  A    between atoms: C14_22  and  C16_25 
REMARK       I    between atoms: C15_23  and  N6_40 
REMARK   14  A    between atoms: C16_25  and  C17_26 
REMARK   15  A    between atoms: C17_26  and  C18_27 
REMARK   16  A    between atoms: C17_26  and  C19_28 
REMARK   17  A    between atoms: C20_29  and  C21_30 
REMARK   18  A    between atoms: C20_29  and  C24_33 
REMARK   19  A    between atoms: C20_29  and  N6_40 
REMARK   20  A    between atoms: C21_30  and  C22_31 
REMARK   21  A    between atoms: C22_31  and  C23_32 
REMARK   22  A    between atoms: C23_32  and  O8_43 
REMARK   23  A    between atoms: C24_33  and  C25_34 
REMARK   24  A    between atoms: C28_38  and  O6_39 
REMARK   25  A    between atoms: C29_42  and  O8_43 
REMARK   26  A    between atoms: C29_42  and  C35_49 
ROOT
ATOM      1  C14 non d ame     -32.585   9.988  24.827  0.00  0.00     0.089 C 
ATOM      2  H20 non d ame     -32.418   9.197  25.557  0.00  0.00     0.087 H 
ENDROOT
BRANCH   1   3
ATOM      3  N4  non d ame     -33.946  10.471  25.007  0.00  0.00    -0.346 N 
ATOM      4  C10 non d ame     -34.940   9.667  25.805  0.00  0.00     0.241 C 
ATOM      5  O4  non d ame     -34.623   8.631  26.291  0.00  0.00    -0.271 OA
ATOM      6  H19 non d ame     -34.197  11.354  24.583  0.00  0.00     0.163 HD
BRANCH   4   7
ATOM      7  C9  non d ame     -36.343  10.185  25.986  0.00  0.00     0.092 C 
ATOM      8  H11 non d ame     -36.542  10.315  27.050  0.00  0.00     0.088 H 
BRANCH   7   9
ATOM      9  N3  non d ame     -36.462  11.504  25.357  0.00  0.00    -0.346 N 
ATOM     10  C7  non d ame     -36.943  12.626  26.124  0.00  0.00     0.240 C 
ATOM     11  O3  non d ame     -37.240  12.486  27.248  0.00  0.00    -0.271 OA
ATOM     12  H10 non d ame     -36.212  11.640  24.389  0.00  0.00     0.163 HD
BRANCH  10  13
ATOM     13  C6  non d ame     -37.071  14.027  25.449  0.00  0.00     0.086 C 
ATOM     14  H6  non d ame     -37.976  14.557  25.745  0.00  0.00     0.086 H 
BRANCH  13  15
ATOM     15  N2  non d ame     -35.950  14.854  25.863  0.00  0.00    -0.343 N 
ATOM     16  C5  non d ame     -36.160  15.906  26.860  0.00  0.00     0.273 C 
ATOM     17  O2  non d ame     -37.234  16.081  27.320  0.00  0.00    -0.266 OA
ATOM     18  H5  non d ame     -35.036  14.700  25.462  0.00  0.00     0.163 HD
BRANCH  16  19
ATOM     19  C4  non d ame     -34.983  16.787  27.308  0.00  0.00     0.154 A 
ATOM     20  C1  non d ame     -34.328  17.808  26.548  0.00  0.00    -0.017 A 
ATOM     21  C2  non d ame     -33.324  18.312  27.405  0.00  0.00     0.077 A 
ATOM     22  H1  non d ame     -34.548  18.133  25.531  0.00  0.00     0.091 H 
ATOM     23  O1  non d ame     -33.403  17.652  28.523  0.00  0.00    -0.218 OA
ATOM     24  N1  non d ame     -34.363  16.757  28.491  0.00  0.00    -0.123 NA
BRANCH  21  25
ATOM     25  C3  non d ame     -32.335  19.422  27.079  0.00  0.00    -0.029 C 
ATOM     26  H2  non d ame     -31.517  19.403  27.798  0.00  0.00     0.036 H 
ATOM     27  H3  non d ame     -31.938  19.272  26.075  0.00  0.00     0.036 H 
ATOM     28  H4  non d ame     -32.840  20.386  27.128  0.00  0.00     0.036 H 
ENDBRANCH  21  25
ENDBRANCH  16  19
ENDBRANCH  13  15
BRANCH  13  29
ATOM     29  C8  non d ame     -37.069  13.867  23.950  0.00  0.00    -0.049 C 
ATOM     30  H7  non d ame     -36.419  14.621  23.505  0.00  0.00     0.030 H 
ATOM     31  H8  non d ame     -36.703  12.874  23.691  0.00  0.00     0.030 H 
ATOM     32  H9  non d ame     -38.083  13.991  23.569  0.00  0.00     0.030 H 
ENDBRANCH  13  29
ENDBRANCH  10  13
ENDBRANCH   7   9
BRANCH   7  33
ATOM     33  C11 non d ame     -37.349   9.202  25.318  0.00  0.00    -0.033 C 
ATOM     34  H12 non d ame     -36.924   8.200  25.387  0.00  0.00     0.042 H 
BRANCH  33  35
ATOM     35  C12 non d ame     -38.714   9.185  26.074  0.00  0.00    -0.071 C 
ATOM     36  H13 non d ame     -39.393   9.903  25.613  0.00  0.00     0.028 H 
ATOM     37  H14 non d ame     -39.148   8.187  26.019  0.00  0.00     0.028 H 
ATOM     38  H15 non d ame     -38.555   9.455  27.118  0.00  0.00     0.028 H 
ENDBRANCH  33  35
BRANCH  33  39
ATOM     39  C13 non d ame     -37.543   9.542  23.806  0.00  0.00    -0.071 C 
ATOM     40  H16 non d ame     -38.592   9.419  23.537  0.00  0.00     0.028 H 
ATOM     41  H17 non d ame     -37.239  10.573  23.623  0.00  0.00     0.028 H 
ATOM     42  H18 non d ame     -36.931   8.872  23.201  0.00  0.00     0.028 H 
ENDBRANCH  33  39
ENDBRANCH   7  33
ENDBRANCH   4   7
ENDBRANCH   1   3
BRANCH   1  43
ATOM     43  C15 non d ame     -31.606  11.182  25.020  0.00  0.00     0.240 C 
ATOM     44  O5  non d ame     -30.716  11.095  25.803  0.00  0.00    -0.271 OA
ATOM     45  N6  non d ame     -31.773  12.430  24.222  0.00  0.00    -0.355 N 
ATOM     46  H46 non d ame     -32.522  12.513  23.550  0.00  0.00     0.162 HD
BRANCH  45  47
ATOM     47  C20 non d ame     -30.833  13.555  24.417  0.00  0.00     0.013 C 
ATOM     48  H30 non d ame     -30.176  13.304  25.250  0.00  0.00     0.072 H 
BRANCH  47  49
ATOM     49  C21 non d ame     -31.614  14.810  24.735  0.00  0.00    -0.038 C 
ATOM     50  H31 non d ame     -31.133  15.608  24.170  0.00  0.00     0.036 H 
ATOM     51  H32 non d ame     -32.659  14.561  24.547  0.00  0.00     0.036 H 
BRANCH  49  52
ATOM     52  C22 non d ame     -31.522  15.211  26.223  0.00  0.00     0.018 C 
ATOM     53  H33 non d ame     -30.472  15.105  26.493  0.00  0.00     0.048 H 
ATOM     54  H34 non d ame     -32.009  16.184  26.297  0.00  0.00     0.048 H 
BRANCH  52  55
ATOM     55  C23 non d ame     -32.307  14.267  27.176  0.00  0.00     0.259 C 
ATOM     56  O7  non d ame     -33.285  13.708  26.800  0.00  0.00    -0.265 OA
BRANCH  55  57
ATOM     57  O8  non d ame     -31.849  14.088  28.511  0.00  0.00    -0.317 OA
BRANCH  57  58
ATOM     58  C29 non d ame     -31.144  12.861  28.725  0.00  0.00     0.052 C 
ATOM     59  H47 non d ame     -30.899  12.485  27.731  0.00  0.00     0.082 H 
ATOM     60  H48 non d ame     -30.348  13.097  29.430  0.00  0.00     0.082 H 
BRANCH  58  61
ATOM     61  C35 non d ame     -32.118  11.861  29.402  0.00  0.00    -0.034 A 
ATOM     62  C30 non d ame     -32.573  12.099  30.695  0.00  0.00    -0.075 A 
ATOM     63  C31 non d ame     -33.448  11.200  31.304  0.00  0.00    -0.082 A 
ATOM     64  H49 non d ame     -32.244  12.989  31.232  0.00  0.00     0.084 H 
ATOM     65  C32 non d ame     -33.866  10.059  30.616  0.00  0.00    -0.083 A 
ATOM     66  H50 non d ame     -33.804  11.390  32.317  0.00  0.00     0.083 H 
ATOM     67  C33 non d ame     -33.408   9.824  29.327  0.00  0.00    -0.082 A 
ATOM     68  H51 non d ame     -34.551   9.351  31.084  0.00  0.00     0.083 H 
ATOM     69  C34 non d ame     -32.535  10.720  28.714  0.00  0.00    -0.075 A 
ATOM     70  H52 non d ame     -33.734   8.931  28.793  0.00  0.00     0.083 H 
ATOM     71  H53 non d ame     -32.180  10.529  27.700  0.00  0.00     0.084 H 
ENDBRANCH  58  61
ENDBRANCH  57  58
ENDBRANCH  55  57
ENDBRANCH  52  55
ENDBRANCH  49  52
ENDBRANCH  47  49
BRANCH  47  72
ATOM     72  C24 non d ame     -30.016  13.772  23.144  0.00  0.00    -0.039 C 
ATOM     73  H35 non d ame     -28.973  13.715  23.456  0.00  0.00     0.036 H 
ATOM     74  H36 non d ame     -30.409  13.056  22.422  0.00  0.00     0.036 H 
BRANCH  72  75
ATOM     75  C25 non d ame     -30.248  15.235  22.533  0.00  0.00    -0.001 C 
ATOM     76  C26 non d ame     -31.166  15.134  21.173  0.00  0.00    -0.035 C 
ATOM     77  C27 non d ame     -30.541  15.805  20.175  0.00  0.00     0.085 C 
ATOM     78  H38 non d ame     -31.189  14.106  20.813  0.00  0.00     0.036 H 
ATOM     79  H39 non d ame     -32.096  15.686  21.307  0.00  0.00     0.036 H 
ATOM     80  N5  non d ame     -29.130  16.074  20.639  0.00  0.00    -0.049 N 
ATOM     81  H40 non d ame     -30.513  15.113  19.333  0.00  0.00     0.075 H 
ATOM     82  H41 non d ame     -31.072  16.752  20.084  0.00  0.00     0.075 H 
ATOM     83  C28 non d ame     -29.126  15.798  22.230  0.00  0.00     0.193 C 
ATOM     84  H42 non d ame     -28.545  15.384  20.191  0.00  0.00     0.280 HD
ATOM     85  H43 non d ame     -28.962  17.058  20.483  0.00  0.00     0.280 HD
ATOM     86  H44 non d ame     -29.123  16.628  22.936  0.00  0.00     0.129 H 
ATOM     87  H37 non d ame     -30.561  15.954  23.291  0.00  0.00     0.046 H 
BRANCH  83  88
ATOM     88  O6  non d ame     -28.003  14.989  22.587  0.00  0.00    -0.369 OA
ATOM     89  H45 non d ame     -28.133  14.633  23.469  0.00  0.00     0.212 HD
ENDBRANCH  83  88
ENDBRANCH  72  75
ENDBRANCH  47  72
ENDBRANCH  45  47
ENDBRANCH   1  43
BRANCH   1  90
ATOM     90  C16 non d ame     -32.439   9.430  23.420  0.00  0.00    -0.035 C 
ATOM     91  H21 non d ame     -33.245   8.706  23.312  0.00  0.00     0.037 H 
ATOM     92  H22 non d ame     -32.398  10.302  22.766  0.00  0.00     0.037 H 
BRANCH  90  93
ATOM     93  C17 non d ame     -31.108   8.645  23.193  0.00  0.00    -0.059 C 
ATOM     94  H23 non d ame     -30.573   8.619  24.142  0.00  0.00     0.038 H 
BRANCH  93  95
ATOM     95  C18 non d ame     -31.363   7.169  22.748  0.00  0.00    -0.073 C 
ATOM     96  H24 non d ame     -32.197   7.140  22.048  0.00  0.00     0.028 H 
ATOM     97  H25 non d ame     -30.469   6.776  22.263  0.00  0.00     0.028 H 
ATOM     98  H26 non d ame     -31.599   6.562  23.621  0.00  0.00     0.028 H 
ENDBRANCH  93  95
BRANCH  93  99
ATOM     99  C19 non d ame     -30.211   9.370  22.186  0.00  0.00    -0.073 C 
ATOM    100  H27 non d ame     -29.173   9.313  22.516  0.00  0.00     0.028 H 
ATOM    101  H28 non d ame     -30.307   8.899  21.207  0.00  0.00     0.028 H 
ATOM    102  H29 non d ame     -30.513  10.415  22.116  0.00  0.00     0.028 H 
ENDBRANCH  93  99
ENDBRANCH  90  93
ENDBRANCH   1  90
TORSDOF 26
ENDMDL
MODEL 13
REMARK VINA RESULT:      -6.8      2.756      5.820
REMARK  26 active torsions:
REMARK  status: ('A' for Active; 'I' for Inactive)
REMARK    1  A    between atoms: C2_2  and  C3_3 
REMARK    2  A    between atoms: C4_6  and  C5_7 
REMARK       I    between atoms: C5_7  and  N2_9 
REMARK    3  A    between atoms: N2_9  and  C6_10 
REMARK    4  A    between atoms: C6_10  and  C7_11 
REMARK    5  A    between atoms: C6_10  and  C8_13 
REMARK       I    between atoms: C7_11  and  N3_14 
REMARK    6  A    between atoms: N3_14  and  C9_15 
REMARK    7  A    between atoms: C9_15  and  C10_16 
REMARK    8  A    between atoms: C9_15  and  C11_18 
REMARK       I    between atoms: C10_16  and  N4_21 
REMARK    9  A    between atoms: C11_18  and  C12_19 
REMARK   10  A    between atoms: C11_18  and  C13_20 
REMARK   11  A    between atoms: N4_21  and  C14_22 
REMARK   12  A    between atoms: C14_22  and  C15_23 
REMARK   13  A    between atoms: C14_22  and  C16_25 
REMARK       I    between atoms: C15_23  and  N6_40 
REMARK   14  A    between atoms: C16_25  and  C17_26 
REMARK   15  A    between atoms: C17_26  and  C18_27 
REMARK   16  A    between atoms: C17_26  and  C19_28 
REMARK   17  A    between atoms: C20_29  and  C21_30 
REMARK   18  A    between atoms: C20_29  and  C24_33 
REMARK   19  A    between atoms: C20_29  and  N6_40 
REMARK   20  A    between atoms: C21_30  and  C22_31 
REMARK   21  A    between atoms: C22_31  and  C23_32 
REMARK   22  A    between atoms: C23_32  and  O8_43 
REMARK   23  A    between atoms: C24_33  and  C25_34 
REMARK   24  A    between atoms: C28_38  and  O6_39 
REMARK   25  A    between atoms: C29_42  and  O8_43 
REMARK   26  A    between atoms: C29_42  and  C35_49 
ROOT
ATOM      1  C14 non d ame     -31.116  13.599  24.577  0.00  0.00     0.089 C 
ATOM      2  H20 non d ame     -30.130  13.519  25.036  0.00  0.00     0.087 H 
ENDROOT
BRANCH   1   3
ATOM      3  N4  non d ame     -31.494  12.272  24.115  0.00  0.00    -0.346 N 
ATOM      4  C10 non d ame     -31.303  11.072  25.008  0.00  0.00     0.241 C 
ATOM      5  O4  non d ame     -30.840  11.199  26.094  0.00  0.00    -0.271 OA
ATOM      6  H19 non d ame     -31.883  12.185  23.187  0.00  0.00     0.163 HD
BRANCH   4   7
ATOM      7  C9  non d ame     -31.704   9.706  24.515  0.00  0.00     0.092 C 
ATOM      8  H11 non d ame     -31.021   8.962  24.925  0.00  0.00     0.088 H 
BRANCH   7   9
ATOM      9  N3  non d ame     -33.045   9.382  25.011  0.00  0.00    -0.346 N 
ATOM     10  C7  non d ame     -33.217   8.341  25.995  0.00  0.00     0.240 C 
ATOM     11  O3  non d ame     -32.288   7.753  26.397  0.00  0.00    -0.271 OA
ATOM     12  H10 non d ame     -33.856   9.879  24.673  0.00  0.00     0.163 HD
BRANCH  10  13
ATOM     13  C6  non d ame     -34.647   7.999  26.517  0.00  0.00     0.086 C 
ATOM     14  H6  non d ame     -34.800   6.928  26.655  0.00  0.00     0.086 H 
BRANCH  13  15
ATOM     15  N2  non d ame     -34.835   8.617  27.819  0.00  0.00    -0.343 N 
ATOM     16  C5  non d ame     -34.700   7.804  29.029  0.00  0.00     0.273 C 
ATOM     17  O2  non d ame     -34.445   6.654  28.945  0.00  0.00    -0.266 OA
ATOM     18  H5  non d ame     -35.056   9.601  27.881  0.00  0.00     0.163 HD
BRANCH  16  19
ATOM     19  C4  non d ame     -34.894   8.446  30.412  0.00  0.00     0.154 A 
ATOM     20  C1  non d ame     -35.219   9.810  30.695  0.00  0.00    -0.017 A 
ATOM     21  C2  non d ame     -35.283   9.885  32.104  0.00  0.00     0.077 A 
ATOM     22  H1  non d ame     -35.383  10.622  29.986  0.00  0.00     0.091 H 
ATOM     23  O1  non d ame     -35.026   8.696  32.567  0.00  0.00    -0.218 OA
ATOM     24  N1  non d ame     -34.795   7.840  31.599  0.00  0.00    -0.123 NA
BRANCH  21  25
ATOM     25  C3  non d ame     -35.598  11.126  32.928  0.00  0.00    -0.029 C 
ATOM     26  H2  non d ame     -34.668  11.604  33.234  0.00  0.00     0.036 H 
ATOM     27  H3  non d ame     -36.183  11.822  32.327  0.00  0.00     0.036 H 
ATOM     28  H4  non d ame     -36.168  10.841  33.812  0.00  0.00     0.036 H 
ENDBRANCH  21  25
ENDBRANCH  16  19
ENDBRANCH  13  15
BRANCH  13  29
ATOM     29  C8  non d ame     -35.677   8.517  25.545  0.00  0.00    -0.049 C 
ATOM     30  H7  non d ame     -35.233   8.596  24.553  0.00  0.00     0.030 H 
ATOM     31  H8  non d ame     -36.522   7.829  25.511  0.00  0.00     0.030 H 
ATOM     32  H9  non d ame     -36.020   9.499  25.869  0.00  0.00     0.030 H 
ENDBRANCH  13  29
ENDBRANCH  10  13
ENDBRANCH   7   9
BRANCH   7  33
ATOM     33  C11 non d ame     -31.714   9.699  22.959  0.00  0.00    -0.033 C 
ATOM     34  H12 non d ame     -31.943  10.711  22.626  0.00  0.00     0.042 H 
BRANCH  33  35
ATOM     35  C12 non d ame     -30.314   9.321  22.383  0.00  0.00    -0.071 C 
ATOM     36  H13 non d ame     -29.627   9.113  23.204  0.00  0.00     0.028 H 
ATOM     37  H14 non d ame     -30.406   8.436  21.754  0.00  0.00     0.028 H 
ATOM     38  H15 non d ame     -29.929  10.151  21.790  0.00  0.00     0.028 H 
ENDBRANCH  33  35
BRANCH  33  39
ATOM     39  C13 non d ame     -32.827   8.748  22.411  0.00  0.00    -0.071 C 
ATOM     40  H16 non d ame     -32.791   7.800  22.948  0.00  0.00     0.028 H 
ATOM     41  H17 non d ame     -33.804   9.211  22.555  0.00  0.00     0.028 H 
ATOM     42  H18 non d ame     -32.663   8.571  21.348  0.00  0.00     0.028 H 
ENDBRANCH  33  39
ENDBRANCH   7  33
ENDBRANCH   4   7
ENDBRANCH   1   3
BRANCH   1  43
ATOM     43  C15 non d ame     -32.193  14.099  25.583  0.00  0.00     0.240 C 
ATOM     44  O5  non d ame     -33.346  13.935  25.344  0.00  0.00    -0.271 OA
ATOM     45  N6  non d ame     -31.786  14.773  26.849  0.00  0.00    -0.355 N 
ATOM     46  H46 non d ame     -30.810  14.913  27.065  0.00  0.00     0.162 HD
BRANCH  45  47
ATOM     47  C20 non d ame     -32.822  15.240  27.795  0.00  0.00     0.013 C 
ATOM     48  H30 non d ame     -33.781  14.835  27.471  0.00  0.00     0.072 H 
BRANCH  47  49
ATOM     49  C21 non d ame     -32.868  16.751  27.779  0.00  0.00    -0.038 C 
ATOM     50  H31 non d ame     -33.860  17.020  28.143  0.00  0.00     0.036 H 
ATOM     51  H32 non d ame     -31.981  17.078  28.322  0.00  0.00     0.036 H 
BRANCH  49  52
ATOM     52  C22 non d ame     -32.750  17.340  26.357  0.00  0.00     0.018 C 
ATOM     53  H33 non d ame     -31.761  17.054  26.000  0.00  0.00     0.048 H 
ATOM     54  H34 non d ame     -33.640  17.003  25.823  0.00  0.00     0.048 H 
BRANCH  52  55
ATOM     55  C23 non d ame     -32.788  18.893  26.316  0.00  0.00     0.259 C 
ATOM     56  O7  non d ame     -31.973  19.531  26.898  0.00  0.00    -0.265 OA
BRANCH  55  57
ATOM     57  O8  non d ame     -33.818  19.545  25.583  0.00  0.00    -0.317 OA
BRANCH  57  58
ATOM     58  C29 non d ame     -35.086  18.886  25.647  0.00  0.00     0.052 C 
ATOM     59  H47 non d ame     -35.607  19.160  24.730  0.00  0.00     0.082 H 
ATOM     60  H48 non d ame     -34.864  17.840  25.856  0.00  0.00     0.082 H 
BRANCH  58  61
ATOM     61  C35 non d ame     -35.870  19.471  26.852  0.00  0.00    -0.034 A 
ATOM     62  C30 non d ame     -36.017  18.724  28.016  0.00  0.00    -0.075 A 
ATOM     63  C31 non d ame     -36.721  19.249  29.098  0.00  0.00    -0.082 A 
ATOM     64  H49 non d ame     -35.581  17.727  28.081  0.00  0.00     0.084 H 
ATOM     65  C32 non d ame     -37.283  20.526  29.012  0.00  0.00    -0.083 A 
ATOM     66  H50 non d ame     -36.833  18.662  30.010  0.00  0.00     0.083 H 
ATOM     67  C33 non d ame     -37.136  21.267  27.847  0.00  0.00    -0.082 A 
ATOM     68  H51 non d ame     -37.835  20.945  29.854  0.00  0.00     0.083 H 
ATOM     69  C34 non d ame     -36.431  20.746  26.763  0.00  0.00    -0.075 A 
ATOM     70  H52 non d ame     -37.578  22.262  27.782  0.00  0.00     0.083 H 
ATOM     71  H53 non d ame     -36.320  21.334  25.852  0.00  0.00     0.084 H 
ENDBRANCH  58  61
ENDBRANCH  57  58
ENDBRANCH  55  57
ENDBRANCH  52  55
ENDBRANCH  49  52
ENDBRANCH  47  49
BRANCH  47  72
ATOM     72  C24 non d ame     -32.491  14.755  29.205  0.00  0.00    -0.039 C 
ATOM     73  H35 non d ame     -31.873  15.538  29.644  0.00  0.00     0.036 H 
ATOM     74  H36 non d ame     -33.450  14.500  29.657  0.00  0.00     0.036 H 
BRANCH  72  75
ATOM     75  C25 non d ame     -31.610  13.417  29.179  0.00  0.00    -0.001 C 
ATOM     76  C26 non d ame     -32.574  12.107  29.426  0.00  0.00    -0.035 C 
ATOM     77  C27 non d ame     -32.043  11.357  30.421  0.00  0.00     0.085 C 
ATOM     78  H38 non d ame     -33.536  12.422  29.828  0.00  0.00     0.036 H 
ATOM     79  H39 non d ame     -32.535  11.446  28.560  0.00  0.00     0.036 H 
ATOM     80  N5  non d ame     -30.989  12.200  31.096  0.00  0.00    -0.049 N 
ATOM     81  H40 non d ame     -32.861  11.182  31.120  0.00  0.00     0.075 H 
ATOM     82  H41 non d ame     -31.561  10.515  29.925  0.00  0.00     0.075 H 
ATOM     83  C28 non d ame     -30.703  13.437  30.098  0.00  0.00     0.193 C 
ATOM     84  H42 non d ame     -31.408  12.559  31.942  0.00  0.00     0.280 HD
ATOM     85  H43 non d ame     -30.157  11.629  31.148  0.00  0.00     0.280 HD
ATOM     86  H44 non d ame     -29.801  13.457  29.486  0.00  0.00     0.129 H 
ATOM     87  H37 non d ame     -30.936  13.383  28.323  0.00  0.00     0.046 H 
BRANCH  83  88
ATOM     88  O6  non d ame     -30.700  14.666  30.826  0.00  0.00    -0.369 OA
ATOM     89  H45 non d ame     -30.781  14.483  31.765  0.00  0.00     0.212 HD
ENDBRANCH  83  88
ENDBRANCH  72  75
ENDBRANCH  47  72
ENDBRANCH  45  47
ENDBRANCH   1  43
BRANCH   1  90
ATOM     90  C16 non d ame     -31.055  14.541  23.385  0.00  0.00    -0.035 C 
ATOM     91  H21 non d ame     -31.995  14.396  22.854  0.00  0.00     0.037 H 
ATOM     92  H22 non d ame     -30.809  15.518  23.801  0.00  0.00     0.037 H 
BRANCH  90  93
ATOM     93  C17 non d ame     -29.918  14.195  22.371  0.00  0.00    -0.059 C 
ATOM     94  H23 non d ame     -29.810  13.110  22.353  0.00  0.00     0.038 H 
BRANCH  93  95
ATOM     95  C18 non d ame     -30.258  14.665  20.921  0.00  0.00    -0.073 C 
ATOM     96  H24 non d ame     -31.290  15.012  20.884  0.00  0.00     0.028 H 
ATOM     97  H25 non d ame     -29.592  15.479  20.637  0.00  0.00     0.028 H 
ATOM     98  H26 non d ame     -30.129  13.833  20.230  0.00  0.00     0.028 H 
ENDBRANCH  93  95
BRANCH  93  99
ATOM     99  C19 non d ame     -28.579  14.776  22.832  0.00  0.00    -0.073 C 
ATOM    100  H27 non d ame     -27.847  14.686  22.029  0.00  0.00     0.028 H 
ATOM    101  H28 non d ame     -28.708  15.828  23.089  0.00  0.00     0.028 H 
ATOM    102  H29 non d ame     -28.227  14.230  23.708  0.00  0.00     0.028 H 
ENDBRANCH  93  99
ENDBRANCH  90  93
ENDBRANCH   1  90
TORSDOF 26
ENDMDL
MODEL 14
REMARK VINA RESULT:      -6.8      1.987      5.243
REMARK  26 active torsions:
REMARK  status: ('A' for Active; 'I' for Inactive)
REMARK    1  A    between atoms: C2_2  and  C3_3 
REMARK    2  A    between atoms: C4_6  and  C5_7 
REMARK       I    between atoms: C5_7  and  N2_9 
REMARK    3  A    between atoms: N2_9  and  C6_10 
REMARK    4  A    between atoms: C6_10  and  C7_11 
REMARK    5  A    between atoms: C6_10  and  C8_13 
REMARK       I    between atoms: C7_11  and  N3_14 
REMARK    6  A    between atoms: N3_14  and  C9_15 
REMARK    7  A    between atoms: C9_15  and  C10_16 
REMARK    8  A    between atoms: C9_15  and  C11_18 
REMARK       I    between atoms: C10_16  and  N4_21 
REMARK    9  A    between atoms: C11_18  and  C12_19 
REMARK   10  A    between atoms: C11_18  and  C13_20 
REMARK   11  A    between atoms: N4_21  and  C14_22 
REMARK   12  A    between atoms: C14_22  and  C15_23 
REMARK   13  A    between atoms: C14_22  and  C16_25 
REMARK       I    between atoms: C15_23  and  N6_40 
REMARK   14  A    between atoms: C16_25  and  C17_26 
REMARK   15  A    between atoms: C17_26  and  C18_27 
REMARK   16  A    between atoms: C17_26  and  C19_28 
REMARK   17  A    between atoms: C20_29  and  C21_30 
REMARK   18  A    between atoms: C20_29  and  C24_33 
REMARK   19  A    between atoms: C20_29  and  N6_40 
REMARK   20  A    between atoms: C21_30  and  C22_31 
REMARK   21  A    between atoms: C22_31  and  C23_32 
REMARK   22  A    between atoms: C23_32  and  O8_43 
REMARK   23  A    between atoms: C24_33  and  C25_34 
REMARK   24  A    between atoms: C28_38  and  O6_39 
REMARK   25  A    between atoms: C29_42  and  O8_43 
REMARK   26  A    between atoms: C29_42  and  C35_49 
ROOT
ATOM      1  C14 non d ame     -30.985  13.961  24.636  0.00  0.00     0.089 C 
ATOM      2  H20 non d ame     -29.996  13.838  25.079  0.00  0.00     0.087 H 
ENDROOT
BRANCH   1   3
ATOM      3  N4  non d ame     -31.423  12.652  24.174  0.00  0.00    -0.346 N 
ATOM      4  C10 non d ame     -31.276  11.442  25.062  0.00  0.00     0.241 C 
ATOM      5  O4  non d ame     -30.799  11.546  26.144  0.00  0.00    -0.271 OA
ATOM      6  H19 non d ame     -31.824  12.584  23.249  0.00  0.00     0.163 HD
BRANCH   4   7
ATOM      7  C9  non d ame     -31.740  10.097  24.570  0.00  0.00     0.092 C 
ATOM      8  H11 non d ame     -31.283   9.316  25.177  0.00  0.00     0.088 H 
BRANCH   7   9
ATOM      9  N3  non d ame     -33.191   9.986  24.743  0.00  0.00    -0.346 N 
ATOM     10  C7  non d ame     -33.730   9.335  25.912  0.00  0.00     0.240 C 
ATOM     11  O3  non d ame     -33.010   8.893  26.722  0.00  0.00    -0.271 OA
ATOM     12  H10 non d ame     -33.825  10.361  24.052  0.00  0.00     0.163 HD
BRANCH  10  13
ATOM     13  C6  non d ame     -35.276   9.218  26.090  0.00  0.00     0.086 C 
ATOM     14  H6  non d ame     -35.562   8.889  27.088  0.00  0.00     0.086 H 
BRANCH  13  15
ATOM     15  N2  non d ame     -35.873  10.529  25.897  0.00  0.00    -0.343 N 
ATOM     16  C5  non d ame     -36.317  11.298  27.062  0.00  0.00     0.273 C 
ATOM     17  O2  non d ame     -36.193  10.851  28.149  0.00  0.00    -0.266 OA
ATOM     18  H5  non d ame     -35.978  10.902  24.964  0.00  0.00     0.163 HD
BRANCH  16  19
ATOM     19  C4  non d ame     -36.949  12.686  26.873  0.00  0.00     0.154 A 
ATOM     20  C1  non d ame     -36.291  13.885  26.454  0.00  0.00    -0.017 A 
ATOM     21  C2  non d ame     -37.304  14.870  26.440  0.00  0.00     0.077 A 
ATOM     22  H1  non d ame     -35.239  14.021  26.200  0.00  0.00     0.091 H 
ATOM     23  O1  non d ame     -38.410  14.292  26.807  0.00  0.00    -0.218 OA
ATOM     24  N1  non d ame     -38.228  13.018  27.066  0.00  0.00    -0.123 NA
BRANCH  21  25
ATOM     25  C3  non d ame     -37.132  16.335  26.063  0.00  0.00    -0.029 C 
ATOM     26  H2  non d ame     -38.070  16.865  26.226  0.00  0.00     0.036 H 
ATOM     27  H3  non d ame     -36.352  16.780  26.680  0.00  0.00     0.036 H 
ATOM     28  H4  non d ame     -36.850  16.410  25.013  0.00  0.00     0.036 H 
ENDBRANCH  21  25
ENDBRANCH  16  19
ENDBRANCH  13  15
BRANCH  13  29
ATOM     29  C8  non d ame     -35.828   8.245  25.079  0.00  0.00    -0.049 C 
ATOM     30  H7  non d ame     -35.199   7.355  25.050  0.00  0.00     0.030 H 
ATOM     31  H8  non d ame     -36.842   7.964  25.362  0.00  0.00     0.030 H 
ATOM     32  H9  non d ame     -35.842   8.713  24.094  0.00  0.00     0.030 H 
ENDBRANCH  13  29
ENDBRANCH  10  13
ENDBRANCH   7   9
BRANCH   7  33
ATOM     33  C11 non d ame     -31.388   9.947  23.061  0.00  0.00    -0.033 C 
ATOM     34  H12 non d ame     -31.648  10.883  22.568  0.00  0.00     0.042 H 
BRANCH  33  35
ATOM     35  C12 non d ame     -29.858   9.718  22.854  0.00  0.00    -0.071 C 
ATOM     36  H13 non d ame     -29.507  10.330  22.024  0.00  0.00     0.028 H 
ATOM     37  H14 non d ame     -29.323   9.996  23.762  0.00  0.00     0.028 H 
ATOM     38  H15 non d ame     -29.675   8.666  22.632  0.00  0.00     0.028 H 
ENDBRANCH  33  35
BRANCH  33  39
ATOM     39  C13 non d ame     -32.225   8.804  22.402  0.00  0.00    -0.071 C 
ATOM     40  H16 non d ame     -32.791   8.278  23.171  0.00  0.00     0.028 H 
ATOM     41  H17 non d ame     -32.914   9.232  21.673  0.00  0.00     0.028 H 
ATOM     42  H18 non d ame     -31.556   8.105  21.901  0.00  0.00     0.028 H 
ENDBRANCH  33  39
ENDBRANCH   7  33
ENDBRANCH   4   7
ENDBRANCH   1   3
BRANCH   1  43
ATOM     43  C15 non d ame     -32.025  14.499  25.659  0.00  0.00     0.240 C 
ATOM     44  O5  non d ame     -33.077  14.900  25.278  0.00  0.00    -0.271 OA
ATOM     45  N6  non d ame     -31.714  14.505  27.117  0.00  0.00    -0.355 N 
ATOM     46  H46 non d ame     -30.826  14.162  27.454  0.00  0.00     0.162 HD
BRANCH  45  47
ATOM     47  C20 non d ame     -32.714  15.018  28.078  0.00  0.00     0.013 C 
ATOM     48  H30 non d ame     -33.703  14.871  27.644  0.00  0.00     0.072 H 
BRANCH  47  49
ATOM     49  C21 non d ame     -32.469  16.491  28.316  0.00  0.00    -0.038 C 
ATOM     50  H31 non d ame     -32.558  16.635  29.393  0.00  0.00     0.036 H 
ATOM     51  H32 non d ame     -31.529  16.718  27.811  0.00  0.00     0.036 H 
BRANCH  49  52
ATOM     52  C22 non d ame     -33.542  17.390  27.665  0.00  0.00     0.018 C 
ATOM     53  H33 non d ame     -33.841  16.879  26.750  0.00  0.00     0.048 H 
ATOM     54  H34 non d ame     -34.278  17.585  28.446  0.00  0.00     0.048 H 
BRANCH  52  55
ATOM     55  C23 non d ame     -33.009  18.781  27.222  0.00  0.00     0.259 C 
ATOM     56  O7  non d ame     -31.974  18.876  26.647  0.00  0.00    -0.265 OA
BRANCH  55  57
ATOM     57  O8  non d ame     -33.768  19.946  27.523  0.00  0.00    -0.317 OA
BRANCH  57  58
ATOM     58  C29 non d ame     -35.106  19.675  27.950  0.00  0.00     0.052 C 
ATOM     59  H47 non d ame     -35.154  18.597  28.106  0.00  0.00     0.082 H 
ATOM     60  H48 non d ame     -35.294  20.354  28.781  0.00  0.00     0.082 H 
BRANCH  58  61
ATOM     61  C35 non d ame     -36.064  20.046  26.787  0.00  0.00    -0.034 A 
ATOM     62  C30 non d ame     -35.779  19.632  25.490  0.00  0.00    -0.075 A 
ATOM     63  C31 non d ame     -36.639  19.965  24.445  0.00  0.00    -0.082 A 
ATOM     64  H49 non d ame     -34.881  19.046  25.292  0.00  0.00     0.084 H 
ATOM     65  C32 non d ame     -37.788  20.719  24.701  0.00  0.00    -0.083 A 
ATOM     66  H50 non d ame     -36.414  19.637  23.430  0.00  0.00     0.083 H 
ATOM     67  C33 non d ame     -38.067  21.133  25.996  0.00  0.00    -0.082 A 
ATOM     68  H51 non d ame     -38.467  20.983  23.890  0.00  0.00     0.083 H 
ATOM     69  C34 non d ame     -37.211  20.801  27.044  0.00  0.00    -0.075 A 
ATOM     70  H52 non d ame     -38.963  21.723  26.192  0.00  0.00     0.083 H 
ATOM     71  H53 non d ame     -37.437  21.129  28.059  0.00  0.00     0.084 H 
ENDBRANCH  58  61
ENDBRANCH  57  58
ENDBRANCH  55  57
ENDBRANCH  52  55
ENDBRANCH  49  52
ENDBRANCH  47  49
BRANCH  47  72
ATOM     72  C24 non d ame     -32.597  14.262  29.400  0.00  0.00    -0.039 C 
ATOM     73  H35 non d ame     -31.942  14.870  30.024  0.00  0.00     0.036 H 
ATOM     74  H36 non d ame     -33.622  14.067  29.714  0.00  0.00     0.036 H 
BRANCH  72  75
ATOM     75  C25 non d ame     -31.882  12.841  29.208  0.00  0.00    -0.001 C 
ATOM     76  C26 non d ame     -33.011  11.646  29.180  0.00  0.00    -0.035 C 
ATOM     77  C27 non d ame     -32.655  10.688  30.069  0.00  0.00     0.085 C 
ATOM     78  H38 non d ame     -33.958  12.017  29.571  0.00  0.00     0.036 H 
ATOM     79  H39 non d ame     -32.983  11.127  28.222  0.00  0.00     0.036 H 
ATOM     80  N5  non d ame     -31.564  11.272  30.934  0.00  0.00    -0.049 N 
ATOM     81  H40 non d ame     -33.540  10.515  30.681  0.00  0.00     0.075 H 
ATOM     82  H41 non d ame     -32.239   9.877  29.472  0.00  0.00     0.075 H 
ATOM     83  C28 non d ame     -31.055  12.600  30.169  0.00  0.00     0.193 C 
ATOM     84  H42 non d ame     -32.003  11.548  31.800  0.00  0.00     0.280 HD
ATOM     85  H43 non d ame     -30.813  10.597  30.940  0.00  0.00     0.280 HD
ATOM     86  H44 non d ame     -30.112  12.598  29.623  0.00  0.00     0.129 H 
ATOM     87  H37 non d ame     -31.152  12.852  28.399  0.00  0.00     0.046 H 
BRANCH  83  88
ATOM     88  O6  non d ame     -30.962  13.692  31.087  0.00  0.00    -0.369 OA
ATOM     89  H45 non d ame     -31.681  14.307  30.926  0.00  0.00     0.212 HD
ENDBRANCH  83  88
ENDBRANCH  72  75
ENDBRANCH  47  72
ENDBRANCH  45  47
ENDBRANCH   1  43
BRANCH   1  90
ATOM     90  C16 non d ame     -30.902  14.905  23.447  0.00  0.00    -0.035 C 
ATOM     91  H21 non d ame     -31.899  14.901  23.006  0.00  0.00     0.037 H 
ATOM     92  H22 non d ame     -30.484  15.831  23.842  0.00  0.00     0.037 H 
BRANCH  90  93
ATOM     93  C17 non d ame     -29.924  14.421  22.329  0.00  0.00    -0.059 C 
ATOM     94  H23 non d ame     -29.950  13.331  22.316  0.00  0.00     0.038 H 
BRANCH  93  95
ATOM     95  C18 non d ame     -30.352  14.925  20.913  0.00  0.00    -0.073 C 
ATOM     96  H24 non d ame     -29.949  14.256  20.153  0.00  0.00     0.028 H 
ATOM     97  H25 non d ame     -31.439  14.938  20.845  0.00  0.00     0.028 H 
ATOM     98  H26 non d ame     -29.966  15.931  20.754  0.00  0.00     0.028 H 
ENDBRANCH  93  95
BRANCH  93  99
ATOM     99  C19 non d ame     -28.485  14.837  22.644  0.00  0.00    -0.073 C 
ATOM    100  H27 non d ame     -28.325  14.804  23.722  0.00  0.00     0.028 H 
ATOM    101  H28 non d ame     -27.793  14.153  22.153  0.00  0.00     0.028 H 
ATOM    102  H29 non d ame     -28.313  15.850  22.281  0.00  0.00     0.028 H 
ENDBRANCH  93  99
ENDBRANCH  90  93
ENDBRANCH   1  90
TORSDOF 26
ENDMDL
MODEL 15
REMARK VINA RESULT:      -6.8      2.584      6.639
REMARK  26 active torsions:
REMARK  status: ('A' for Active; 'I' for Inactive)
REMARK    1  A    between atoms: C2_2  and  C3_3 
REMARK    2  A    between atoms: C4_6  and  C5_7 
REMARK       I    between atoms: C5_7  and  N2_9 
REMARK    3  A    between atoms: N2_9  and  C6_10 
REMARK    4  A    between atoms: C6_10  and  C7_11 
REMARK    5  A    between atoms: C6_10  and  C8_13 
REMARK       I    between atoms: C7_11  and  N3_14 
REMARK    6  A    between atoms: N3_14  and  C9_15 
REMARK    7  A    between atoms: C9_15  and  C10_16 
REMARK    8  A    between atoms: C9_15  and  C11_18 
REMARK       I    between atoms: C10_16  and  N4_21 
REMARK    9  A    between atoms: C11_18  and  C12_19 
REMARK   10  A    between atoms: C11_18  and  C13_20 
REMARK   11  A    between atoms: N4_21  and  C14_22 
REMARK   12  A    between atoms: C14_22  and  C15_23 
REMARK   13  A    between atoms: C14_22  and  C16_25 
REMARK       I    between atoms: C15_23  and  N6_40 
REMARK   14  A    between atoms: C16_25  and  C17_26 
REMARK   15  A    between atoms: C17_26  and  C18_27 
REMARK   16  A    between atoms: C17_26  and  C19_28 
REMARK   17  A    between atoms: C20_29  and  C21_30 
REMARK   18  A    between atoms: C20_29  and  C24_33 
REMARK   19  A    between atoms: C20_29  and  N6_40 
REMARK   20  A    between atoms: C21_30  and  C22_31 
REMARK   21  A    between atoms: C22_31  and  C23_32 
REMARK   22  A    between atoms: C23_32  and  O8_43 
REMARK   23  A    between atoms: C24_33  and  C25_34 
REMARK   24  A    between atoms: C28_38  and  O6_39 
REMARK   25  A    between atoms: C29_42  and  O8_43 
REMARK   26  A    between atoms: C29_42  and  C35_49 
ROOT
ATOM      1  C14 non d ame     -32.539   9.482  24.595  0.00  0.00     0.089 C 
ATOM      2  H20 non d ame     -32.211   8.587  25.125  0.00  0.00     0.087 H 
ENDROOT
BRANCH   1   3
ATOM      3  N4  non d ame     -33.864   9.824  25.092  0.00  0.00    -0.346 N 
ATOM      4  C10 non d ame     -34.803   8.743  25.563  0.00  0.00     0.241 C 
ATOM      5  O4  non d ame     -34.473   7.604  25.531  0.00  0.00    -0.271 OA
ATOM      6  H19 non d ame     -34.127  10.799  25.109  0.00  0.00     0.163 HD
BRANCH   4   7
ATOM      7  C9  non d ame     -36.168   9.117  26.080  0.00  0.00     0.092 C 
ATOM      8  H11 non d ame     -36.753   8.210  26.235  0.00  0.00     0.088 H 
BRANCH   7   9
ATOM      9  N3  non d ame     -36.035   9.775  27.383  0.00  0.00    -0.346 N 
ATOM     10  C7  non d ame     -36.336   9.047  28.592  0.00  0.00     0.240 C 
ATOM     11  O3  non d ame     -36.687   7.932  28.533  0.00  0.00    -0.271 OA
ATOM     12  H10 non d ame     -35.734  10.736  27.449  0.00  0.00     0.163 HD
BRANCH  10  13
ATOM     13  C6  non d ame     -36.195   9.753  29.976  0.00  0.00     0.086 C 
ATOM     14  H6  non d ame     -35.944   9.060  30.779  0.00  0.00     0.086 H 
BRANCH  13  15
ATOM     15  N2  non d ame     -35.109  10.717  29.905  0.00  0.00    -0.343 N 
ATOM     16  C5  non d ame     -33.868  10.461  30.638  0.00  0.00     0.273 C 
ATOM     17  O2  non d ame     -33.753   9.477  31.284  0.00  0.00    -0.266 OA
ATOM     18  H5  non d ame     -35.217  11.556  29.352  0.00  0.00     0.163 HD
BRANCH  16  19
ATOM     19  C4  non d ame     -32.711  11.470  30.570  0.00  0.00     0.154 A 
ATOM     20  C1  non d ame     -32.714  12.747  29.923  0.00  0.00    -0.017 A 
ATOM     21  C2  non d ame     -31.424  13.274  30.152  0.00  0.00     0.077 A 
ATOM     22  H1  non d ame     -33.528  13.218  29.372  0.00  0.00     0.091 H 
ATOM     23  O1  non d ame     -30.765  12.396  30.851  0.00  0.00    -0.218 OA
ATOM     24  N1  non d ame     -31.495  11.335  31.107  0.00  0.00    -0.123 NA
BRANCH  21  25
ATOM     25  C3  non d ame     -30.902  14.621  29.671  0.00  0.00    -0.029 C 
ATOM     26  H2  non d ame     -31.573  15.411  30.004  0.00  0.00     0.036 H 
ATOM     27  H3  non d ame     -29.907  14.792  30.082  0.00  0.00     0.036 H 
ATOM     28  H4  non d ame     -30.850  14.623  28.583  0.00  0.00     0.036 H 
ENDBRANCH  21  25
ENDBRANCH  16  19
ENDBRANCH  13  15
BRANCH  13  29
ATOM     29  C8  non d ame     -37.485  10.453  30.320  0.00  0.00    -0.049 C 
ATOM     30  H7  non d ame     -37.270  11.467  30.656  0.00  0.00     0.030 H 
ATOM     31  H8  non d ame     -38.124  10.490  29.438  0.00  0.00     0.030 H 
ATOM     32  H9  non d ame     -37.994   9.907  31.115  0.00  0.00     0.030 H 
ENDBRANCH  13  29
ENDBRANCH  10  13
ENDBRANCH   7   9
BRANCH   7  33
ATOM     33  C11 non d ame     -36.853  10.091  25.078  0.00  0.00    -0.033 C 
ATOM     34  H12 non d ame     -36.138  10.881  24.847  0.00  0.00     0.042 H 
BRANCH  33  35
ATOM     35  C12 non d ame     -37.208   9.373  23.738  0.00  0.00    -0.071 C 
ATOM     36  H13 non d ame     -38.138   8.818  23.859  0.00  0.00     0.028 H 
ATOM     37  H14 non d ame     -37.327  10.115  22.949  0.00  0.00     0.028 H 
ATOM     38  H15 non d ame     -36.406   8.684  23.472  0.00  0.00     0.028 H 
ENDBRANCH  33  35
BRANCH  33  39
ATOM     39  C13 non d ame     -38.116  10.754  25.716  0.00  0.00    -0.071 C 
ATOM     40  H16 non d ame     -38.708  11.233  24.937  0.00  0.00     0.028 H 
ATOM     41  H17 non d ame     -38.716   9.991  26.212  0.00  0.00     0.028 H 
ATOM     42  H18 non d ame     -37.804  11.501  26.447  0.00  0.00     0.028 H 
ENDBRANCH  33  39
ENDBRANCH   7  33
ENDBRANCH   4   7
ENDBRANCH   1   3
BRANCH   1  43
ATOM     43  C15 non d ame     -31.591  10.690  24.839  0.00  0.00     0.240 C 
ATOM     44  O5  non d ame     -30.780  10.640  25.707  0.00  0.00    -0.271 OA
ATOM     45  N6  non d ame     -31.687  11.908  23.984  0.00  0.00    -0.355 N 
ATOM     46  H46 non d ame     -32.368  11.961  23.241  0.00  0.00     0.162 HD
BRANCH  45  47
ATOM     47  C20 non d ame     -30.777  13.048  24.228  0.00  0.00     0.013 C 
ATOM     48  H30 non d ame     -30.033  12.733  24.959  0.00  0.00     0.072 H 
BRANCH  47  49
ATOM     49  C21 non d ame     -31.571  14.214  24.770  0.00  0.00    -0.038 C 
ATOM     50  H31 non d ame     -30.876  15.053  24.806  0.00  0.00     0.036 H 
ATOM     51  H32 non d ame     -32.466  14.274  24.150  0.00  0.00     0.036 H 
BRANCH  49  52
ATOM     52  C22 non d ame     -32.057  13.988  26.218  0.00  0.00     0.018 C 
ATOM     53  H33 non d ame     -31.612  13.045  26.535  0.00  0.00     0.048 H 
ATOM     54  H34 non d ame     -31.825  14.908  26.755  0.00  0.00     0.048 H 
BRANCH  52  55
ATOM     55  C23 non d ame     -33.595  13.797  26.340  0.00  0.00     0.259 C 
ATOM     56  O7  non d ame     -34.088  12.734  26.142  0.00  0.00    -0.265 OA
BRANCH  55  57
ATOM     57  O8  non d ame     -34.410  14.911  26.680  0.00  0.00    -0.317 OA
BRANCH  57  58
ATOM     58  C29 non d ame     -33.942  15.652  27.811  0.00  0.00     0.052 C 
ATOM     59  H47 non d ame     -34.800  15.751  28.475  0.00  0.00     0.082 H 
ATOM     60  H48 non d ame     -33.046  15.135  28.152  0.00  0.00     0.082 H 
BRANCH  58  61
ATOM     61  C35 non d ame     -33.534  17.067  27.320  0.00  0.00    -0.034 A 
ATOM     62  C30 non d ame     -32.836  17.923  28.165  0.00  0.00    -0.075 A 
ATOM     63  C31 non d ame     -32.470  19.194  27.725  0.00  0.00    -0.082 A 
ATOM     64  H49 non d ame     -32.575  17.599  29.173  0.00  0.00     0.084 H 
ATOM     65  C32 non d ame     -32.808  19.610  26.434  0.00  0.00    -0.083 A 
ATOM     66  H50 non d ame     -31.921  19.862  28.390  0.00  0.00     0.083 H 
ATOM     67  C33 non d ame     -33.508  18.753  25.595  0.00  0.00    -0.082 A 
ATOM     68  H51 non d ame     -32.525  20.602  26.082  0.00  0.00     0.083 H 
ATOM     69  C34 non d ame     -33.873  17.481  26.030  0.00  0.00    -0.075 A 
ATOM     70  H52 non d ame     -33.772  19.081  24.589  0.00  0.00     0.083 H 
ATOM     71  H53 non d ame     -34.422  16.814  25.365  0.00  0.00     0.084 H 
ENDBRANCH  58  61
ENDBRANCH  57  58
ENDBRANCH  55  57
ENDBRANCH  52  55
ENDBRANCH  49  52
ENDBRANCH  47  49
BRANCH  47  72
ATOM     72  C24 non d ame     -30.099  13.456  22.922  0.00  0.00    -0.039 C 
ATOM     73  H35 non d ame     -29.042  13.223  23.059  0.00  0.00     0.036 H 
ATOM     74  H36 non d ame     -30.667  12.963  22.133  0.00  0.00     0.036 H 
BRANCH  72  75
ATOM     75  C25 non d ame     -30.205  15.033  22.666  0.00  0.00    -0.001 C 
ATOM     76  C26 non d ame     -31.159  15.326  21.358  0.00  0.00    -0.035 C 
ATOM     77  C27 non d ame     -30.496  16.149  20.511  0.00  0.00     0.085 C 
ATOM     78  H38 non d ame     -31.287  14.412  20.778  0.00  0.00     0.036 H 
ATOM     79  H39 non d ame     -32.030  15.911  21.654  0.00  0.00     0.036 H 
ATOM     80  N5  non d ame     -29.056  16.182  20.963  0.00  0.00    -0.049 N 
ATOM     81  H40 non d ame     -30.552  15.667  19.535  0.00  0.00     0.075 H 
ATOM     82  H41 non d ame     -30.938  17.134  20.658  0.00  0.00     0.075 H 
ATOM     83  C28 non d ame     -29.043  15.551  22.449  0.00  0.00     0.193 C 
ATOM     84  H42 non d ame     -28.549  15.564  20.346  0.00  0.00     0.280 HD
ATOM     85  H43 non d ame     -28.799  17.157  21.025  0.00  0.00     0.280 HD
ATOM     86  H44 non d ame     -28.946  16.196  23.323  0.00  0.00     0.129 H 
ATOM     87  H37 non d ame     -30.432  15.585  23.578  0.00  0.00     0.046 H 
BRANCH  83  88
ATOM     88  O6  non d ame     -27.993  14.589  22.566  0.00  0.00    -0.369 OA
ATOM     89  H45 non d ame     -28.372  13.720  22.721  0.00  0.00     0.212 HD
ENDBRANCH  83  88
ENDBRANCH  72  75
ENDBRANCH  47  72
ENDBRANCH  45  47
ENDBRANCH   1  43
BRANCH   1  90
ATOM     90  C16 non d ame     -32.628   9.194  23.105  0.00  0.00    -0.035 C 
ATOM     91  H21 non d ame     -33.639   8.821  22.942  0.00  0.00     0.037 H 
ATOM     92  H22 non d ame     -32.299  10.110  22.614  0.00  0.00     0.037 H 
BRANCH  90  93
ATOM     93  C17 non d ame     -31.660   8.065  22.626  0.00  0.00    -0.059 C 
ATOM     94  H23 non d ame     -30.683   8.518  22.456  0.00  0.00     0.038 H 
BRANCH  93  95
ATOM     95  C18 non d ame     -31.485   6.944  23.700  0.00  0.00    -0.073 C 
ATOM     96  H24 non d ame     -31.725   7.343  24.685  0.00  0.00     0.028 H 
ATOM     97  H25 non d ame     -32.153   6.115  23.472  0.00  0.00     0.028 H 
ATOM     98  H26 non d ame     -30.453   6.592  23.693  0.00  0.00     0.028 H 
ENDBRANCH  93  95
BRANCH  93  99
ATOM     99  C19 non d ame     -32.126   7.474  21.293  0.00  0.00    -0.073 C 
ATOM    100  H27 non d ame     -33.189   7.677  21.157  0.00  0.00     0.028 H 
ATOM    101  H28 non d ame     -31.562   7.927  20.477  0.00  0.00     0.028 H 
ATOM    102  H29 non d ame     -31.959   6.397  21.295  0.00  0.00     0.028 H 
ENDBRANCH  93  99
ENDBRANCH  90  93
ENDBRANCH   1  90
TORSDOF 26
ENDMDL
MODEL 16
REMARK VINA RESULT:      -6.7      3.402      8.899
REMARK  26 active torsions:
REMARK  status: ('A' for Active; 'I' for Inactive)
REMARK    1  A    between atoms: C2_2  and  C3_3 
REMARK    2  A    between atoms: C4_6  and  C5_7 
REMARK       I    between atoms: C5_7  and  N2_9 
REMARK    3  A    between atoms: N2_9  and  C6_10 
REMARK    4  A    between atoms: C6_10  and  C7_11 
REMARK    5  A    between atoms: C6_10  and  C8_13 
REMARK       I    between atoms: C7_11  and  N3_14 
REMARK    6  A    between atoms: N3_14  and  C9_15 
REMARK    7  A    between atoms: C9_15  and  C10_16 
REMARK    8  A    between atoms: C9_15  and  C11_18 
REMARK       I    between atoms: C10_16  and  N4_21 
REMARK    9  A    between atoms: C11_18  and  C12_19 
REMARK   10  A    between atoms: C11_18  and  C13_20 
REMARK   11  A    between atoms: N4_21  and  C14_22 
REMARK   12  A    between atoms: C14_22  and  C15_23 
REMARK   13  A    between atoms: C14_22  and  C16_25 
REMARK       I    between atoms: C15_23  and  N6_40 
REMARK   14  A    between atoms: C16_25  and  C17_26 
REMARK   15  A    between atoms: C17_26  and  C18_27 
REMARK   16  A    between atoms: C17_26  and  C19_28 
REMARK   17  A    between atoms: C20_29  and  C21_30 
REMARK   18  A    between atoms: C20_29  and  C24_33 
REMARK   19  A    between atoms: C20_29  and  N6_40 
REMARK   20  A    between atoms: C21_30  and  C22_31 
REMARK   21  A    between atoms: C22_31  and  C23_32 
REMARK   22  A    between atoms: C23_32  and  O8_43 
REMARK   23  A    between atoms: C24_33  and  C25_34 
REMARK   24  A    between atoms: C28_38  and  O6_39 
REMARK   25  A    between atoms: C29_42  and  O8_43 
REMARK   26  A    between atoms: C29_42  and  C35_49 
ROOT
ATOM      1  C14 non d ame     -35.269   9.046  27.123  0.00  0.00     0.089 C 
ATOM      2  H20 non d ame     -35.394   8.438  28.020  0.00  0.00     0.087 H 
ENDROOT
BRANCH   1   3
ATOM      3  N4  non d ame     -34.233  10.029  27.401  0.00  0.00    -0.346 N 
ATOM      4  C10 non d ame     -33.376   9.904  28.636  0.00  0.00     0.241 C 
ATOM      5  O4  non d ame     -33.541   9.005  29.393  0.00  0.00    -0.271 OA
ATOM      6  H19 non d ame     -34.110  10.788  26.746  0.00  0.00     0.163 HD
BRANCH   4   7
ATOM      7  C9  non d ame     -32.304  10.927  28.905  0.00  0.00     0.092 C 
ATOM      8  H11 non d ame     -31.376  10.608  28.430  0.00  0.00     0.088 H 
BRANCH   7   9
ATOM      9  N3  non d ame     -32.685  12.206  28.297  0.00  0.00    -0.346 N 
ATOM     10  C7  non d ame     -31.941  12.719  27.173  0.00  0.00     0.240 C 
ATOM     11  O3  non d ame     -31.033  12.116  26.746  0.00  0.00    -0.271 OA
ATOM     12  H10 non d ame     -33.465  12.737  28.656  0.00  0.00     0.163 HD
BRANCH  10  13
ATOM     13  C6  non d ame     -32.349  14.082  26.532  0.00  0.00     0.086 C 
ATOM     14  H6  non d ame     -31.938  14.938  27.066  0.00  0.00     0.086 H 
BRANCH  13  15
ATOM     15  N2  non d ame     -31.821  14.143  25.179  0.00  0.00    -0.343 N 
ATOM     16  C5  non d ame     -31.121  15.350  24.733  0.00  0.00     0.273 C 
ATOM     17  O2  non d ame     -30.990  16.266  25.468  0.00  0.00    -0.266 OA
ATOM     18  H5  non d ame     -31.940  13.357  24.557  0.00  0.00     0.163 HD
BRANCH  16  19
ATOM     19  C4  non d ame     -30.556  15.428  23.306  0.00  0.00     0.154 A 
ATOM     20  C1  non d ame     -31.297  15.562  22.089  0.00  0.00    -0.017 A 
ATOM     21  C2  non d ame     -30.320  15.587  21.069  0.00  0.00     0.077 A 
ATOM     22  H1  non d ame     -32.378  15.630  21.965  0.00  0.00     0.091 H 
ATOM     23  O1  non d ame     -29.157  15.481  21.644  0.00  0.00    -0.218 OA
ATOM     24  N1  non d ame     -29.270  15.387  22.948  0.00  0.00    -0.123 NA
BRANCH  21  25
ATOM     25  C3  non d ame     -30.580  15.716  19.574  0.00  0.00    -0.029 C 
ATOM     26  H2  non d ame     -30.555  16.767  19.290  0.00  0.00     0.036 H 
ATOM     27  H3  non d ame     -29.812  15.172  19.024  0.00  0.00     0.036 H 
ATOM     28  H4  non d ame     -31.559  15.299  19.338  0.00  0.00     0.036 H 
ENDBRANCH  21  25
ENDBRANCH  16  19
ENDBRANCH  13  15
BRANCH  13  29
ATOM     29  C8  non d ame     -33.852  14.198  26.506  0.00  0.00    -0.049 C 
ATOM     30  H7  non d ame     -34.157  14.764  25.626  0.00  0.00     0.030 H 
ATOM     31  H8  non d ame     -34.292  13.202  26.468  0.00  0.00     0.030 H 
ATOM     32  H9  non d ame     -34.192  14.712  27.405  0.00  0.00     0.030 H 
ENDBRANCH  13  29
ENDBRANCH  10  13
ENDBRANCH   7   9
BRANCH   7  33
ATOM     33  C11 non d ame     -32.140  11.115  30.442  0.00  0.00    -0.033 C 
ATOM     34  H12 non d ame     -31.984  10.129  30.879  0.00  0.00     0.042 H 
BRANCH  33  35
ATOM     35  C12 non d ame     -30.887  11.981  30.779  0.00  0.00    -0.071 C 
ATOM     36  H13 non d ame     -30.213  11.412  31.419  0.00  0.00     0.028 H 
ATOM     37  H14 non d ame     -30.372  12.249  29.856  0.00  0.00     0.028 H 
ATOM     38  H15 non d ame     -31.200  12.888  31.297  0.00  0.00     0.028 H 
ENDBRANCH  33  35
BRANCH  33  39
ATOM     39  C13 non d ame     -33.435  11.722  31.072  0.00  0.00    -0.071 C 
ATOM     40  H16 non d ame     -34.283  11.072  30.858  0.00  0.00     0.028 H 
ATOM     41  H17 non d ame     -33.307  11.811  32.151  0.00  0.00     0.028 H 
ATOM     42  H18 non d ame     -33.617  12.709  30.647  0.00  0.00     0.028 H 
ENDBRANCH  33  39
ENDBRANCH   7  33
ENDBRANCH   4   7
ENDBRANCH   1   3
BRANCH   1  43
ATOM     43  C15 non d ame     -34.831   8.199  25.894  0.00  0.00     0.240 C 
ATOM     44  O5  non d ame     -35.610   7.468  25.373  0.00  0.00    -0.271 OA
ATOM     45  N6  non d ame     -33.443   8.305  25.363  0.00  0.00    -0.355 N 
ATOM     46  H46 non d ame     -32.774   8.926  25.794  0.00  0.00     0.162 HD
BRANCH  45  47
ATOM     47  C20 non d ame     -33.042   7.494  24.193  0.00  0.00     0.013 C 
ATOM     48  H30 non d ame     -33.916   6.936  23.856  0.00  0.00     0.072 H 
BRANCH  47  49
ATOM     49  C21 non d ame     -31.944   6.537  24.600  0.00  0.00    -0.038 C 
ATOM     50  H31 non d ame     -31.968   5.732  23.866  0.00  0.00     0.036 H 
ATOM     51  H32 non d ame     -31.048   7.148  24.712  0.00  0.00     0.036 H 
BRANCH  49  52
ATOM     52  C22 non d ame     -32.200   5.882  25.975  0.00  0.00     0.018 C 
ATOM     53  H33 non d ame     -31.266   5.392  26.247  0.00  0.00     0.048 H 
ATOM     54  H34 non d ame     -32.606   6.672  26.607  0.00  0.00     0.048 H 
BRANCH  52  55
ATOM     55  C23 non d ame     -33.277   4.762  25.944  0.00  0.00     0.259 C 
ATOM     56  O7  non d ame     -33.321   3.992  25.040  0.00  0.00    -0.265 OA
BRANCH  55  57
ATOM     57  O8  non d ame     -34.222   4.675  27.004  0.00  0.00    -0.317 OA
BRANCH  57  58
ATOM     58  C29 non d ame     -33.915   5.505  28.127  0.00  0.00     0.052 C 
ATOM     59  H47 non d ame     -33.138   4.977  28.681  0.00  0.00     0.082 H 
ATOM     60  H48 non d ame     -33.714   6.494  27.717  0.00  0.00     0.082 H 
BRANCH  58  61
ATOM     61  C35 non d ame     -35.182   5.591  29.020  0.00  0.00    -0.034 A 
ATOM     62  C30 non d ame     -36.435   5.326  28.478  0.00  0.00    -0.075 A 
ATOM     63  C31 non d ame     -37.573   5.404  29.279  0.00  0.00    -0.082 A 
ATOM     64  H49 non d ame     -36.526   5.058  27.425  0.00  0.00     0.084 H 
ATOM     65  C32 non d ame     -37.455   5.751  30.628  0.00  0.00    -0.083 A 
ATOM     66  H50 non d ame     -38.554   5.194  28.852  0.00  0.00     0.083 H 
ATOM     67  C33 non d ame     -36.202   6.018  31.163  0.00  0.00    -0.082 A 
ATOM     68  H51 non d ame     -38.339   5.813  31.261  0.00  0.00     0.083 H 
ATOM     69  C34 non d ame     -35.062   5.939  30.367  0.00  0.00    -0.075 A 
ATOM     70  H52 non d ame     -36.113   6.291  32.215  0.00  0.00     0.083 H 
ATOM     71  H53 non d ame     -34.081   6.150  30.795  0.00  0.00     0.084 H 
ENDBRANCH  58  61
ENDBRANCH  57  58
ENDBRANCH  55  57
ENDBRANCH  52  55
ENDBRANCH  49  52
ENDBRANCH  47  49
BRANCH  47  72
ATOM     72  C24 non d ame     -32.535   8.408  23.079  0.00  0.00    -0.039 C 
ATOM     73  H35 non d ame     -32.515   7.789  22.182  0.00  0.00     0.036 H 
ATOM     74  H36 non d ame     -33.171   9.292  23.117  0.00  0.00     0.036 H 
BRANCH  72  75
ATOM     75  C25 non d ame     -31.033   8.895  23.351  0.00  0.00    -0.001 C 
ATOM     76  C26 non d ame     -31.013  10.513  23.644  0.00  0.00    -0.035 C 
ATOM     77  C27 non d ame     -30.093  11.091  22.837  0.00  0.00     0.085 C 
ATOM     78  H38 non d ame     -31.953  10.962  23.323  0.00  0.00     0.036 H 
ATOM     79  H39 non d ame     -30.631  10.706  24.646  0.00  0.00     0.036 H 
ATOM     80  N5  non d ame     -29.717  10.069  21.792  0.00  0.00    -0.049 N 
ATOM     81  H40 non d ame     -30.610  11.920  22.353  0.00  0.00     0.075 H 
ATOM     82  H41 non d ame     -29.229  11.285  23.472  0.00  0.00     0.075 H 
ATOM     83  C28 non d ame     -30.273   8.654  22.335  0.00  0.00     0.193 C 
ATOM     84  H42 non d ame     -30.225  10.314  20.955  0.00  0.00     0.280 HD
ATOM     85  H43 non d ame     -28.707  10.034  21.777  0.00  0.00     0.280 HD
ATOM     86  H44 non d ame     -29.592   7.920  22.767  0.00  0.00     0.129 H 
ATOM     87  H37 non d ame     -30.514   8.255  24.065  0.00  0.00     0.046 H 
BRANCH  83  88
ATOM     88  O6  non d ame     -30.967   7.964  21.294  0.00  0.00    -0.369 OA
ATOM     89  H45 non d ame     -31.912   8.015  21.451  0.00  0.00     0.212 HD
ENDBRANCH  83  88
ENDBRANCH  72  75
ENDBRANCH  47  72
ENDBRANCH  45  47
ENDBRANCH   1  43
BRANCH   1  90
ATOM     90  C16 non d ame     -36.568   9.771  26.808  0.00  0.00    -0.035 C 
ATOM     91  H21 non d ame     -36.331  10.832  26.879  0.00  0.00     0.037 H 
ATOM     92  H22 non d ame     -36.910   9.351  25.862  0.00  0.00     0.037 H 
BRANCH  90  93
ATOM     93  C17 non d ame     -37.703   9.502  27.846  0.00  0.00    -0.059 C 
ATOM     94  H23 non d ame     -38.264  10.428  27.970  0.00  0.00     0.038 H 
BRANCH  93  95
ATOM     95  C18 non d ame     -38.701   8.403  27.358  0.00  0.00    -0.073 C 
ATOM     96  H24 non d ame     -38.979   7.766  28.197  0.00  0.00     0.028 H 
ATOM     97  H25 non d ame     -39.593   8.877  26.950  0.00  0.00     0.028 H 
ATOM     98  H26 non d ame     -38.225   7.798  26.586  0.00  0.00     0.028 H 
ENDBRANCH  93  95
BRANCH  93  99
ATOM     99  C19 non d ame     -37.119   9.138  29.214  0.00  0.00    -0.073 C 
ATOM    100  H27 non d ame     -36.650  10.018  29.655  0.00  0.00     0.028 H 
ATOM    101  H28 non d ame     -37.916   8.785  29.868  0.00  0.00     0.028 H 
ATOM    102  H29 non d ame     -36.374   8.352  29.093  0.00  0.00     0.028 H 
ENDBRANCH  93  99
ENDBRANCH  90  93
ENDBRANCH   1  90
TORSDOF 26
ENDMDL
MODEL 17
REMARK VINA RESULT:      -6.7      3.128      5.842
REMARK  26 active torsions:
REMARK  status: ('A' for Active; 'I' for Inactive)
REMARK    1  A    between atoms: C2_2  and  C3_3 
REMARK    2  A    between atoms: C4_6  and  C5_7 
REMARK       I    between atoms: C5_7  and  N2_9 
REMARK    3  A    between atoms: N2_9  and  C6_10 
REMARK    4  A    between atoms: C6_10  and  C7_11 
REMARK    5  A    between atoms: C6_10  and  C8_13 
REMARK       I    between atoms: C7_11  and  N3_14 
REMARK    6  A    between atoms: N3_14  and  C9_15 
REMARK    7  A    between atoms: C9_15  and  C10_16 
REMARK    8  A    between atoms: C9_15  and  C11_18 
REMARK       I    between atoms: C10_16  and  N4_21 
REMARK    9  A    between atoms: C11_18  and  C12_19 
REMARK   10  A    between atoms: C11_18  and  C13_20 
REMARK   11  A    between atoms: N4_21  and  C14_22 
REMARK   12  A    between atoms: C14_22  and  C15_23 
REMARK   13  A    between atoms: C14_22  and  C16_25 
REMARK       I    between atoms: C15_23  and  N6_40 
REMARK   14  A    between atoms: C16_25  and  C17_26 
REMARK   15  A    between atoms: C17_26  and  C18_27 
REMARK   16  A    between atoms: C17_26  and  C19_28 
REMARK   17  A    between atoms: C20_29  and  C21_30 
REMARK   18  A    between atoms: C20_29  and  C24_33 
REMARK   19  A    between atoms: C20_29  and  N6_40 
REMARK   20  A    between atoms: C21_30  and  C22_31 
REMARK   21  A    between atoms: C22_31  and  C23_32 
REMARK   22  A    between atoms: C23_32  and  O8_43 
REMARK   23  A    between atoms: C24_33  and  C25_34 
REMARK   24  A    between atoms: C28_38  and  O6_39 
REMARK   25  A    between atoms: C29_42  and  O8_43 
REMARK   26  A    between atoms: C29_42  and  C35_49 
ROOT
ATOM      1  C14 non d ame     -30.984  14.173  24.169  0.00  0.00     0.089 C 
ATOM      2  H20 non d ame     -29.945  13.842  24.203  0.00  0.00     0.087 H 
ENDROOT
BRANCH   1   3
ATOM      3  N4  non d ame     -31.824  12.999  24.358  0.00  0.00    -0.346 N 
ATOM      4  C10 non d ame     -31.318  11.631  23.975  0.00  0.00     0.241 C 
ATOM      5  O4  non d ame     -30.232  11.500  23.514  0.00  0.00    -0.271 OA
ATOM      6  H19 non d ame     -32.745  13.133  24.750  0.00  0.00     0.163 HD
BRANCH   4   7
ATOM      7  C9  non d ame     -32.199  10.427  24.183  0.00  0.00     0.092 C 
ATOM      8  H11 non d ame     -32.928  10.373  23.375  0.00  0.00     0.088 H 
BRANCH   7   9
ATOM      9  N3  non d ame     -31.386   9.209  24.116  0.00  0.00    -0.346 N 
ATOM     10  C7  non d ame     -31.387   8.407  22.917  0.00  0.00     0.240 C 
ATOM     11  O3  non d ame     -32.038   8.727  21.998  0.00  0.00    -0.271 OA
ATOM     12  H10 non d ame     -30.820   8.920  24.901  0.00  0.00     0.163 HD
BRANCH  10  13
ATOM     13  C6  non d ame     -30.522   7.110  22.852  0.00  0.00     0.086 C 
ATOM     14  H6  non d ame     -30.679   6.456  23.709  0.00  0.00     0.086 H 
BRANCH  13  15
ATOM     15  N2  non d ame     -30.902   6.349  21.673  0.00  0.00    -0.343 N 
ATOM     16  C5  non d ame     -31.910   5.293  21.790  0.00  0.00     0.273 C 
ATOM     17  O2  non d ame     -32.408   5.062  22.837  0.00  0.00    -0.266 OA
ATOM     18  H5  non d ame     -30.469   6.551  20.783  0.00  0.00     0.163 HD
BRANCH  16  19
ATOM     19  C4  non d ame     -32.322   4.482  20.552  0.00  0.00     0.154 A 
ATOM     20  C1  non d ame     -32.485   3.063  20.463  0.00  0.00    -0.017 A 
ATOM     21  C2  non d ame     -32.868   2.824  19.125  0.00  0.00     0.077 A 
ATOM     22  H1  non d ame     -32.347   2.320  21.250  0.00  0.00     0.091 H 
ATOM     23  O1  non d ame     -32.917   3.977  18.524  0.00  0.00    -0.218 OA
ATOM     24  N1  non d ame     -32.602   4.959  19.336  0.00  0.00    -0.123 NA
BRANCH  21  25
ATOM     25  C3  non d ame     -33.169   1.467  18.501  0.00  0.00    -0.029 C 
ATOM     26  H2  non d ame     -33.973   1.571  17.774  0.00  0.00     0.036 H 
ATOM     27  H3  non d ame     -32.276   1.091  18.003  0.00  0.00     0.036 H 
ATOM     28  H4  non d ame     -33.471   0.768  19.281  0.00  0.00     0.036 H 
ENDBRANCH  21  25
ENDBRANCH  16  19
ENDBRANCH  13  15
BRANCH  13  29
ATOM     29  C8  non d ame     -29.062   7.480  22.780  0.00  0.00    -0.049 C 
ATOM     30  H7  non d ame     -28.770   7.984  23.701  0.00  0.00     0.030 H 
ATOM     31  H8  non d ame     -28.465   6.577  22.655  0.00  0.00     0.030 H 
ATOM     32  H9  non d ame     -28.897   8.145  21.933  0.00  0.00     0.030 H 
ENDBRANCH  13  29
ENDBRANCH  10  13
ENDBRANCH   7   9
BRANCH   7  33
ATOM     33  C11 non d ame     -32.878  10.517  25.581  0.00  0.00    -0.033 C 
ATOM     34  H12 non d ame     -33.345  11.499  25.657  0.00  0.00     0.042 H 
BRANCH  33  35
ATOM     35  C12 non d ame     -34.006   9.449  25.734  0.00  0.00    -0.071 C 
ATOM     36  H13 non d ame     -33.814   8.841  26.618  0.00  0.00     0.028 H 
ATOM     37  H14 non d ame     -34.968   9.950  25.839  0.00  0.00     0.028 H 
ATOM     38  H15 non d ame     -34.023   8.810  24.851  0.00  0.00     0.028 H 
ENDBRANCH  33  35
BRANCH  33  39
ATOM     39  C13 non d ame     -31.822  10.393  26.725  0.00  0.00    -0.071 C 
ATOM     40  H16 non d ame     -30.910   9.945  26.331  0.00  0.00     0.028 H 
ATOM     41  H17 non d ame     -31.599  11.384  27.123  0.00  0.00     0.028 H 
ATOM     42  H18 non d ame     -32.221   9.765  27.522  0.00  0.00     0.028 H 
ENDBRANCH  33  39
ENDBRANCH   7  33
ENDBRANCH   4   7
ENDBRANCH   1   3
BRANCH   1  43
ATOM     43  C15 non d ame     -31.310  15.201  25.289  0.00  0.00     0.240 C 
ATOM     44  O5  non d ame     -30.949  16.328  25.180  0.00  0.00    -0.271 OA
ATOM     45  N6  non d ame     -32.081  14.783  26.495  0.00  0.00    -0.355 N 
ATOM     46  H46 non d ame     -32.397  13.829  26.596  0.00  0.00     0.162 HD
BRANCH  45  47
ATOM     47  C20 non d ame     -32.385  15.773  27.550  0.00  0.00     0.013 C 
ATOM     48  H30 non d ame     -31.707  16.617  27.423  0.00  0.00     0.072 H 
BRANCH  47  49
ATOM     49  C21 non d ame     -32.172  15.139  28.906  0.00  0.00    -0.038 C 
ATOM     50  H31 non d ame     -31.096  15.165  29.078  0.00  0.00     0.036 H 
ATOM     51  H32 non d ame     -32.845  15.663  29.585  0.00  0.00     0.036 H 
BRANCH  49  52
ATOM     52  C22 non d ame     -32.584  13.651  28.944  0.00  0.00     0.018 C 
ATOM     53  H33 non d ame     -33.382  13.585  29.682  0.00  0.00     0.048 H 
ATOM     54  H34 non d ame     -32.776  13.372  27.907  0.00  0.00     0.048 H 
BRANCH  52  55
ATOM     55  C23 non d ame     -31.460  12.702  29.441  0.00  0.00     0.259 C 
ATOM     56  O7  non d ame     -30.328  12.893  29.132  0.00  0.00    -0.265 OA
BRANCH  55  57
ATOM     57  O8  non d ame     -31.798  11.591  30.263  0.00  0.00    -0.317 OA
BRANCH  57  58
ATOM     58  C29 non d ame     -32.987  11.780  31.037  0.00  0.00     0.052 C 
ATOM     59  H47 non d ame     -32.659  11.823  32.075  0.00  0.00     0.082 H 
ATOM     60  H48 non d ame     -33.496  12.634  30.591  0.00  0.00     0.082 H 
BRANCH  58  61
ATOM     61  C35 non d ame     -33.881  10.525  30.855  0.00  0.00    -0.034 A 
ATOM     62  C30 non d ame     -34.844  10.212  31.809  0.00  0.00    -0.075 A 
ATOM     63  C31 non d ame     -35.648   9.085  31.646  0.00  0.00    -0.082 A 
ATOM     64  H49 non d ame     -34.970  10.850  32.684  0.00  0.00     0.084 H 
ATOM     65  C32 non d ame     -35.483   8.267  30.525  0.00  0.00    -0.083 A 
ATOM     66  H50 non d ame     -36.403   8.843  32.394  0.00  0.00     0.083 H 
ATOM     67  C33 non d ame     -34.518   8.581  29.578  0.00  0.00    -0.082 A 
ATOM     68  H51 non d ame     -36.108   7.383  30.389  0.00  0.00     0.083 H 
ATOM     69  C34 non d ame     -33.715   9.708  29.735  0.00  0.00    -0.075 A 
ATOM     70  H52 non d ame     -34.391   7.939  28.705  0.00  0.00     0.083 H 
ATOM     71  H53 non d ame     -32.960   9.949  28.986  0.00  0.00     0.084 H 
ENDBRANCH  58  61
ENDBRANCH  57  58
ENDBRANCH  55  57
ENDBRANCH  52  55
ENDBRANCH  49  52
ENDBRANCH  47  49
BRANCH  47  72
ATOM     72  C24 non d ame     -33.835  16.234  27.425  0.00  0.00    -0.039 C 
ATOM     73  H35 non d ame     -34.283  15.581  26.675  0.00  0.00     0.036 H 
ATOM     74  H36 non d ame     -34.226  16.242  28.442  0.00  0.00     0.036 H 
BRANCH  72  75
ATOM     75  C25 non d ame     -33.935  17.732  26.867  0.00  0.00    -0.001 C 
ATOM     76  C26 non d ame     -32.478  18.480  27.008  0.00  0.00    -0.035 C 
ATOM     77  C27 non d ame     -32.655  19.667  27.637  0.00  0.00     0.085 C 
ATOM     78  H38 non d ame     -31.836  17.923  27.690  0.00  0.00     0.036 H 
ATOM     79  H39 non d ame     -32.108  18.767  26.023  0.00  0.00     0.036 H 
ATOM     80  N5  non d ame     -34.044  19.650  28.229  0.00  0.00    -0.049 N 
ATOM     81  H40 non d ame     -31.924  19.680  28.445  0.00  0.00     0.075 H 
ATOM     82  H41 non d ame     -32.613  20.421  26.852  0.00  0.00     0.075 H 
ATOM     83  C28 non d ame     -34.812  18.417  27.523  0.00  0.00     0.193 C 
ATOM     84  H42 non d ame     -33.934  19.441  29.210  0.00  0.00     0.280 HD
ATOM     85  H43 non d ame     -34.486  20.511  27.942  0.00  0.00     0.280 HD
ATOM     86  H44 non d ame     -35.548  18.599  26.740  0.00  0.00     0.129 H 
ATOM     87  H37 non d ame     -34.425  17.779  25.895  0.00  0.00     0.046 H 
BRANCH  83  88
ATOM     88  O6  non d ame     -35.486  17.630  28.506  0.00  0.00    -0.369 OA
ATOM     89  H45 non d ame     -36.226  17.173  28.098  0.00  0.00     0.212 HD
ENDBRANCH  83  88
ENDBRANCH  72  75
ENDBRANCH  47  72
ENDBRANCH  45  47
ENDBRANCH   1  43
BRANCH   1  90
ATOM     90  C16 non d ame     -31.285  14.784  22.810  0.00  0.00    -0.035 C 
ATOM     91  H21 non d ame     -32.128  14.217  22.418  0.00  0.00     0.037 H 
ATOM     92  H22 non d ame     -31.385  15.855  22.991  0.00  0.00     0.037 H 
BRANCH  90  93
ATOM     93  C17 non d ame     -30.125  14.618  21.777  0.00  0.00    -0.059 C 
ATOM     94  H23 non d ame     -30.011  13.553  21.576  0.00  0.00     0.038 H 
BRANCH  93  95
ATOM     95  C18 non d ame     -30.437  15.327  20.421  0.00  0.00    -0.073 C 
ATOM     96  H24 non d ame     -31.422  15.022  20.069  0.00  0.00     0.028 H 
ATOM     97  H25 non d ame     -30.422  16.408  20.563  0.00  0.00     0.028 H 
ATOM     98  H26 non d ame     -29.686  15.048  19.683  0.00  0.00     0.028 H 
ENDBRANCH  93  95
BRANCH  93  99
ATOM     99  C19 non d ame     -28.799  15.115  22.359  0.00  0.00    -0.073 C 
ATOM    100  H27 non d ame     -28.016  15.028  21.606  0.00  0.00     0.028 H 
ATOM    101  H28 non d ame     -28.901  16.159  22.658  0.00  0.00     0.028 H 
ATOM    102  H29 non d ame     -28.536  14.514  23.229  0.00  0.00     0.028 H 
ENDBRANCH  93  99
ENDBRANCH  90  93
ENDBRANCH   1  90
TORSDOF 26
ENDMDL
MODEL 18
REMARK VINA RESULT:      -6.6      3.200      9.003
REMARK  26 active torsions:
REMARK  status: ('A' for Active; 'I' for Inactive)
REMARK    1  A    between atoms: C2_2  and  C3_3 
REMARK    2  A    between atoms: C4_6  and  C5_7 
REMARK       I    between atoms: C5_7  and  N2_9 
REMARK    3  A    between atoms: N2_9  and  C6_10 
REMARK    4  A    between atoms: C6_10  and  C7_11 
REMARK    5  A    between atoms: C6_10  and  C8_13 
REMARK       I    between atoms: C7_11  and  N3_14 
REMARK    6  A    between atoms: N3_14  and  C9_15 
REMARK    7  A    between atoms: C9_15  and  C10_16 
REMARK    8  A    between atoms: C9_15  and  C11_18 
REMARK       I    between atoms: C10_16  and  N4_21 
REMARK    9  A    between atoms: C11_18  and  C12_19 
REMARK   10  A    between atoms: C11_18  and  C13_20 
REMARK   11  A    between atoms: N4_21  and  C14_22 
REMARK   12  A    between atoms: C14_22  and  C15_23 
REMARK   13  A    between atoms: C14_22  and  C16_25 
REMARK       I    between atoms: C15_23  and  N6_40 
REMARK   14  A    between atoms: C16_25  and  C17_26 
REMARK   15  A    between atoms: C17_26  and  C18_27 
REMARK   16  A    between atoms: C17_26  and  C19_28 
REMARK   17  A    between atoms: C20_29  and  C21_30 
REMARK   18  A    between atoms: C20_29  and  C24_33 
REMARK   19  A    between atoms: C20_29  and  N6_40 
REMARK   20  A    between atoms: C21_30  and  C22_31 
REMARK   21  A    between atoms: C22_31  and  C23_32 
REMARK   22  A    between atoms: C23_32  and  O8_43 
REMARK   23  A    between atoms: C24_33  and  C25_34 
REMARK   24  A    between atoms: C28_38  and  O6_39 
REMARK   25  A    between atoms: C29_42  and  O8_43 
REMARK   26  A    between atoms: C29_42  and  C35_49 
ROOT
ATOM      1  C14 non d ame     -33.692   6.962  27.839  0.00  0.00     0.089 C 
ATOM      2  H20 non d ame     -33.145   6.611  28.715  0.00  0.00     0.087 H 
ENDROOT
BRANCH   1   3
ATOM      3  N4  non d ame     -34.245   8.268  28.163  0.00  0.00    -0.346 N 
ATOM      4  C10 non d ame     -34.758   8.556  29.552  0.00  0.00     0.241 C 
ATOM      5  O4  non d ame     -34.718   7.718  30.392  0.00  0.00    -0.271 OA
ATOM      6  H19 non d ame     -34.273   8.967  27.434  0.00  0.00     0.163 HD
BRANCH   4   7
ATOM      7  C9  non d ame     -35.322   9.915  29.871  0.00  0.00     0.092 C 
ATOM      8  H11 non d ame     -35.454  10.005  30.949  0.00  0.00     0.088 H 
BRANCH   7   9
ATOM      9  N3  non d ame     -34.367  10.949  29.463  0.00  0.00    -0.346 N 
ATOM     10  C7  non d ame     -33.249  11.274  30.315  0.00  0.00     0.240 C 
ATOM     11  O3  non d ame     -33.106  10.715  31.333  0.00  0.00    -0.271 OA
ATOM     12  H10 non d ame     -34.479  11.442  28.588  0.00  0.00     0.163 HD
BRANCH  10  13
ATOM     13  C6  non d ame     -32.237  12.378  29.877  0.00  0.00     0.086 C 
ATOM     14  H6  non d ame     -31.730  12.138  28.943  0.00  0.00     0.086 H 
BRANCH  13  15
ATOM     15  N2  non d ame     -32.960  13.618  29.652  0.00  0.00    -0.343 N 
ATOM     16  C5  non d ame     -32.398  14.628  28.751  0.00  0.00     0.273 C 
ATOM     17  O2  non d ame     -31.363  14.433  28.216  0.00  0.00    -0.266 OA
ATOM     18  H5  non d ame     -33.844  13.777  30.116  0.00  0.00     0.163 HD
BRANCH  16  19
ATOM     19  C4  non d ame     -33.153  15.943  28.503  0.00  0.00     0.154 A 
ATOM     20  C1  non d ame     -34.486  16.094  28.006  0.00  0.00    -0.017 A 
ATOM     21  C2  non d ame     -34.702  17.490  27.962  0.00  0.00     0.077 A 
ATOM     22  H1  non d ame     -35.189  15.311  27.720  0.00  0.00     0.091 H 
ATOM     23  O1  non d ame     -33.614  18.063  28.387  0.00  0.00    -0.218 OA
ATOM     24  N1  non d ame     -32.696  17.181  28.709  0.00  0.00    -0.123 NA
BRANCH  21  25
ATOM     25  C3  non d ame     -35.973  18.192  27.503  0.00  0.00    -0.029 C 
ATOM     26  H2  non d ame     -36.838  17.582  27.761  0.00  0.00     0.036 H 
ATOM     27  H3  non d ame     -36.051  19.160  27.995  0.00  0.00     0.036 H 
ATOM     28  H4  non d ame     -35.939  18.335  26.423  0.00  0.00     0.036 H 
ENDBRANCH  21  25
ENDBRANCH  16  19
ENDBRANCH  13  15
BRANCH  13  29
ATOM     29  C8  non d ame     -31.203  12.572  30.957  0.00  0.00    -0.049 C 
ATOM     30  H7  non d ame     -31.209  11.711  31.625  0.00  0.00     0.030 H 
ATOM     31  H8  non d ame     -30.218  12.671  30.502  0.00  0.00     0.030 H 
ATOM     32  H9  non d ame     -31.434  13.474  31.524  0.00  0.00     0.030 H 
ENDBRANCH  13  29
ENDBRANCH  10  13
ENDBRANCH   7   9
BRANCH   7  33
ATOM     33  C11 non d ame     -36.660  10.116  29.099  0.00  0.00    -0.033 C 
ATOM     34  H12 non d ame     -36.942   9.153  28.674  0.00  0.00     0.042 H 
BRANCH  33  35
ATOM     35  C12 non d ame     -37.808  10.559  30.059  0.00  0.00    -0.071 C 
ATOM     36  H13 non d ame     -37.996   9.772  30.789  0.00  0.00     0.028 H 
ATOM     37  H14 non d ame     -37.517  11.473  30.576  0.00  0.00     0.028 H 
ATOM     38  H15 non d ame     -38.714  10.742  29.481  0.00  0.00     0.028 H 
ENDBRANCH  33  35
BRANCH  33  39
ATOM     39  C13 non d ame     -36.481  11.129  27.924  0.00  0.00    -0.071 C 
ATOM     40  H16 non d ame     -35.509  10.973  27.454  0.00  0.00     0.028 H 
ATOM     41  H17 non d ame     -37.270  10.974  27.187  0.00  0.00     0.028 H 
ATOM     42  H18 non d ame     -36.540  12.147  28.309  0.00  0.00     0.028 H 
ENDBRANCH  33  39
ENDBRANCH   7  33
ENDBRANCH   4   7
ENDBRANCH   1   3
BRANCH   1  43
ATOM     43  C15 non d ame     -32.773   7.108  26.593  0.00  0.00     0.240 C 
ATOM     44  O5  non d ame     -31.828   6.399  26.469  0.00  0.00    -0.271 OA
ATOM     45  N6  non d ame     -33.077   8.127  25.548  0.00  0.00    -0.355 N 
ATOM     46  H46 non d ame     -33.880   8.732  25.640  0.00  0.00     0.162 HD
BRANCH  45  47
ATOM     47  C20 non d ame     -32.195   8.252  24.368  0.00  0.00     0.013 C 
ATOM     48  H30 non d ame     -31.184   7.987  24.676  0.00  0.00     0.072 H 
BRANCH  47  49
ATOM     49  C21 non d ame     -32.225   9.680  23.871  0.00  0.00    -0.038 C 
ATOM     50  H31 non d ame     -31.752   9.660  22.889  0.00  0.00     0.036 H 
ATOM     51  H32 non d ame     -33.261  10.004  23.970  0.00  0.00     0.036 H 
BRANCH  49  52
ATOM     52  C22 non d ame     -31.383  10.636  24.743  0.00  0.00     0.018 C 
ATOM     53  H33 non d ame     -30.891  10.006  25.482  0.00  0.00     0.048 H 
ATOM     54  H34 non d ame     -30.787  11.225  24.045  0.00  0.00     0.048 H 
BRANCH  52  55
ATOM     55  C23 non d ame     -32.231  11.659  25.549  0.00  0.00     0.259 C 
ATOM     56  O7  non d ame     -32.826  11.317  26.519  0.00  0.00    -0.265 OA
BRANCH  55  57
ATOM     57  O8  non d ame     -32.299  13.010  25.108  0.00  0.00    -0.317 OA
BRANCH  57  58
ATOM     58  C29 non d ame     -31.041  13.691  25.122  0.00  0.00     0.052 C 
ATOM     59  H47 non d ame     -31.170  14.533  25.803  0.00  0.00     0.082 H 
ATOM     60  H48 non d ame     -30.294  12.927  25.336  0.00  0.00     0.082 H 
BRANCH  58  61
ATOM     61  C35 non d ame     -30.781  14.246  23.697  0.00  0.00    -0.034 A 
ATOM     62  C30 non d ame     -31.331  15.464  23.312  0.00  0.00    -0.075 A 
ATOM     63  C31 non d ame     -31.098  15.963  22.032  0.00  0.00    -0.082 A 
ATOM     64  H49 non d ame     -31.947  16.028  24.014  0.00  0.00     0.084 H 
ATOM     65  C32 non d ame     -30.312  15.237  21.133  0.00  0.00    -0.083 A 
ATOM     66  H50 non d ame     -31.530  16.919  21.734  0.00  0.00     0.083 H 
ATOM     67  C33 non d ame     -29.767  14.021  21.520  0.00  0.00    -0.082 A 
ATOM     68  H51 non d ame     -30.124  15.620  20.130  0.00  0.00     0.083 H 
ATOM     69  C34 non d ame     -29.996  13.519  22.799  0.00  0.00    -0.075 A 
ATOM     70  H52 non d ame     -29.156  13.456  20.815  0.00  0.00     0.083 H 
ATOM     71  H53 non d ame     -29.564  12.563  23.096  0.00  0.00     0.084 H 
ENDBRANCH  58  61
ENDBRANCH  57  58
ENDBRANCH  55  57
ENDBRANCH  52  55
ENDBRANCH  49  52
ENDBRANCH  47  49
BRANCH  47  72
ATOM     72  C24 non d ame     -32.676   7.317  23.261  0.00  0.00    -0.039 C 
ATOM     73  H35 non d ame     -31.890   6.569  23.152  0.00  0.00     0.036 H 
ATOM     74  H36 non d ame     -33.681   7.012  23.555  0.00  0.00     0.036 H 
BRANCH  72  75
ATOM     75  C25 non d ame     -32.805   8.077  21.857  0.00  0.00    -0.001 C 
ATOM     76  C26 non d ame     -34.386   8.180  21.419  0.00  0.00    -0.035 C 
ATOM     77  C27 non d ame     -34.520   7.719  20.152  0.00  0.00     0.085 C 
ATOM     78  H38 non d ame     -34.984   7.485  22.008  0.00  0.00     0.036 H 
ATOM     79  H39 non d ame     -34.685   9.226  21.342  0.00  0.00     0.036 H 
ATOM     80  N5  non d ame     -33.234   7.008  19.804  0.00  0.00    -0.049 N 
ATOM     81  H40 non d ame     -35.330   6.991  20.192  0.00  0.00     0.075 H 
ATOM     82  H41 non d ame     -34.615   8.607  19.528  0.00  0.00     0.075 H 
ATOM     83  C28 non d ame     -32.163   7.452  20.927  0.00  0.00     0.193 C 
ATOM     84  H42 non d ame     -33.417   6.020  19.907  0.00  0.00     0.280 HD
ATOM     85  H43 non d ame     -32.937   7.376  18.912  0.00  0.00     0.280 HD
ATOM     86  H44 non d ame     -31.389   8.183  20.695  0.00  0.00     0.129 H 
ATOM     87  H37 non d ame     -32.222   8.997  21.831  0.00  0.00     0.046 H 
BRANCH  83  88
ATOM     88  O6  non d ame     -31.469   6.307  21.426  0.00  0.00    -0.369 OA
ATOM     89  H45 non d ame     -30.894   5.957  20.741  0.00  0.00     0.212 HD
ENDBRANCH  83  88
ENDBRANCH  72  75
ENDBRANCH  47  72
ENDBRANCH  45  47
ENDBRANCH   1  43
BRANCH   1  90
ATOM     90  C16 non d ame     -34.831   6.005  27.526  0.00  0.00    -0.035 C 
ATOM     91  H21 non d ame     -35.696   6.402  28.056  0.00  0.00     0.037 H 
ATOM     92  H22 non d ame     -34.848   5.923  26.439  0.00  0.00     0.037 H 
BRANCH  90  93
ATOM     93  C17 non d ame     -34.604   4.560  28.074  0.00  0.00    -0.059 C 
ATOM     94  H23 non d ame     -35.549   4.213  28.492  0.00  0.00     0.038 H 
BRANCH  93  95
ATOM     95  C18 non d ame     -34.187   3.561  26.947  0.00  0.00    -0.073 C 
ATOM     96  H24 non d ame     -33.643   2.725  27.386  0.00  0.00     0.028 H 
ATOM     97  H25 non d ame     -35.078   3.189  26.442  0.00  0.00     0.028 H 
ATOM     98  H26 non d ame     -33.548   4.072  26.227  0.00  0.00     0.028 H 
ENDBRANCH  93  95
BRANCH  93  99
ATOM     99  C19 non d ame     -33.577   4.561  29.209  0.00  0.00    -0.073 C 
ATOM    100  H27 non d ame     -33.297   3.534  29.447  0.00  0.00     0.028 H 
ATOM    101  H28 non d ame     -32.692   5.116  28.898  0.00  0.00     0.028 H 
ATOM    102  H29 non d ame     -34.010   5.033  30.090  0.00  0.00     0.028 H 
ENDBRANCH  93  99
ENDBRANCH  90  93
ENDBRANCH   1  90
TORSDOF 26
ENDMDL
MODEL 19
REMARK VINA RESULT:      -6.5      2.688      7.554
REMARK  26 active torsions:
REMARK  status: ('A' for Active; 'I' for Inactive)
REMARK    1  A    between atoms: C2_2  and  C3_3 
REMARK    2  A    between atoms: C4_6  and  C5_7 
REMARK       I    between atoms: C5_7  and  N2_9 
REMARK    3  A    between atoms: N2_9  and  C6_10 
REMARK    4  A    between atoms: C6_10  and  C7_11 
REMARK    5  A    between atoms: C6_10  and  C8_13 
REMARK       I    between atoms: C7_11  and  N3_14 
REMARK    6  A    between atoms: N3_14  and  C9_15 
REMARK    7  A    between atoms: C9_15  and  C10_16 
REMARK    8  A    between atoms: C9_15  and  C11_18 
REMARK       I    between atoms: C10_16  and  N4_21 
REMARK    9  A    between atoms: C11_18  and  C12_19 
REMARK   10  A    between atoms: C11_18  and  C13_20 
REMARK   11  A    between atoms: N4_21  and  C14_22 
REMARK   12  A    between atoms: C14_22  and  C15_23 
REMARK   13  A    between atoms: C14_22  and  C16_25 
REMARK       I    between atoms: C15_23  and  N6_40 
REMARK   14  A    between atoms: C16_25  and  C17_26 
REMARK   15  A    between atoms: C17_26  and  C18_27 
REMARK   16  A    between atoms: C17_26  and  C19_28 
REMARK   17  A    between atoms: C20_29  and  C21_30 
REMARK   18  A    between atoms: C20_29  and  C24_33 
REMARK   19  A    between atoms: C20_29  and  N6_40 
REMARK   20  A    between atoms: C21_30  and  C22_31 
REMARK   21  A    between atoms: C22_31  and  C23_32 
REMARK   22  A    between atoms: C23_32  and  O8_43 
REMARK   23  A    between atoms: C24_33  and  C25_34 
REMARK   24  A    between atoms: C28_38  and  O6_39 
REMARK   25  A    between atoms: C29_42  and  O8_43 
REMARK   26  A    between atoms: C29_42  and  C35_49 
ROOT
ATOM      1  C14 non d ame     -36.508  16.087  26.326  0.00  0.00     0.089 C 
ATOM      2  H20 non d ame     -37.124  16.618  27.053  0.00  0.00     0.087 H 
ENDROOT
BRANCH   1   3
ATOM      3  N4  non d ame     -35.121  16.226  26.743  0.00  0.00    -0.346 N 
ATOM      4  C10 non d ame     -34.747  17.192  27.839  0.00  0.00     0.241 C 
ATOM      5  O4  non d ame     -35.581  17.849  28.369  0.00  0.00    -0.271 OA
ATOM      6  H19 non d ame     -34.426  15.660  26.277  0.00  0.00     0.163 HD
BRANCH   4   7
ATOM      7  C9  non d ame     -33.307  17.319  28.261  0.00  0.00     0.092 C 
ATOM      8  H11 non d ame     -33.259  17.822  29.227  0.00  0.00     0.088 H 
BRANCH   7   9
ATOM      9  N3  non d ame     -32.730  15.983  28.439  0.00  0.00    -0.346 N 
ATOM     10  C7  non d ame     -31.802  15.737  29.515  0.00  0.00     0.240 C 
ATOM     11  O3  non d ame     -31.506  16.603  30.245  0.00  0.00    -0.271 OA
ATOM     12  H10 non d ame     -32.974  15.226  27.816  0.00  0.00     0.163 HD
BRANCH  10  13
ATOM     13  C6  non d ame     -31.189  14.314  29.698  0.00  0.00     0.086 C 
ATOM     14  H6  non d ame     -30.499  14.257  30.540  0.00  0.00     0.086 H 
BRANCH  13  15
ATOM     15  N2  non d ame     -32.260  13.371  29.973  0.00  0.00    -0.343 N 
ATOM     16  C5  non d ame     -31.958  12.120  30.671  0.00  0.00     0.273 C 
ATOM     17  O2  non d ame     -30.850  11.880  31.006  0.00  0.00    -0.266 OA
ATOM     18  H5  non d ame     -33.204  13.583  29.681  0.00  0.00     0.163 HD
BRANCH  16  19
ATOM     19  C4  non d ame     -33.081  11.114  30.970  0.00  0.00     0.154 A 
ATOM     20  C1  non d ame     -33.481  10.000  30.165  0.00  0.00    -0.017 A 
ATOM     21  C2  non d ame     -34.546   9.402  30.876  0.00  0.00     0.077 A 
ATOM     22  H1  non d ame     -33.063   9.676  29.212  0.00  0.00     0.091 H 
ATOM     23  O1  non d ame     -34.727  10.097  31.960  0.00  0.00    -0.218 OA
ATOM     24  N1  non d ame     -33.885  11.102  32.037  0.00  0.00    -0.123 NA
BRANCH  21  25
ATOM     25  C3  non d ame     -35.333   8.170  30.450  0.00  0.00    -0.029 C 
ATOM     26  H2  non d ame     -36.311   8.180  30.931  0.00  0.00     0.036 H 
ATOM     27  H3  non d ame     -35.461   8.176  29.368  0.00  0.00     0.036 H 
ATOM     28  H4  non d ame     -34.792   7.272  30.747  0.00  0.00     0.036 H 
ENDBRANCH  21  25
ENDBRANCH  16  19
ENDBRANCH  13  15
BRANCH  13  29
ATOM     29  C8  non d ame     -30.457  13.913  28.442  0.00  0.00    -0.049 C 
ATOM     30  H7  non d ame     -30.362  14.778  27.786  0.00  0.00     0.030 H 
ATOM     31  H8  non d ame     -29.466  13.543  28.701  0.00  0.00     0.030 H 
ATOM     32  H9  non d ame     -31.016  13.129  27.930  0.00  0.00     0.030 H 
ENDBRANCH  13  29
ENDBRANCH  10  13
ENDBRANCH   7   9
BRANCH   7  33
ATOM     33  C11 non d ame     -32.510  18.082  27.163  0.00  0.00    -0.033 C 
ATOM     34  H12 non d ame     -31.464  18.100  27.468  0.00  0.00     0.042 H 
BRANCH  33  35
ATOM     35  C12 non d ame     -32.586  17.345  25.789  0.00  0.00    -0.071 C 
ATOM     36  H13 non d ame     -32.322  16.296  25.925  0.00  0.00     0.028 H 
ATOM     37  H14 non d ame     -33.599  17.417  25.394  0.00  0.00     0.028 H 
ATOM     38  H15 non d ame     -31.889  17.807  25.090  0.00  0.00     0.028 H 
ENDBRANCH  33  35
BRANCH  33  39
ATOM     39  C13 non d ame     -33.002  19.560  27.040  0.00  0.00    -0.071 C 
ATOM     40  H16 non d ame     -33.993  19.651  27.487  0.00  0.00     0.028 H 
ATOM     41  H17 non d ame     -32.306  20.219  27.561  0.00  0.00     0.028 H 
ATOM     42  H18 non d ame     -33.050  19.841  25.988  0.00  0.00     0.028 H 
ENDBRANCH  33  39
ENDBRANCH   7  33
ENDBRANCH   4   7
ENDBRANCH   1   3
BRANCH   1  43
ATOM     43  C15 non d ame     -36.855  14.572  26.257  0.00  0.00     0.240 C 
ATOM     44  O5  non d ame     -37.617  14.104  27.040  0.00  0.00    -0.271 OA
ATOM     45  N6  non d ame     -36.245  13.707  25.208  0.00  0.00    -0.355 N 
ATOM     46  H46 non d ame     -35.600  14.094  24.534  0.00  0.00     0.162 HD
BRANCH  45  47
ATOM     47  C20 non d ame     -36.586  12.269  25.155  0.00  0.00     0.013 C 
ATOM     48  H30 non d ame     -37.297  12.063  25.955  0.00  0.00     0.072 H 
BRANCH  47  49
ATOM     49  C21 non d ame     -35.331  11.450  25.354  0.00  0.00    -0.038 C 
ATOM     50  H31 non d ame     -35.595  10.431  25.069  0.00  0.00     0.036 H 
ATOM     51  H32 non d ame     -34.545  11.980  24.817  0.00  0.00     0.036 H 
BRANCH  49  52
ATOM     52  C22 non d ame     -34.885  11.388  26.831  0.00  0.00     0.018 C 
ATOM     53  H33 non d ame     -35.717  11.789  27.408  0.00  0.00     0.048 H 
ATOM     54  H34 non d ame     -34.551  10.363  26.996  0.00  0.00     0.048 H 
BRANCH  52  55
ATOM     55  C23 non d ame     -33.664  12.293  27.155  0.00  0.00     0.259 C 
ATOM     56  O7  non d ame     -33.814  13.450  27.379  0.00  0.00    -0.265 OA
BRANCH  55  57
ATOM     57  O8  non d ame     -32.360  11.725  27.169  0.00  0.00    -0.317 OA
BRANCH  57  58
ATOM     58  C29 non d ame     -32.331  10.325  26.877  0.00  0.00     0.052 C 
ATOM     59  H47 non d ame     -31.565   9.904  27.528  0.00  0.00     0.082 H 
ATOM     60  H48 non d ame     -33.363   9.985  26.959  0.00  0.00     0.082 H 
BRANCH  58  61
ATOM     61  C35 non d ame     -31.873  10.153  25.404  0.00  0.00    -0.034 A 
ATOM     62  C30 non d ame     -32.302   9.054  24.666  0.00  0.00    -0.075 A 
ATOM     63  C31 non d ame     -31.891   8.899  23.343  0.00  0.00    -0.082 A 
ATOM     64  H49 non d ame     -32.960   8.315  25.123  0.00  0.00     0.084 H 
ATOM     65  C32 non d ame     -31.045   9.846  22.759  0.00  0.00    -0.083 A 
ATOM     66  H50 non d ame     -32.230   8.038  22.766  0.00  0.00     0.083 H 
ATOM     67  C33 non d ame     -30.618  10.939  23.501  0.00  0.00    -0.082 A 
ATOM     68  H51 non d ame     -30.720   9.733  21.725  0.00  0.00     0.083 H 
ATOM     69  C34 non d ame     -31.028  11.099  24.823  0.00  0.00    -0.075 A 
ATOM     70  H52 non d ame     -29.956  11.675  23.043  0.00  0.00     0.083 H 
ATOM     71  H53 non d ame     -30.688  11.961  25.398  0.00  0.00     0.084 H 
ENDBRANCH  58  61
ENDBRANCH  57  58
ENDBRANCH  55  57
ENDBRANCH  52  55
ENDBRANCH  49  52
ENDBRANCH  47  49
BRANCH  47  72
ATOM     72  C24 non d ame     -37.203  11.934  23.798  0.00  0.00    -0.039 C 
ATOM     73  H35 non d ame     -36.472  12.261  23.058  0.00  0.00     0.036 H 
ATOM     74  H36 non d ame     -37.484  10.883  23.859  0.00  0.00     0.036 H 
BRANCH  72  75
ATOM     75  C25 non d ame     -38.545  12.768  23.536  0.00  0.00    -0.001 C 
ATOM     76  C26 non d ame     -39.758  11.752  23.087  0.00  0.00    -0.035 C 
ATOM     77  C27 non d ame     -40.321  12.220  21.948  0.00  0.00     0.085 C 
ATOM     78  H38 non d ame     -39.346  10.787  22.791  0.00  0.00     0.036 H 
ATOM     79  H39 non d ame     -40.571  11.798  23.811  0.00  0.00     0.036 H 
ATOM     80  N5  non d ame     -39.395  13.279  21.400  0.00  0.00    -0.049 N 
ATOM     81  H40 non d ame     -40.337  11.373  21.262  0.00  0.00     0.075 H 
ATOM     82  H41 non d ame     -41.254  12.689  22.256  0.00  0.00     0.075 H 
ATOM     83  C28 non d ame     -38.377  13.642  22.600  0.00  0.00     0.193 C 
ATOM     84  H42 non d ame     -38.870  12.843  20.655  0.00  0.00     0.280 HD
ATOM     85  H43 non d ame     -39.968  14.088  21.208  0.00  0.00     0.280 HD
ATOM     86  H44 non d ame     -38.498  14.566  23.168  0.00  0.00     0.129 H 
ATOM     87  H37 non d ame     -38.760  13.470  24.342  0.00  0.00     0.046 H 
BRANCH  83  88
ATOM     88  O6  non d ame     -37.033  13.663  22.117  0.00  0.00    -0.369 OA
ATOM     89  H45 non d ame     -36.447  13.297  22.785  0.00  0.00     0.212 HD
ENDBRANCH  83  88
ENDBRANCH  72  75
ENDBRANCH  47  72
ENDBRANCH  45  47
ENDBRANCH   1  43
BRANCH   1  90
ATOM     90  C16 non d ame     -36.679  16.714  24.952  0.00  0.00    -0.035 C 
ATOM     91  H21 non d ame     -35.670  16.819  24.555  0.00  0.00     0.037 H 
ATOM     92  H22 non d ame     -37.405  16.085  24.436  0.00  0.00     0.037 H 
BRANCH  90  93
ATOM     93  C17 non d ame     -37.288  18.152  24.990  0.00  0.00    -0.059 C 
ATOM     94  H23 non d ame     -37.909  18.224  25.883  0.00  0.00     0.038 H 
BRANCH  93  95
ATOM     95  C18 non d ame     -36.187  19.256  25.085  0.00  0.00    -0.073 C 
ATOM     96  H24 non d ame     -36.280  19.781  26.035  0.00  0.00     0.028 H 
ATOM     97  H25 non d ame     -35.203  18.794  25.020  0.00  0.00     0.028 H 
ATOM     98  H26 non d ame     -36.312  19.964  24.265  0.00  0.00     0.028 H 
ENDBRANCH  93  95
BRANCH  93  99
ATOM     99  C19 non d ame     -38.199  18.392  23.783  0.00  0.00    -0.073 C 
ATOM    100  H27 non d ame     -37.592  18.466  22.880  0.00  0.00     0.028 H 
ATOM    101  H28 non d ame     -38.898  17.561  23.683  0.00  0.00     0.028 H 
ATOM    102  H29 non d ame     -38.754  19.318  23.925  0.00  0.00     0.028 H 
ENDBRANCH  93  99
ENDBRANCH  90  93
ENDBRANCH   1  90
TORSDOF 26
ENDMDL
MODEL 20
REMARK VINA RESULT:      -6.4      4.426     10.456
REMARK  26 active torsions:
REMARK  status: ('A' for Active; 'I' for Inactive)
REMARK    1  A    between atoms: C2_2  and  C3_3 
REMARK    2  A    between atoms: C4_6  and  C5_7 
REMARK       I    between atoms: C5_7  and  N2_9 
REMARK    3  A    between atoms: N2_9  and  C6_10 
REMARK    4  A    between atoms: C6_10  and  C7_11 
REMARK    5  A    between atoms: C6_10  and  C8_13 
REMARK       I    between atoms: C7_11  and  N3_14 
REMARK    6  A    between atoms: N3_14  and  C9_15 
REMARK    7  A    between atoms: C9_15  and  C10_16 
REMARK    8  A    between atoms: C9_15  and  C11_18 
REMARK       I    between atoms: C10_16  and  N4_21 
REMARK    9  A    between atoms: C11_18  and  C12_19 
REMARK   10  A    between atoms: C11_18  and  C13_20 
REMARK   11  A    between atoms: N4_21  and  C14_22 
REMARK   12  A    between atoms: C14_22  and  C15_23 
REMARK   13  A    between atoms: C14_22  and  C16_25 
REMARK       I    between atoms: C15_23  and  N6_40 
REMARK   14  A    between atoms: C16_25  and  C17_26 
REMARK   15  A    between atoms: C17_26  and  C18_27 
REMARK   16  A    between atoms: C17_26  and  C19_28 
REMARK   17  A    between atoms: C20_29  and  C21_30 
REMARK   18  A    between atoms: C20_29  and  C24_33 
REMARK   19  A    between atoms: C20_29  and  N6_40 
REMARK   20  A    between atoms: C21_30  and  C22_31 
REMARK   21  A    between atoms: C22_31  and  C23_32 
REMARK   22  A    between atoms: C23_32  and  O8_43 
REMARK   23  A    between atoms: C24_33  and  C25_34 
REMARK   24  A    between atoms: C28_38  and  O6_39 
REMARK   25  A    between atoms: C29_42  and  O8_43 
REMARK   26  A    between atoms: C29_42  and  C35_49 
ROOT
ATOM      1  C14 non d ame     -35.553   6.418  30.858  0.00  0.00     0.089 C 
ATOM      2  H20 non d ame     -35.352   6.634  31.908  0.00  0.00     0.087 H 
ENDROOT
BRANCH   1   3
ATOM      3  N4  non d ame     -35.573   7.687  30.146  0.00  0.00    -0.346 N 
ATOM      4  C10 non d ame     -34.917   8.906  30.743  0.00  0.00     0.241 C 
ATOM      5  O4  non d ame     -34.381   8.842  31.800  0.00  0.00    -0.271 OA
ATOM      6  H19 non d ame     -36.037   7.722  29.249  0.00  0.00     0.163 HD
BRANCH   4   7
ATOM      7  C9  non d ame     -34.943  10.210  29.990  0.00  0.00     0.092 C 
ATOM      8  H11 non d ame     -35.236  11.011  30.669  0.00  0.00     0.088 H 
BRANCH   7   9
ATOM      9  N3  non d ame     -33.594  10.523  29.508  0.00  0.00    -0.346 N 
ATOM     10  C7  non d ame     -32.815  11.546  30.162  0.00  0.00     0.240 C 
ATOM     11  O3  non d ame     -33.258  12.127  31.076  0.00  0.00    -0.271 OA
ATOM     12  H10 non d ame     -33.199  10.031  28.720  0.00  0.00     0.163 HD
BRANCH  10  13
ATOM     13  C6  non d ame     -31.381  11.877  29.643  0.00  0.00     0.086 C 
ATOM     14  H6  non d ame     -30.944  11.063  29.064  0.00  0.00     0.086 H 
BRANCH  13  15
ATOM     15  N2  non d ame     -31.454  13.026  28.756  0.00  0.00    -0.343 N 
ATOM     16  C5  non d ame     -31.244  12.842  27.318  0.00  0.00     0.273 C 
ATOM     17  O2  non d ame     -31.013  11.767  26.886  0.00  0.00    -0.266 OA
ATOM     18  H5  non d ame     -31.649  13.942  29.135  0.00  0.00     0.163 HD
BRANCH  16  19
ATOM     19  C4  non d ame     -31.320  14.048  26.369  0.00  0.00     0.154 A 
ATOM     20  C1  non d ame     -31.017  14.068  24.970  0.00  0.00    -0.017 A 
ATOM     21  C2  non d ame     -31.245  15.403  24.568  0.00  0.00     0.077 A 
ATOM     22  H1  non d ame     -30.683  13.241  24.344  0.00  0.00     0.091 H 
ATOM     23  O1  non d ame     -31.634  16.063  25.619  0.00  0.00    -0.218 OA
ATOM     24  N1  non d ame     -31.685  15.294  26.682  0.00  0.00    -0.123 NA
BRANCH  21  25
ATOM     25  C3  non d ame     -31.068  15.964  23.163  0.00  0.00    -0.029 C 
ATOM     26  H2  non d ame     -32.041  16.049  22.681  0.00  0.00     0.036 H 
ATOM     27  H3  non d ame     -30.604  16.949  23.222  0.00  0.00     0.036 H 
ATOM     28  H4  non d ame     -30.431  15.297  22.583  0.00  0.00     0.036 H 
ENDBRANCH  21  25
ENDBRANCH  16  19
ENDBRANCH  13  15
BRANCH  13  29
ATOM     29  C8  non d ame     -30.478  12.182  30.811  0.00  0.00    -0.049 C 
ATOM     30  H7  non d ame     -30.649  11.453  31.603  0.00  0.00     0.030 H 
ATOM     31  H8  non d ame     -29.439  12.132  30.489  0.00  0.00     0.030 H 
ATOM     32  H9  non d ame     -30.695  13.183  31.186  0.00  0.00     0.030 H 
ENDBRANCH  13  29
ENDBRANCH  10  13
ENDBRANCH   7   9
BRANCH   7  33
ATOM     33  C11 non d ame     -35.909  10.089  28.775  0.00  0.00    -0.033 C 
ATOM     34  H12 non d ame     -35.920   9.043  28.468  0.00  0.00     0.042 H 
BRANCH  33  35
ATOM     35  C12 non d ame     -37.368  10.478  29.169  0.00  0.00    -0.071 C 
ATOM     36  H13 non d ame     -38.059  10.114  28.408  0.00  0.00     0.028 H 
ATOM     37  H14 non d ame     -37.617  10.029  30.130  0.00  0.00     0.028 H 
ATOM     38  H15 non d ame     -37.448  11.562  29.242  0.00  0.00     0.028 H 
ENDBRANCH  33  35
BRANCH  33  39
ATOM     39  C13 non d ame     -35.401  10.942  27.569  0.00  0.00    -0.071 C 
ATOM     40  H16 non d ame     -35.759  11.966  27.672  0.00  0.00     0.028 H 
ATOM     41  H17 non d ame     -34.311  10.937  27.554  0.00  0.00     0.028 H 
ATOM     42  H18 non d ame     -35.778  10.516  26.639  0.00  0.00     0.028 H 
ENDBRANCH  33  39
ENDBRANCH   7  33
ENDBRANCH   4   7
ENDBRANCH   1   3
BRANCH   1  43
ATOM     43  C15 non d ame     -34.459   5.512  30.224  0.00  0.00     0.240 C 
ATOM     44  O5  non d ame     -33.952   4.656  30.874  0.00  0.00    -0.271 OA
ATOM     45  N6  non d ame     -34.050   5.706  28.804  0.00  0.00    -0.355 N 
ATOM     46  H46 non d ame     -34.477   6.427  28.241  0.00  0.00     0.162 HD
BRANCH  45  47
ATOM     47  C20 non d ame     -33.009   4.835  28.216  0.00  0.00     0.013 C 
ATOM     48  H30 non d ame     -32.286   4.602  28.997  0.00  0.00     0.072 H 
BRANCH  47  49
ATOM     49  C21 non d ame     -32.328   5.567  27.082  0.00  0.00    -0.038 C 
ATOM     50  H31 non d ame     -31.305   5.190  27.061  0.00  0.00     0.036 H 
ATOM     51  H32 non d ame     -32.976   5.436  26.215  0.00  0.00     0.036 H 
BRANCH  49  52
ATOM     52  C22 non d ame     -32.228   7.089  27.325  0.00  0.00     0.018 C 
ATOM     53  H33 non d ame     -32.519   7.242  28.364  0.00  0.00     0.048 H 
ATOM     54  H34 non d ame     -31.230   7.376  26.991  0.00  0.00     0.048 H 
BRANCH  52  55
ATOM     55  C23 non d ame     -33.222   7.926  26.474  0.00  0.00     0.259 C 
ATOM     56  O7  non d ame     -34.296   7.495  26.204  0.00  0.00    -0.265 OA
BRANCH  55  57
ATOM     57  O8  non d ame     -32.830   9.212  26.008  0.00  0.00    -0.317 OA
BRANCH  57  58
ATOM     58  C29 non d ame     -33.259   9.504  24.676  0.00  0.00     0.052 C 
ATOM     59  H47 non d ame     -33.918   8.684  24.392  0.00  0.00     0.082 H 
ATOM     60  H48 non d ame     -33.642  10.524  24.706  0.00  0.00     0.082 H 
BRANCH  58  61
ATOM     61  C35 non d ame     -32.012   9.475  23.753  0.00  0.00    -0.034 A 
ATOM     62  C30 non d ame     -31.674   8.308  23.076  0.00  0.00    -0.075 A 
ATOM     63  C31 non d ame     -30.553   8.281  22.247  0.00  0.00    -0.082 A 
ATOM     64  H49 non d ame     -32.286   7.414  23.195  0.00  0.00     0.084 H 
ATOM     65  C32 non d ame     -29.767   9.427  22.099  0.00  0.00    -0.083 A 
ATOM     66  H50 non d ame     -30.291   7.365  21.717  0.00  0.00     0.083 H 
ATOM     67  C33 non d ame     -30.107  10.589  22.779  0.00  0.00    -0.082 A 
ATOM     68  H51 non d ame     -28.890   9.415  21.452  0.00  0.00     0.083 H 
ATOM     69  C34 non d ame     -31.227  10.621  23.607  0.00  0.00    -0.075 A 
ATOM     70  H52 non d ame     -29.491  11.481  22.663  0.00  0.00     0.083 H 
ATOM     71  H53 non d ame     -31.488  11.537  24.137  0.00  0.00     0.084 H 
ENDBRANCH  58  61
ENDBRANCH  57  58
ENDBRANCH  55  57
ENDBRANCH  52  55
ENDBRANCH  49  52
ENDBRANCH  47  49
BRANCH  47  72
ATOM     72  C24 non d ame     -33.648   3.554  27.685  0.00  0.00    -0.039 C 
ATOM     73  H35 non d ame     -32.919   2.766  27.875  0.00  0.00     0.036 H 
ATOM     74  H36 non d ame     -34.634   3.507  28.147  0.00  0.00     0.036 H 
BRANCH  72  75
ATOM     75  C25 non d ame     -33.873   3.616  26.100  0.00  0.00    -0.001 C 
ATOM     76  C26 non d ame     -35.422   4.058  25.770  0.00  0.00    -0.035 C 
ATOM     77  C27 non d ame     -35.953   3.168  24.899  0.00  0.00     0.085 C 
ATOM     78  H38 non d ame     -36.040   3.943  26.660  0.00  0.00     0.036 H 
ATOM     79  H39 non d ame     -35.434   4.996  25.215  0.00  0.00     0.036 H 
ATOM     80  N5  non d ame     -35.022   1.981  24.857  0.00  0.00    -0.049 N 
ATOM     81  H40 non d ame     -36.902   2.860  25.339  0.00  0.00     0.075 H 
ATOM     82  H41 non d ame     -35.939   3.665  23.929  0.00  0.00     0.075 H 
ATOM     83  C28 non d ame     -33.648   2.470  25.550  0.00  0.00     0.193 C 
ATOM     84  H42 non d ame     -35.440   1.268  25.437  0.00  0.00     0.280 HD
ATOM     85  H43 non d ame     -34.841   1.795  23.880  0.00  0.00     0.280 HD
ATOM     86  H44 non d ame     -32.775   2.708  24.942  0.00  0.00     0.129 H 
ATOM     87  H37 non d ame     -33.081   4.168  25.592  0.00  0.00     0.046 H 
BRANCH  83  88
ATOM     88  O6  non d ame     -33.201   1.497  26.496  0.00  0.00    -0.369 OA
ATOM     89  H45 non d ame     -33.900   0.858  26.653  0.00  0.00     0.212 HD
ENDBRANCH  83  88
ENDBRANCH  72  75
ENDBRANCH  47  72
ENDBRANCH  45  47
ENDBRANCH   1  43
BRANCH   1  90
ATOM     90  C16 non d ame     -36.912   5.751  30.721  0.00  0.00    -0.035 C 
ATOM     91  H21 non d ame     -36.724   4.685  30.843  0.00  0.00     0.037 H 
ATOM     92  H22 non d ame     -37.562   6.273  31.423  0.00  0.00     0.037 H 
BRANCH  90  93
ATOM     93  C17 non d ame     -37.557   5.926  29.309  0.00  0.00    -0.059 C 
ATOM     94  H23 non d ame     -36.876   6.528  28.707  0.00  0.00     0.038 H 
BRANCH  93  95
ATOM     95  C18 non d ame     -37.758   4.559  28.579  0.00  0.00    -0.073 C 
ATOM     96  H24 non d ame     -36.869   3.943  28.711  0.00  0.00     0.028 H 
ATOM     97  H25 non d ame     -38.622   4.046  29.001  0.00  0.00     0.028 H 
ATOM     98  H26 non d ame     -37.923   4.736  27.517  0.00  0.00     0.028 H 
ENDBRANCH  93  95
BRANCH  93  99
ATOM     99  C19 non d ame     -38.879   6.693  29.403  0.00  0.00    -0.073 C 
ATOM    100  H27 non d ame     -39.047   7.242  28.476  0.00  0.00     0.028 H 
ATOM    101  H28 non d ame     -39.697   5.990  29.563  0.00  0.00     0.028 H 
ATOM    102  H29 non d ame     -38.835   7.393  30.237  0.00  0.00     0.028 H 
ENDBRANCH  93  99
ENDBRANCH  90  93
ENDBRANCH   1  90
TORSDOF 26
ENDMDL
