MODEL 1
REMARK VINA RESULT:      -7.2      0.000      0.000
REMARK  26 active torsions:
REMARK  status: ('A' for Active; 'I' for Inactive)
REMARK    1  A    between atoms: C2_2  and  C3_3 
REMARK    2  A    between atoms: C4_6  and  C5_7 
REMARK       I    between atoms: C5_7  and  N2_9 
REMARK    3  A    between atoms: N2_9  and  C6_10 
REMARK    4  A    between atoms: C6_10  and  C7_11 
REMARK    5  A    between atoms: C6_10  and  C8_13 
REMARK       I    between atoms: C7_11  and  N3_14 
REMARK    6  A    between atoms: N3_14  and  C9_15 
REMARK    7  A    between atoms: C9_15  and  C10_16 
REMARK    8  A    between atoms: C9_15  and  C11_18 
REMARK       I    between atoms: C10_16  and  N4_21 
REMARK    9  A    between atoms: C11_18  and  C12_19 
REMARK   10  A    between atoms: C11_18  and  C13_20 
REMARK   11  A    between atoms: N4_21  and  C14_22 
REMARK   12  A    between atoms: C14_22  and  C15_23 
REMARK   13  A    between atoms: C14_22  and  C16_25 
REMARK       I    between atoms: C15_23  and  N6_40 
REMARK   14  A    between atoms: C16_25  and  C17_26 
REMARK   15  A    between atoms: C17_26  and  C18_27 
REMARK   16  A    between atoms: C17_26  and  C19_28 
REMARK   17  A    between atoms: C20_29  and  C21_30 
REMARK   18  A    between atoms: C20_29  and  C24_33 
REMARK   19  A    between atoms: C20_29  and  N6_40 
REMARK   20  A    between atoms: C21_30  and  C22_31 
REMARK   21  A    between atoms: C22_31  and  C23_32 
REMARK   22  A    between atoms: C23_32  and  O8_43 
REMARK   23  A    between atoms: C24_33  and  C25_34 
REMARK   24  A    between atoms: C28_38  and  O6_39 
REMARK   25  A    between atoms: C29_42  and  O8_43 
REMARK   26  A    between atoms: C29_42  and  C35_49 
ROOT
ATOM      1  C14 non d ame     -33.807   6.883  27.653  0.00  0.00     0.089 C 
ATOM      2  H20 non d ame     -33.378   6.539  28.595  0.00  0.00     0.087 H 
ENDROOT
BRANCH   1   3
ATOM      3  N4  non d ame     -34.260   8.252  27.853  0.00  0.00    -0.346 N 
ATOM      4  C10 non d ame     -34.729   8.708  29.211  0.00  0.00     0.241 C 
ATOM      5  O4  non d ame     -34.736   7.955  30.128  0.00  0.00    -0.271 OA
ATOM      6  H19 non d ame     -34.248   8.877  27.059  0.00  0.00     0.163 HD
BRANCH   4   7
ATOM      7  C9  non d ame     -35.190  10.130  29.401  0.00  0.00     0.092 C 
ATOM      8  H11 non d ame     -35.462  10.282  30.445  0.00  0.00     0.088 H 
BRANCH   7   9
ATOM      9  N3  non d ame     -34.084  11.046  29.103  0.00  0.00    -0.346 N 
ATOM     10  C7  non d ame     -33.049  11.268  30.082  0.00  0.00     0.240 C 
ATOM     11  O3  non d ame     -33.090  10.719  31.115  0.00  0.00    -0.271 OA
ATOM     12  H10 non d ame     -34.036  11.528  28.217  0.00  0.00     0.163 HD
BRANCH  10  13
ATOM     13  C6  non d ame     -31.876  12.246  29.761  0.00  0.00     0.086 C 
ATOM     14  H6  non d ame     -31.291  11.933  28.897  0.00  0.00     0.086 H 
BRANCH  13  15
ATOM     15  N2  non d ame     -32.427  13.552  29.439  0.00  0.00    -0.343 N 
ATOM     16  C5  non d ame     -31.665  14.465  28.584  0.00  0.00     0.273 C 
ATOM     17  O2  non d ame     -30.609  14.141  28.163  0.00  0.00    -0.266 OA
ATOM     18  H5  non d ame     -33.329  13.822  29.805  0.00  0.00     0.163 HD
BRANCH  16  19
ATOM     19  C4  non d ame     -32.236  15.848  28.235  0.00  0.00     0.154 A 
ATOM     20  C1  non d ame     -32.535  16.356  26.930  0.00  0.00    -0.017 A 
ATOM     21  C2  non d ame     -33.032  17.660  27.153  0.00  0.00     0.077 A 
ATOM     22  H1  non d ame     -32.412  15.855  25.970  0.00  0.00     0.091 H 
ATOM     23  O1  non d ame     -33.016  17.866  28.437  0.00  0.00    -0.218 OA
ATOM     24  N1  non d ame     -32.556  16.824  29.089  0.00  0.00    -0.123 NA
BRANCH  21  25
ATOM     25  C3  non d ame     -33.499  18.641  26.086  0.00  0.00    -0.029 C 
ATOM     26  H2  non d ame     -34.568  18.514  25.918  0.00  0.00     0.036 H 
ATOM     27  H3  non d ame     -33.302  19.660  26.418  0.00  0.00     0.036 H 
ATOM     28  H4  non d ame     -32.961  18.451  25.157  0.00  0.00     0.036 H 
ENDBRANCH  21  25
ENDBRANCH  16  19
ENDBRANCH  13  15
BRANCH  13  29
ATOM     29  C8  non d ame     -30.963  12.350  30.956  0.00  0.00    -0.049 C 
ATOM     30  H7  non d ame     -30.067  12.907  30.681  0.00  0.00     0.030 H 
ATOM     31  H8  non d ame     -31.480  12.870  31.763  0.00  0.00     0.030 H 
ATOM     32  H9  non d ame     -30.683  11.351  31.288  0.00  0.00     0.030 H 
ENDBRANCH  13  29
ENDBRANCH  10  13
ENDBRANCH   7   9
BRANCH   7  33
ATOM     33  C11 non d ame     -36.377  10.424  28.437  0.00  0.00    -0.033 C 
ATOM     34  H12 non d ame     -36.555   9.523  27.851  0.00  0.00     0.042 H 
BRANCH  33  35
ATOM     35  C12 non d ame     -37.686  10.735  29.227  0.00  0.00    -0.071 C 
ATOM     36  H13 non d ame     -38.550  10.495  28.608  0.00  0.00     0.028 H 
ATOM     37  H14 non d ame     -37.713  10.135  30.136  0.00  0.00     0.028 H 
ATOM     38  H15 non d ame     -37.710  11.793  29.488  0.00  0.00     0.028 H 
ENDBRANCH  33  35
BRANCH  33  39
ATOM     39  C13 non d ame     -36.022  11.581  27.450  0.00  0.00    -0.071 C 
ATOM     40  H16 non d ame     -35.383  12.306  27.954  0.00  0.00     0.028 H 
ATOM     41  H17 non d ame     -35.498  11.173  26.585  0.00  0.00     0.028 H 
ATOM     42  H18 non d ame     -36.938  12.071  27.120  0.00  0.00     0.028 H 
ENDBRANCH  33  39
ENDBRANCH   7  33
ENDBRANCH   4   7
ENDBRANCH   1   3
BRANCH   1  43
ATOM     43  C15 non d ame     -32.768   6.869  26.495  0.00  0.00     0.240 C 
ATOM     44  O5  non d ame     -31.780   6.217  26.596  0.00  0.00    -0.271 OA
ATOM     45  N6  non d ame     -33.011   7.662  25.256  0.00  0.00    -0.355 N 
ATOM     46  H46 non d ame     -33.850   8.215  25.157  0.00  0.00     0.162 HD
BRANCH  45  47
ATOM     47  C20 non d ame     -32.015   7.637  24.163  0.00  0.00     0.013 C 
ATOM     48  H30 non d ame     -31.117   7.147  24.539  0.00  0.00     0.072 H 
BRANCH  47  49
ATOM     49  C21 non d ame     -31.694   9.054  23.747  0.00  0.00    -0.038 C 
ATOM     50  H31 non d ame     -30.655   9.218  24.033  0.00  0.00     0.036 H 
ATOM     51  H32 non d ame     -31.990   9.127  22.700  0.00  0.00     0.036 H 
BRANCH  49  52
ATOM     52  C22 non d ame     -32.528  10.106  24.510  0.00  0.00     0.018 C 
ATOM     53  H33 non d ame     -32.637  10.949  23.827  0.00  0.00     0.048 H 
ATOM     54  H34 non d ame     -33.412   9.578  24.870  0.00  0.00     0.048 H 
BRANCH  52  55
ATOM     55  C23 non d ame     -31.821  10.669  25.774  0.00  0.00     0.259 C 
ATOM     56  O7  non d ame     -31.986  10.159  26.835  0.00  0.00    -0.265 OA
BRANCH  55  57
ATOM     57  O8  non d ame     -30.982  11.811  25.653  0.00  0.00    -0.317 OA
BRANCH  57  58
ATOM     58  C29 non d ame     -31.651  12.976  25.161  0.00  0.00     0.052 C 
ATOM     59  H47 non d ame     -32.598  12.621  24.753  0.00  0.00     0.082 H 
ATOM     60  H48 non d ame     -31.646  13.689  25.985  0.00  0.00     0.082 H 
BRANCH  58  61
ATOM     61  C35 non d ame     -30.804  13.561  24.000  0.00  0.00    -0.034 A 
ATOM     62  C30 non d ame     -30.239  12.712  23.053  0.00  0.00    -0.075 A 
ATOM     63  C31 non d ame     -29.478  13.237  22.010  0.00  0.00    -0.082 A 
ATOM     64  H49 non d ame     -30.394  11.635  23.128  0.00  0.00     0.084 H 
ATOM     65  C32 non d ame     -29.279  14.617  21.918  0.00  0.00    -0.083 A 
ATOM     66  H50 non d ame     -29.038  12.570  21.269  0.00  0.00     0.083 H 
ATOM     67  C33 non d ame     -29.841  15.460  22.867  0.00  0.00    -0.082 A 
ATOM     68  H51 non d ame     -28.685  15.037  21.106  0.00  0.00     0.083 H 
ATOM     69  C34 non d ame     -30.605  14.940  23.910  0.00  0.00    -0.075 A 
ATOM     70  H52 non d ame     -29.682  16.536  22.794  0.00  0.00     0.083 H 
ATOM     71  H53 non d ame     -31.044  15.608  24.651  0.00  0.00     0.084 H 
ENDBRANCH  58  61
ENDBRANCH  57  58
ENDBRANCH  55  57
ENDBRANCH  52  55
ENDBRANCH  49  52
ENDBRANCH  47  49
BRANCH  47  72
ATOM     72  C24 non d ame     -32.578   6.869  22.969  0.00  0.00    -0.039 C 
ATOM     73  H35 non d ame     -31.807   6.147  22.698  0.00  0.00     0.036 H 
ATOM     74  H36 non d ame     -33.562   6.523  23.284  0.00  0.00     0.036 H 
BRANCH  72  75
ATOM     75  C25 non d ame     -32.797   7.824  21.701  0.00  0.00    -0.001 C 
ATOM     76  C26 non d ame     -34.390   8.205  21.555  0.00  0.00    -0.035 C 
ATOM     77  C27 non d ame     -34.787   7.944  20.287  0.00  0.00     0.085 C 
ATOM     78  H38 non d ame     -34.993   7.526  22.156  0.00  0.00     0.036 H 
ATOM     79  H39 non d ame     -34.526   9.283  21.648  0.00  0.00     0.036 H 
ATOM     80  N5  non d ame     -33.700   7.115  19.646  0.00  0.00    -0.049 N 
ATOM     81  H40 non d ame     -35.687   7.337  20.383  0.00  0.00     0.075 H 
ATOM     82  H41 non d ame     -34.833   8.913  19.791  0.00  0.00     0.075 H 
ATOM     83  C28 non d ame     -32.412   7.248  20.611  0.00  0.00     0.193 C 
ATOM     84  H42 non d ame     -34.020   6.157  19.668  0.00  0.00     0.280 HD
ATOM     85  H43 non d ame     -33.488   7.556  18.763  0.00  0.00     0.280 HD
ATOM     86  H44 non d ame     -31.576   7.890  20.332  0.00  0.00     0.129 H 
ATOM     87  H37 non d ame     -32.085   8.649  21.678  0.00  0.00     0.046 H 
BRANCH  83  88
ATOM     88  O6  non d ame     -31.842   5.961  20.853  0.00  0.00    -0.369 OA
ATOM     89  H45 non d ame     -31.567   5.570  20.020  0.00  0.00     0.212 HD
ENDBRANCH  83  88
ENDBRANCH  72  75
ENDBRANCH  47  72
ENDBRANCH  45  47
ENDBRANCH   1  43
BRANCH   1  90
ATOM     90  C16 non d ame     -34.998   6.015  27.282  0.00  0.00    -0.035 C 
ATOM     91  H21 non d ame     -35.859   6.684  27.299  0.00  0.00     0.037 H 
ATOM     92  H22 non d ame     -34.714   5.516  26.356  0.00  0.00     0.037 H 
BRANCH  90  93
ATOM     93  C17 non d ame     -35.298   4.886  28.319  0.00  0.00    -0.059 C 
ATOM     94  H23 non d ame     -35.392   3.950  27.770  0.00  0.00     0.038 H 
BRANCH  93  95
ATOM     95  C18 non d ame     -34.142   4.716  29.356  0.00  0.00    -0.073 C 
ATOM     96  H24 non d ame     -33.925   3.657  29.489  0.00  0.00     0.028 H 
ATOM     97  H25 non d ame     -33.250   5.226  28.993  0.00  0.00     0.028 H 
ATOM     98  H26 non d ame     -34.444   5.148  30.310  0.00  0.00     0.028 H 
ENDBRANCH  93  95
BRANCH  93  99
ATOM     99  C19 non d ame     -36.632   5.134  29.027  0.00  0.00    -0.073 C 
ATOM    100  H27 non d ame     -36.446   5.530  30.026  0.00  0.00     0.028 H 
ATOM    101  H28 non d ame     -37.220   5.853  28.456  0.00  0.00     0.028 H 
ATOM    102  H29 non d ame     -37.183   4.197  29.104  0.00  0.00     0.028 H 
ENDBRANCH  93  99
ENDBRANCH  90  93
ENDBRANCH   1  90
TORSDOF 26
ENDMDL
MODEL 2
REMARK VINA RESULT:      -7.2      2.551      7.833
REMARK  26 active torsions:
REMARK  status: ('A' for Active; 'I' for Inactive)
REMARK    1  A    between atoms: C2_2  and  C3_3 
REMARK    2  A    between atoms: C4_6  and  C5_7 
REMARK       I    between atoms: C5_7  and  N2_9 
REMARK    3  A    between atoms: N2_9  and  C6_10 
REMARK    4  A    between atoms: C6_10  and  C7_11 
REMARK    5  A    between atoms: C6_10  and  C8_13 
REMARK       I    between atoms: C7_11  and  N3_14 
REMARK    6  A    between atoms: N3_14  and  C9_15 
REMARK    7  A    between atoms: C9_15  and  C10_16 
REMARK    8  A    between atoms: C9_15  and  C11_18 
REMARK       I    between atoms: C10_16  and  N4_21 
REMARK    9  A    between atoms: C11_18  and  C12_19 
REMARK   10  A    between atoms: C11_18  and  C13_20 
REMARK   11  A    between atoms: N4_21  and  C14_22 
REMARK   12  A    between atoms: C14_22  and  C15_23 
REMARK   13  A    between atoms: C14_22  and  C16_25 
REMARK       I    between atoms: C15_23  and  N6_40 
REMARK   14  A    between atoms: C16_25  and  C17_26 
REMARK   15  A    between atoms: C17_26  and  C18_27 
REMARK   16  A    between atoms: C17_26  and  C19_28 
REMARK   17  A    between atoms: C20_29  and  C21_30 
REMARK   18  A    between atoms: C20_29  and  C24_33 
REMARK   19  A    between atoms: C20_29  and  N6_40 
REMARK   20  A    between atoms: C21_30  and  C22_31 
REMARK   21  A    between atoms: C22_31  and  C23_32 
REMARK   22  A    between atoms: C23_32  and  O8_43 
REMARK   23  A    between atoms: C24_33  and  C25_34 
REMARK   24  A    between atoms: C28_38  and  O6_39 
REMARK   25  A    between atoms: C29_42  and  O8_43 
REMARK   26  A    between atoms: C29_42  and  C35_49 
ROOT
ATOM      1  C14 non d ame     -33.042  10.526  25.608  0.00  0.00     0.089 C 
ATOM      2  H20 non d ame     -33.747  10.569  24.778  0.00  0.00     0.087 H 
ENDROOT
BRANCH   1   3
ATOM      3  N4  non d ame     -32.404   9.218  25.575  0.00  0.00    -0.346 N 
ATOM      4  C10 non d ame     -33.032   8.085  24.804  0.00  0.00     0.241 C 
ATOM      5  O4  non d ame     -34.052   8.248  24.220  0.00  0.00    -0.271 OA
ATOM      6  H19 non d ame     -31.538   9.099  26.081  0.00  0.00     0.163 HD
BRANCH   4   7
ATOM      7  C9  non d ame     -32.356   6.739  24.777  0.00  0.00     0.092 C 
ATOM      8  H11 non d ame     -31.311   6.857  25.066  0.00  0.00     0.088 H 
BRANCH   7   9
ATOM      9  N3  non d ame     -32.982   5.856  25.765  0.00  0.00    -0.346 N 
ATOM     10  C7  non d ame     -32.605   5.947  27.154  0.00  0.00     0.240 C 
ATOM     11  O3  non d ame     -31.797   6.723  27.493  0.00  0.00    -0.271 OA
ATOM     12  H10 non d ame     -33.679   5.180  25.487  0.00  0.00     0.163 HD
BRANCH  10  13
ATOM     13  C6  non d ame     -33.273   5.002  28.201  0.00  0.00     0.086 C 
ATOM     14  H6  non d ame     -32.651   4.840  29.081  0.00  0.00     0.086 H 
BRANCH  13  15
ATOM     15  N2  non d ame     -34.505   5.614  28.669  0.00  0.00    -0.343 N 
ATOM     16  C5  non d ame     -34.870   5.511  30.084  0.00  0.00     0.273 C 
ATOM     17  O2  non d ame     -34.166   4.930  30.836  0.00  0.00    -0.266 OA
ATOM     18  H5  non d ame     -35.102   6.106  28.019  0.00  0.00     0.163 HD
BRANCH  16  19
ATOM     19  C4  non d ame     -36.169   6.154  30.593  0.00  0.00     0.154 A 
ATOM     20  C1  non d ame     -36.460   7.552  30.693  0.00  0.00    -0.017 A 
ATOM     21  C2  non d ame     -37.771   7.614  31.214  0.00  0.00     0.077 A 
ATOM     22  H1  non d ame     -35.817   8.392  30.428  0.00  0.00     0.091 H 
ATOM     23  O1  non d ame     -38.177   6.390  31.387  0.00  0.00    -0.218 OA
ATOM     24  N1  non d ame     -37.259   5.521  31.033  0.00  0.00    -0.123 NA
BRANCH  21  25
ATOM     25  C3  non d ame     -38.563   8.880  31.514  0.00  0.00    -0.029 C 
ATOM     26  H2  non d ame     -38.352   9.207  32.532  0.00  0.00     0.036 H 
ATOM     27  H3  non d ame     -38.275   9.663  30.814  0.00  0.00     0.036 H 
ATOM     28  H4  non d ame     -39.629   8.675  31.412  0.00  0.00     0.036 H 
ENDBRANCH  21  25
ENDBRANCH  16  19
ENDBRANCH  13  15
BRANCH  13  29
ATOM     29  C8  non d ame     -33.569   3.669  27.562  0.00  0.00    -0.049 C 
ATOM     30  H7  non d ame     -33.938   3.826  26.548  0.00  0.00     0.030 H 
ATOM     31  H8  non d ame     -32.658   3.072  27.528  0.00  0.00     0.030 H 
ATOM     32  H9  non d ame     -34.325   3.145  28.147  0.00  0.00     0.030 H 
ENDBRANCH  13  29
ENDBRANCH  10  13
ENDBRANCH   7   9
BRANCH   7  33
ATOM     33  C11 non d ame     -32.503   6.114  23.359  0.00  0.00    -0.033 C 
ATOM     34  H12 non d ame     -33.282   6.667  22.835  0.00  0.00     0.042 H 
BRANCH  33  35
ATOM     35  C12 non d ame     -31.187   6.260  22.533  0.00  0.00    -0.071 C 
ATOM     36  H13 non d ame     -31.176   5.520  21.732  0.00  0.00     0.028 H 
ATOM     37  H14 non d ame     -31.137   7.260  22.104  0.00  0.00     0.028 H 
ATOM     38  H15 non d ame     -30.329   6.101  23.185  0.00  0.00     0.028 H 
ENDBRANCH  33  35
BRANCH  33  39
ATOM     39  C13 non d ame     -32.951   4.619  23.450  0.00  0.00    -0.071 C 
ATOM     40  H16 non d ame     -33.514   4.353  22.555  0.00  0.00     0.028 H 
ATOM     41  H17 non d ame     -32.071   3.980  23.531  0.00  0.00     0.028 H 
ATOM     42  H18 non d ame     -33.580   4.482  24.329  0.00  0.00     0.028 H 
ENDBRANCH  33  39
ENDBRANCH   7  33
ENDBRANCH   4   7
ENDBRANCH   1   3
BRANCH   1  43
ATOM     43  C15 non d ame     -31.939  11.618  25.498  0.00  0.00     0.240 C 
ATOM     44  O5  non d ame     -30.857  11.412  25.947  0.00  0.00    -0.271 OA
ATOM     45  N6  non d ame     -32.228  12.916  24.826  0.00  0.00    -0.355 N 
ATOM     46  H46 non d ame     -33.142  13.101  24.437  0.00  0.00     0.162 HD
BRANCH  45  47
ATOM     47  C20 non d ame     -31.169  13.943  24.729  0.00  0.00     0.013 C 
ATOM     48  H30 non d ame     -30.426  13.733  25.498  0.00  0.00     0.072 H 
BRANCH  47  49
ATOM     49  C21 non d ame     -31.774  15.310  24.955  0.00  0.00    -0.038 C 
ATOM     50  H31 non d ame     -31.292  15.970  24.234  0.00  0.00     0.036 H 
ATOM     51  H32 non d ame     -32.854  15.162  24.922  0.00  0.00     0.036 H 
BRANCH  49  52
ATOM     52  C22 non d ame     -31.455  15.883  26.353  0.00  0.00     0.018 C 
ATOM     53  H33 non d ame     -31.003  15.064  26.912  0.00  0.00     0.048 H 
ATOM     54  H34 non d ame     -30.890  16.798  26.175  0.00  0.00     0.048 H 
BRANCH  52  55
ATOM     55  C23 non d ame     -32.714  16.307  27.159  0.00  0.00     0.259 C 
ATOM     56  O7  non d ame     -33.372  17.231  26.807  0.00  0.00    -0.265 OA
BRANCH  55  57
ATOM     57  O8  non d ame     -33.066  15.585  28.333  0.00  0.00    -0.317 OA
BRANCH  57  58
ATOM     58  C29 non d ame     -33.347  14.201  28.104  0.00  0.00     0.052 C 
ATOM     59  H47 non d ame     -34.380  14.055  28.418  0.00  0.00     0.082 H 
ATOM     60  H48 non d ame     -33.059  14.009  27.071  0.00  0.00     0.082 H 
BRANCH  58  61
ATOM     61  C35 non d ame     -32.427  13.365  29.033  0.00  0.00    -0.034 A 
ATOM     62  C30 non d ame     -31.057  13.315  28.795  0.00  0.00    -0.075 A 
ATOM     63  C31 non d ame     -30.231  12.564  29.629  0.00  0.00    -0.082 A 
ATOM     64  H49 non d ame     -30.631  13.863  27.955  0.00  0.00     0.084 H 
ATOM     65  C32 non d ame     -30.779  11.859  30.704  0.00  0.00    -0.083 A 
ATOM     66  H50 non d ame     -29.157  12.527  29.441  0.00  0.00     0.083 H 
ATOM     67  C33 non d ame     -32.147  11.909  30.935  0.00  0.00    -0.082 A 
ATOM     68  H51 non d ame     -30.140  11.269  31.361  0.00  0.00     0.083 H 
ATOM     69  C34 non d ame     -32.977  12.661  30.105  0.00  0.00    -0.075 A 
ATOM     70  H52 non d ame     -32.572  11.356  31.773  0.00  0.00     0.083 H 
ATOM     71  H53 non d ame     -34.050  12.696  30.294  0.00  0.00     0.084 H 
ENDBRANCH  58  61
ENDBRANCH  57  58
ENDBRANCH  55  57
ENDBRANCH  52  55
ENDBRANCH  49  52
ENDBRANCH  47  49
BRANCH  47  72
ATOM     72  C24 non d ame     -30.527  13.893  23.344  0.00  0.00    -0.039 C 
ATOM     73  H35 non d ame     -29.541  13.454  23.496  0.00  0.00     0.036 H 
ATOM     74  H36 non d ame     -31.254  13.392  22.705  0.00  0.00     0.036 H 
BRANCH  72  75
ATOM     75  C25 non d ame     -30.302  15.361  22.741  0.00  0.00    -0.001 C 
ATOM     76  C26 non d ame     -31.293  15.595  21.451  0.00  0.00    -0.035 C 
ATOM     77  C27 non d ame     -30.553  16.037  20.406  0.00  0.00     0.085 C 
ATOM     78  H38 non d ame     -31.682  14.639  21.100  0.00  0.00     0.036 H 
ATOM     79  H39 non d ame     -31.976  16.422  21.648  0.00  0.00     0.036 H 
ATOM     80  N5  non d ame     -29.104  15.815  20.767  0.00  0.00    -0.049 N 
ATOM     81  H40 non d ame     -30.815  15.390  19.569  0.00  0.00     0.075 H 
ATOM     82  H41 non d ame     -30.744  17.108  20.348  0.00  0.00     0.075 H 
ATOM     83  C28 non d ame     -29.081  15.525  22.355  0.00  0.00     0.193 C 
ATOM     84  H42 non d ame     -28.814  14.978  20.282  0.00  0.00     0.280 HD
ATOM     85  H43 non d ame     -28.629  16.690  20.592  0.00  0.00     0.280 HD
ATOM     86  H44 non d ame     -28.753  16.295  23.054  0.00  0.00     0.129 H 
ATOM     87  H37 non d ame     -30.305  16.129  23.515  0.00  0.00     0.046 H 
BRANCH  83  88
ATOM     88  O6  non d ame     -28.268  14.384  22.635  0.00  0.00    -0.369 OA
ATOM     89  H45 non d ame     -28.760  13.768  23.183  0.00  0.00     0.212 HD
ENDBRANCH  83  88
ENDBRANCH  72  75
ENDBRANCH  47  72
ENDBRANCH  45  47
ENDBRANCH   1  43
BRANCH   1  90
ATOM     90  C16 non d ame     -33.786  10.683  26.925  0.00  0.00    -0.035 C 
ATOM     91  H21 non d ame     -33.078  11.158  27.602  0.00  0.00     0.037 H 
ATOM     92  H22 non d ame     -34.719  11.186  26.671  0.00  0.00     0.037 H 
BRANCH  90  93
ATOM     93  C17 non d ame     -34.184   9.324  27.585  0.00  0.00    -0.059 C 
ATOM     94  H23 non d ame     -33.694   8.528  27.024  0.00  0.00     0.038 H 
BRANCH  93  95
ATOM     95  C18 non d ame     -33.703   9.227  29.068  0.00  0.00    -0.073 C 
ATOM     96  H24 non d ame     -32.769   8.668  29.112  0.00  0.00     0.028 H 
ATOM     97  H25 non d ame     -33.545  10.229  29.466  0.00  0.00     0.028 H 
ATOM     98  H26 non d ame     -34.460   8.715  29.662  0.00  0.00     0.028 H 
ENDBRANCH  93  95
BRANCH  93  99
ATOM     99  C19 non d ame     -35.693   9.088  27.485  0.00  0.00    -0.073 C 
ATOM    100  H27 non d ame     -36.204  10.045  27.377  0.00  0.00     0.028 H 
ATOM    101  H28 non d ame     -35.907   8.463  26.617  0.00  0.00     0.028 H 
ATOM    102  H29 non d ame     -36.043   8.588  28.387  0.00  0.00     0.028 H 
ENDBRANCH  93  99
ENDBRANCH  90  93
ENDBRANCH   1  90
TORSDOF 26
ENDMDL
MODEL 3
REMARK VINA RESULT:      -7.1      2.353     10.069
REMARK  26 active torsions:
REMARK  status: ('A' for Active; 'I' for Inactive)
REMARK    1  A    between atoms: C2_2  and  C3_3 
REMARK    2  A    between atoms: C4_6  and  C5_7 
REMARK       I    between atoms: C5_7  and  N2_9 
REMARK    3  A    between atoms: N2_9  and  C6_10 
REMARK    4  A    between atoms: C6_10  and  C7_11 
REMARK    5  A    between atoms: C6_10  and  C8_13 
REMARK       I    between atoms: C7_11  and  N3_14 
REMARK    6  A    between atoms: N3_14  and  C9_15 
REMARK    7  A    between atoms: C9_15  and  C10_16 
REMARK    8  A    between atoms: C9_15  and  C11_18 
REMARK       I    between atoms: C10_16  and  N4_21 
REMARK    9  A    between atoms: C11_18  and  C12_19 
REMARK   10  A    between atoms: C11_18  and  C13_20 
REMARK   11  A    between atoms: N4_21  and  C14_22 
REMARK   12  A    between atoms: C14_22  and  C15_23 
REMARK   13  A    between atoms: C14_22  and  C16_25 
REMARK       I    between atoms: C15_23  and  N6_40 
REMARK   14  A    between atoms: C16_25  and  C17_26 
REMARK   15  A    between atoms: C17_26  and  C18_27 
REMARK   16  A    between atoms: C17_26  and  C19_28 
REMARK   17  A    between atoms: C20_29  and  C21_30 
REMARK   18  A    between atoms: C20_29  and  C24_33 
REMARK   19  A    between atoms: C20_29  and  N6_40 
REMARK   20  A    between atoms: C21_30  and  C22_31 
REMARK   21  A    between atoms: C22_31  and  C23_32 
REMARK   22  A    between atoms: C23_32  and  O8_43 
REMARK   23  A    between atoms: C24_33  and  C25_34 
REMARK   24  A    between atoms: C28_38  and  O6_39 
REMARK   25  A    between atoms: C29_42  and  O8_43 
REMARK   26  A    between atoms: C29_42  and  C35_49 
ROOT
ATOM      1  C14 non d ame     -30.896  14.053  24.349  0.00  0.00     0.089 C 
ATOM      2  H20 non d ame     -29.929  13.588  24.541  0.00  0.00     0.087 H 
ENDROOT
BRANCH   1   3
ATOM      3  N4  non d ame     -31.904  13.004  24.392  0.00  0.00    -0.346 N 
ATOM      4  C10 non d ame     -31.684  11.771  25.231  0.00  0.00     0.241 C 
ATOM      5  O4  non d ame     -30.687  11.644  25.862  0.00  0.00    -0.271 OA
ATOM      6  H19 non d ame     -32.745  13.131  23.846  0.00  0.00     0.163 HD
BRANCH   4   7
ATOM      7  C9  non d ame     -32.741  10.698  25.268  0.00  0.00     0.092 C 
ATOM      8  H11 non d ame     -33.379  10.793  24.390  0.00  0.00     0.088 H 
BRANCH   7   9
ATOM      9  N3  non d ame     -32.102   9.380  25.200  0.00  0.00    -0.346 N 
ATOM     10  C7  non d ame     -32.189   8.600  23.990  0.00  0.00     0.240 C 
ATOM     11  O3  non d ame     -32.770   9.016  23.063  0.00  0.00    -0.271 OA
ATOM     12  H10 non d ame     -31.598   9.007  25.992  0.00  0.00     0.163 HD
BRANCH  10  13
ATOM     13  C6  non d ame     -31.510   7.196  23.924  0.00  0.00     0.086 C 
ATOM     14  H6  non d ame     -30.622   7.128  24.553  0.00  0.00     0.086 H 
BRANCH  13  15
ATOM     15  N2  non d ame     -32.444   6.197  24.413  0.00  0.00    -0.343 N 
ATOM     16  C5  non d ame     -32.497   5.897  25.845  0.00  0.00     0.273 C 
ATOM     17  O2  non d ame     -31.781   6.464  26.596  0.00  0.00    -0.266 OA
ATOM     18  H5  non d ame     -33.051   5.715  23.764  0.00  0.00     0.163 HD
BRANCH  16  19
ATOM     19  C4  non d ame     -33.481   4.844  26.376  0.00  0.00     0.154 A 
ATOM     20  C1  non d ame     -33.782   3.571  25.795  0.00  0.00    -0.017 A 
ATOM     21  C2  non d ame     -34.738   2.994  26.660  0.00  0.00     0.077 A 
ATOM     22  H1  non d ame     -33.370   3.134  24.885  0.00  0.00     0.091 H 
ATOM     23  O1  non d ame     -34.953   3.842  27.622  0.00  0.00    -0.218 OA
ATOM     24  N1  non d ame     -34.231   4.930  27.478  0.00  0.00    -0.123 NA
BRANCH  21  25
ATOM     25  C3  non d ame     -35.395   1.629  26.496  0.00  0.00    -0.029 C 
ATOM     26  H2  non d ame     -35.293   1.063  27.422  0.00  0.00     0.036 H 
ATOM     27  H3  non d ame     -36.452   1.760  26.265  0.00  0.00     0.036 H 
ATOM     28  H4  non d ame     -34.910   1.088  25.684  0.00  0.00     0.036 H 
ENDBRANCH  21  25
ENDBRANCH  16  19
ENDBRANCH  13  15
BRANCH  13  29
ATOM     29  C8  non d ame     -31.122   6.889  22.500  0.00  0.00    -0.049 C 
ATOM     30  H7  non d ame     -31.922   7.204  21.830  0.00  0.00     0.030 H 
ATOM     31  H8  non d ame     -30.207   7.424  22.249  0.00  0.00     0.030 H 
ATOM     32  H9  non d ame     -30.958   5.817  22.391  0.00  0.00     0.030 H 
ENDBRANCH  13  29
ENDBRANCH  10  13
ENDBRANCH   7   9
BRANCH   7  33
ATOM     33  C11 non d ame     -33.549  10.811  26.594  0.00  0.00    -0.033 C 
ATOM     34  H12 non d ame     -32.832  10.926  27.407  0.00  0.00     0.042 H 
BRANCH  33  35
ATOM     35  C12 non d ame     -34.465  12.074  26.595  0.00  0.00    -0.071 C 
ATOM     36  H13 non d ame     -33.866  12.958  26.815  0.00  0.00     0.028 H 
ATOM     37  H14 non d ame     -34.931  12.185  25.616  0.00  0.00     0.028 H 
ATOM     38  H15 non d ame     -35.238  11.961  27.355  0.00  0.00     0.028 H 
ENDBRANCH  33  35
BRANCH  33  39
ATOM     39  C13 non d ame     -34.375   9.511  26.858  0.00  0.00    -0.071 C 
ATOM     40  H16 non d ame     -35.289   9.765  27.395  0.00  0.00     0.028 H 
ATOM     41  H17 non d ame     -34.629   9.043  25.907  0.00  0.00     0.028 H 
ATOM     42  H18 non d ame     -33.782   8.819  27.456  0.00  0.00     0.028 H 
ENDBRANCH  33  39
ENDBRANCH   7  33
ENDBRANCH   4   7
ENDBRANCH   1   3
BRANCH   1  43
ATOM     43  C15 non d ame     -31.253  15.127  25.417  0.00  0.00     0.240 C 
ATOM     44  O5  non d ame     -31.009  16.271  25.209  0.00  0.00    -0.271 OA
ATOM     45  N6  non d ame     -31.906  14.729  26.696  0.00  0.00    -0.355 N 
ATOM     46  H46 non d ame     -32.123  13.760  26.882  0.00  0.00     0.162 HD
BRANCH  45  47
ATOM     47  C20 non d ame     -32.240  15.762  27.701  0.00  0.00     0.013 C 
ATOM     48  H30 non d ame     -31.589  16.619  27.530  0.00  0.00     0.072 H 
BRANCH  47  49
ATOM     49  C21 non d ame     -32.008  15.204  29.087  0.00  0.00    -0.038 C 
ATOM     50  H31 non d ame     -30.928  15.088  29.180  0.00  0.00     0.036 H 
ATOM     51  H32 non d ame     -32.546  15.867  29.765  0.00  0.00     0.036 H 
BRANCH  49  52
ATOM     52  C22 non d ame     -32.617  13.798  29.277  0.00  0.00     0.018 C 
ATOM     53  H33 non d ame     -33.192  13.848  30.201  0.00  0.00     0.048 H 
ATOM     54  H34 non d ame     -33.115  13.562  28.337  0.00  0.00     0.048 H 
BRANCH  52  55
ATOM     55  C23 non d ame     -31.558  12.681  29.493  0.00  0.00     0.259 C 
ATOM     56  O7  non d ame     -30.531  12.700  28.895  0.00  0.00    -0.265 OA
BRANCH  55  57
ATOM     57  O8  non d ame     -31.835  11.625  30.404  0.00  0.00    -0.317 OA
BRANCH  57  58
ATOM     58  C29 non d ame     -32.624  10.569  29.850  0.00  0.00     0.052 C 
ATOM     59  H47 non d ame     -33.093  10.988  28.959  0.00  0.00     0.082 H 
ATOM     60  H48 non d ame     -31.954   9.714  29.761  0.00  0.00     0.082 H 
BRANCH  58  61
ATOM     61  C35 non d ame     -33.738  10.216  30.871  0.00  0.00    -0.034 A 
ATOM     62  C30 non d ame     -34.141  11.156  31.814  0.00  0.00    -0.075 A 
ATOM     63  C31 non d ame     -35.142  10.839  32.732  0.00  0.00    -0.082 A 
ATOM     64  H49 non d ame     -33.674  12.140  31.834  0.00  0.00     0.084 H 
ATOM     65  C32 non d ame     -35.737   9.575  32.707  0.00  0.00    -0.083 A 
ATOM     66  H50 non d ame     -35.457  11.578  33.469  0.00  0.00     0.083 H 
ATOM     67  C33 non d ame     -35.329   8.639  31.766  0.00  0.00    -0.082 A 
ATOM     68  H51 non d ame     -36.520   9.319  33.420  0.00  0.00     0.083 H 
ATOM     69  C34 non d ame     -34.331   8.952  30.845  0.00  0.00    -0.075 A 
ATOM     70  H52 non d ame     -35.794   7.653  31.750  0.00  0.00     0.083 H 
ATOM     71  H53 non d ame     -34.017   8.212  30.109  0.00  0.00     0.084 H 
ENDBRANCH  58  61
ENDBRANCH  57  58
ENDBRANCH  55  57
ENDBRANCH  52  55
ENDBRANCH  49  52
ENDBRANCH  47  49
BRANCH  47  72
ATOM     72  C24 non d ame     -33.705  16.170  27.554  0.00  0.00    -0.039 C 
ATOM     73  H35 non d ame     -34.129  15.474  26.830  0.00  0.00     0.036 H 
ATOM     74  H36 non d ame     -34.099  16.206  28.570  0.00  0.00     0.036 H 
BRANCH  72  75
ATOM     75  C25 non d ame     -33.851  17.641  26.938  0.00  0.00    -0.001 C 
ATOM     76  C26 non d ame     -32.441  18.467  27.121  0.00  0.00    -0.035 C 
ATOM     77  C27 non d ame     -32.707  19.664  27.696  0.00  0.00     0.085 C 
ATOM     78  H38 non d ame     -31.807  17.968  27.853  0.00  0.00     0.036 H 
ATOM     79  H39 non d ame     -32.037  18.738  26.145  0.00  0.00     0.036 H 
ATOM     80  N5  non d ame     -34.121  19.596  28.222  0.00  0.00    -0.049 N 
ATOM     81  H40 non d ame     -32.019  19.742  28.538  0.00  0.00     0.075 H 
ATOM     82  H41 non d ame     -32.664  20.392  26.887  0.00  0.00     0.075 H 
ATOM     83  C28 non d ame     -34.792  18.303  27.526  0.00  0.00     0.193 C 
ATOM     84  H42 non d ame     -34.050  19.427  29.215  0.00  0.00     0.280 HD
ATOM     85  H43 non d ame     -34.591  20.424  27.883  0.00  0.00     0.280 HD
ATOM     86  H44 non d ame     -35.496  18.420  26.703  0.00  0.00     0.129 H 
ATOM     87  H37 non d ame     -34.294  17.630  25.942  0.00  0.00     0.046 H 
BRANCH  83  88
ATOM     88  O6  non d ame     -35.474  17.516  28.504  0.00  0.00    -0.369 OA
ATOM     89  H45 non d ame     -36.420  17.666  28.432  0.00  0.00     0.212 HD
ENDBRANCH  83  88
ENDBRANCH  72  75
ENDBRANCH  47  72
ENDBRANCH  45  47
ENDBRANCH   1  43
BRANCH   1  90
ATOM     90  C16 non d ame     -30.897  14.687  22.967  0.00  0.00    -0.035 C 
ATOM     91  H21 non d ame     -31.736  14.231  22.442  0.00  0.00     0.037 H 
ATOM     92  H22 non d ame     -30.884  15.763  23.143  0.00  0.00     0.037 H 
BRANCH  90  93
ATOM     93  C17 non d ame     -29.622  14.360  22.127  0.00  0.00    -0.059 C 
ATOM     94  H23 non d ame     -29.785  14.739  21.118  0.00  0.00     0.038 H 
BRANCH  93  95
ATOM     95  C18 non d ame     -28.346  15.058  22.697  0.00  0.00    -0.073 C 
ATOM     96  H24 non d ame     -27.642  15.247  21.887  0.00  0.00     0.028 H 
ATOM     97  H25 non d ame     -28.625  16.003  23.163  0.00  0.00     0.028 H 
ATOM     98  H26 non d ame     -27.880  14.411  23.440  0.00  0.00     0.028 H 
ENDBRANCH  93  95
BRANCH  93  99
ATOM     99  C19 non d ame     -29.412  12.848  22.016  0.00  0.00    -0.073 C 
ATOM    100  H27 non d ame     -28.570  12.551  22.641  0.00  0.00     0.028 H 
ATOM    101  H28 non d ame     -30.312  12.331  22.350  0.00  0.00     0.028 H 
ATOM    102  H29 non d ame     -29.207  12.584  20.979  0.00  0.00     0.028 H 
ENDBRANCH  93  99
ENDBRANCH  90  93
ENDBRANCH   1  90
TORSDOF 26
ENDMDL
MODEL 4
REMARK VINA RESULT:      -7.1      2.915      9.084
REMARK  26 active torsions:
REMARK  status: ('A' for Active; 'I' for Inactive)
REMARK    1  A    between atoms: C2_2  and  C3_3 
REMARK    2  A    between atoms: C4_6  and  C5_7 
REMARK       I    between atoms: C5_7  and  N2_9 
REMARK    3  A    between atoms: N2_9  and  C6_10 
REMARK    4  A    between atoms: C6_10  and  C7_11 
REMARK    5  A    between atoms: C6_10  and  C8_13 
REMARK       I    between atoms: C7_11  and  N3_14 
REMARK    6  A    between atoms: N3_14  and  C9_15 
REMARK    7  A    between atoms: C9_15  and  C10_16 
REMARK    8  A    between atoms: C9_15  and  C11_18 
REMARK       I    between atoms: C10_16  and  N4_21 
REMARK    9  A    between atoms: C11_18  and  C12_19 
REMARK   10  A    between atoms: C11_18  and  C13_20 
REMARK   11  A    between atoms: N4_21  and  C14_22 
REMARK   12  A    between atoms: C14_22  and  C15_23 
REMARK   13  A    between atoms: C14_22  and  C16_25 
REMARK       I    between atoms: C15_23  and  N6_40 
REMARK   14  A    between atoms: C16_25  and  C17_26 
REMARK   15  A    between atoms: C17_26  and  C18_27 
REMARK   16  A    between atoms: C17_26  and  C19_28 
REMARK   17  A    between atoms: C20_29  and  C21_30 
REMARK   18  A    between atoms: C20_29  and  C24_33 
REMARK   19  A    between atoms: C20_29  and  N6_40 
REMARK   20  A    between atoms: C21_30  and  C22_31 
REMARK   21  A    between atoms: C22_31  and  C23_32 
REMARK   22  A    between atoms: C23_32  and  O8_43 
REMARK   23  A    between atoms: C24_33  and  C25_34 
REMARK   24  A    between atoms: C28_38  and  O6_39 
REMARK   25  A    between atoms: C29_42  and  O8_43 
REMARK   26  A    between atoms: C29_42  and  C35_49 
ROOT
ATOM      1  C14 non d ame     -30.827  14.249  23.934  0.00  0.00     0.089 C 
ATOM      2  H20 non d ame     -29.750  14.112  23.835  0.00  0.00     0.087 H 
ENDROOT
BRANCH   1   3
ATOM      3  N4  non d ame     -31.408  12.949  24.238  0.00  0.00    -0.346 N 
ATOM      4  C10 non d ame     -30.841  11.698  23.617  0.00  0.00     0.241 C 
ATOM      5  O4  non d ame     -29.919  11.762  22.873  0.00  0.00    -0.271 OA
ATOM      6  H19 non d ame     -32.193  12.917  24.873  0.00  0.00     0.163 HD
BRANCH   4   7
ATOM      7  C9  non d ame     -31.450  10.360  23.948  0.00  0.00     0.092 C 
ATOM      8  H11 non d ame     -30.892   9.904  24.766  0.00  0.00     0.088 H 
BRANCH   7   9
ATOM      9  N3  non d ame     -32.826  10.552  24.416  0.00  0.00    -0.346 N 
ATOM     10  C7  non d ame     -33.158  10.305  25.798  0.00  0.00     0.240 C 
ATOM     11  O3  non d ame     -32.331   9.951  26.546  0.00  0.00    -0.271 OA
ATOM     12  H10 non d ame     -33.551  10.857  23.782  0.00  0.00     0.163 HD
BRANCH  10  13
ATOM     13  C6  non d ame     -34.625  10.509  26.290  0.00  0.00     0.086 C 
ATOM     14  H6  non d ame     -34.681  11.041  27.239  0.00  0.00     0.086 H 
BRANCH  13  15
ATOM     15  N2  non d ame     -35.341  11.316  25.316  0.00  0.00    -0.343 N 
ATOM     16  C5  non d ame     -35.871  12.622  25.714  0.00  0.00     0.273 C 
ATOM     17  O2  non d ame     -35.720  13.012  26.819  0.00  0.00    -0.266 OA
ATOM     18  H5  non d ame     -35.468  10.974  24.374  0.00  0.00     0.163 HD
BRANCH  16  19
ATOM     19  C4  non d ame     -36.629  13.488  24.694  0.00  0.00     0.154 A 
ATOM     20  C1  non d ame     -37.416  13.033  23.589  0.00  0.00    -0.017 A 
ATOM     21  C2  non d ame     -37.892  14.211  22.972  0.00  0.00     0.077 A 
ATOM     22  H1  non d ame     -37.612  12.005  23.282  0.00  0.00     0.091 H 
ATOM     23  O1  non d ame     -37.427  15.219  23.652  0.00  0.00    -0.218 OA
ATOM     24  N1  non d ame     -36.688  14.822  24.661  0.00  0.00    -0.123 NA
BRANCH  21  25
ATOM     25  C3  non d ame     -38.784  14.287  21.740  0.00  0.00    -0.029 C 
ATOM     26  H2  non d ame     -38.281  13.812  20.898  0.00  0.00     0.036 H 
ATOM     27  H3  non d ame     -39.723  13.772  21.940  0.00  0.00     0.036 H 
ATOM     28  H4  non d ame     -38.985  15.331  21.501  0.00  0.00     0.036 H 
ENDBRANCH  21  25
ENDBRANCH  16  19
ENDBRANCH  13  15
BRANCH  13  29
ATOM     29  C8  non d ame     -35.297   9.168  26.442  0.00  0.00    -0.049 C 
ATOM     30  H7  non d ame     -35.382   8.922  27.501  0.00  0.00     0.030 H 
ATOM     31  H8  non d ame     -36.291   9.207  25.998  0.00  0.00     0.030 H 
ATOM     32  H9  non d ame     -34.703   8.404  25.939  0.00  0.00     0.030 H 
ENDBRANCH  13  29
ENDBRANCH  10  13
ENDBRANCH   7   9
BRANCH   7  33
ATOM     33  C11 non d ame     -31.459   9.465  22.674  0.00  0.00    -0.033 C 
ATOM     34  H12 non d ame     -31.239  10.106  21.820  0.00  0.00     0.042 H 
BRANCH  33  35
ATOM     35  C12 non d ame     -30.346   8.373  22.739  0.00  0.00    -0.071 C 
ATOM     36  H13 non d ame     -30.750   7.421  22.395  0.00  0.00     0.028 H 
ATOM     37  H14 non d ame     -29.512   8.666  22.102  0.00  0.00     0.028 H 
ATOM     38  H15 non d ame     -29.999   8.269  23.767  0.00  0.00     0.028 H 
ENDBRANCH  33  35
BRANCH  33  39
ATOM     39  C13 non d ame     -32.867   8.827  22.449  0.00  0.00    -0.071 C 
ATOM     40  H16 non d ame     -33.621   9.613  22.413  0.00  0.00     0.028 H 
ATOM     41  H17 non d ame     -32.870   8.276  21.508  0.00  0.00     0.028 H 
ATOM     42  H18 non d ame     -33.091   8.144  23.268  0.00  0.00     0.028 H 
ENDBRANCH  33  39
ENDBRANCH   7  33
ENDBRANCH   4   7
ENDBRANCH   1   3
BRANCH   1  43
ATOM     43  C15 non d ame     -31.191  15.234  25.081  0.00  0.00     0.240 C 
ATOM     44  O5  non d ame     -30.732  16.331  25.086  0.00  0.00    -0.271 OA
ATOM     45  N6  non d ame     -32.118  14.814  26.170  0.00  0.00    -0.355 N 
ATOM     46  H46 non d ame     -32.518  13.887  26.174  0.00  0.00     0.162 HD
BRANCH  45  47
ATOM     47  C20 non d ame     -32.455  15.764  27.253  0.00  0.00     0.013 C 
ATOM     48  H30 non d ame     -31.803  16.631  27.153  0.00  0.00     0.072 H 
BRANCH  47  49
ATOM     49  C21 non d ame     -32.227  15.097  28.591  0.00  0.00    -0.038 C 
ATOM     50  H31 non d ame     -31.146  14.994  28.688  0.00  0.00     0.036 H 
ATOM     51  H32 non d ame     -32.785  15.691  29.314  0.00  0.00     0.036 H 
BRANCH  49  52
ATOM     52  C22 non d ame     -32.809  13.668  28.656  0.00  0.00     0.018 C 
ATOM     53  H33 non d ame     -33.386  13.626  29.579  0.00  0.00     0.048 H 
ATOM     54  H34 non d ame     -33.303  13.507  27.697  0.00  0.00     0.048 H 
BRANCH  52  55
ATOM     55  C23 non d ame     -31.730  12.557  28.774  0.00  0.00     0.259 C 
ATOM     56  O7  non d ame     -30.834  12.501  27.996  0.00  0.00    -0.265 OA
BRANCH  55  57
ATOM     57  O8  non d ame     -31.831  11.596  29.819  0.00  0.00    -0.317 OA
BRANCH  57  58
ATOM     58  C29 non d ame     -32.693  11.990  30.890  0.00  0.00     0.052 C 
ATOM     59  H47 non d ame     -32.056  12.055  31.773  0.00  0.00     0.082 H 
ATOM     60  H48 non d ame     -33.222  12.873  30.534  0.00  0.00     0.082 H 
BRANCH  58  61
ATOM     61  C35 non d ame     -33.728  10.855  31.114  0.00  0.00    -0.034 A 
ATOM     62  C30 non d ame     -33.772   9.771  30.242  0.00  0.00    -0.075 A 
ATOM     63  C31 non d ame     -34.702   8.752  30.443  0.00  0.00    -0.082 A 
ATOM     64  H49 non d ame     -33.079   9.721  29.402  0.00  0.00     0.084 H 
ATOM     65  C32 non d ame     -35.591   8.820  31.518  0.00  0.00    -0.083 A 
ATOM     66  H50 non d ame     -34.733   7.903  29.759  0.00  0.00     0.083 H 
ATOM     67  C33 non d ame     -35.545   9.905  32.383  0.00  0.00    -0.082 A 
ATOM     68  H51 non d ame     -36.321   8.027  31.683  0.00  0.00     0.083 H 
ATOM     69  C34 non d ame     -34.616  10.925  32.188  0.00  0.00    -0.075 A 
ATOM     70  H52 non d ame     -36.242   9.957  33.220  0.00  0.00     0.083 H 
ATOM     71  H53 non d ame     -34.586  11.774  32.872  0.00  0.00     0.084 H 
ENDBRANCH  58  61
ENDBRANCH  57  58
ENDBRANCH  55  57
ENDBRANCH  52  55
ENDBRANCH  49  52
ENDBRANCH  47  49
BRANCH  47  72
ATOM     72  C24 non d ame     -33.919  16.183  27.135  0.00  0.00    -0.039 C 
ATOM     73  H35 non d ame     -34.330  15.577  26.327  0.00  0.00     0.036 H 
ATOM     74  H36 non d ame     -34.327  16.097  28.142  0.00  0.00     0.036 H 
BRANCH  72  75
ATOM     75  C25 non d ame     -34.062  17.717  26.696  0.00  0.00    -0.001 C 
ATOM     76  C26 non d ame     -32.584  18.438  26.688  0.00  0.00    -0.035 C 
ATOM     77  C27 non d ame     -32.652  19.581  27.412  0.00  0.00     0.085 C 
ATOM     78  H38 non d ame     -31.869  17.829  27.240  0.00  0.00     0.036 H 
ATOM     79  H39 non d ame     -32.343  18.786  25.684  0.00  0.00     0.036 H 
ATOM     80  N5  non d ame     -33.950  19.539  28.182  0.00  0.00    -0.049 N 
ATOM     81  H40 non d ame     -31.820  19.531  28.113  0.00  0.00     0.075 H 
ATOM     82  H41 non d ame     -32.700  20.386  26.679  0.00  0.00     0.075 H 
ATOM     83  C28 non d ame     -34.830  18.366  27.507  0.00  0.00     0.193 C 
ATOM     84  H42 non d ame     -33.714  19.263  29.125  0.00  0.00     0.280 HD
ATOM     85  H43 non d ame     -34.409  20.423  28.015  0.00  0.00     0.280 HD
ATOM     86  H44 non d ame     -35.660  18.608  26.843  0.00  0.00     0.129 H 
ATOM     87  H37 non d ame     -34.676  17.835  25.803  0.00  0.00     0.046 H 
BRANCH  83  88
ATOM     88  O6  non d ame     -35.383  17.521  28.518  0.00  0.00    -0.369 OA
ATOM     89  H45 non d ame     -34.753  17.428  29.237  0.00  0.00     0.212 HD
ENDBRANCH  83  88
ENDBRANCH  72  75
ENDBRANCH  47  72
ENDBRANCH  45  47
ENDBRANCH   1  43
BRANCH   1  90
ATOM     90  C16 non d ame     -31.406  14.755  22.623  0.00  0.00    -0.035 C 
ATOM     91  H21 non d ame     -31.671  13.861  22.060  0.00  0.00     0.037 H 
ATOM     92  H22 non d ame     -32.178  15.471  22.905  0.00  0.00     0.037 H 
BRANCH  90  93
ATOM     93  C17 non d ame     -30.377  15.538  21.745  0.00  0.00    -0.059 C 
ATOM     94  H23 non d ame     -30.533  16.602  21.924  0.00  0.00     0.038 H 
BRANCH  93  95
ATOM     95  C18 non d ame     -28.900  15.202  22.127  0.00  0.00    -0.073 C 
ATOM     96  H24 non d ame     -28.696  15.556  23.137  0.00  0.00     0.028 H 
ATOM     97  H25 non d ame     -28.750  14.124  22.084  0.00  0.00     0.028 H 
ATOM     98  H26 non d ame     -28.224  15.691  21.427  0.00  0.00     0.028 H 
ENDBRANCH  93  95
BRANCH  93  99
ATOM     99  C19 non d ame     -30.626  15.286  20.256  0.00  0.00    -0.073 C 
ATOM    100  H27 non d ame     -30.511  16.220  19.705  0.00  0.00     0.028 H 
ATOM    101  H28 non d ame     -29.907  14.556  19.886  0.00  0.00     0.028 H 
ATOM    102  H29 non d ame     -31.636  14.904  20.116  0.00  0.00     0.028 H 
ENDBRANCH  93  99
ENDBRANCH  90  93
ENDBRANCH   1  90
TORSDOF 26
ENDMDL
MODEL 5
REMARK VINA RESULT:      -7.0      2.612      9.392
REMARK  26 active torsions:
REMARK  status: ('A' for Active; 'I' for Inactive)
REMARK    1  A    between atoms: C2_2  and  C3_3 
REMARK    2  A    between atoms: C4_6  and  C5_7 
REMARK       I    between atoms: C5_7  and  N2_9 
REMARK    3  A    between atoms: N2_9  and  C6_10 
REMARK    4  A    between atoms: C6_10  and  C7_11 
REMARK    5  A    between atoms: C6_10  and  C8_13 
REMARK       I    between atoms: C7_11  and  N3_14 
REMARK    6  A    between atoms: N3_14  and  C9_15 
REMARK    7  A    between atoms: C9_15  and  C10_16 
REMARK    8  A    between atoms: C9_15  and  C11_18 
REMARK       I    between atoms: C10_16  and  N4_21 
REMARK    9  A    between atoms: C11_18  and  C12_19 
REMARK   10  A    between atoms: C11_18  and  C13_20 
REMARK   11  A    between atoms: N4_21  and  C14_22 
REMARK   12  A    between atoms: C14_22  and  C15_23 
REMARK   13  A    between atoms: C14_22  and  C16_25 
REMARK       I    between atoms: C15_23  and  N6_40 
REMARK   14  A    between atoms: C16_25  and  C17_26 
REMARK   15  A    between atoms: C17_26  and  C18_27 
REMARK   16  A    between atoms: C17_26  and  C19_28 
REMARK   17  A    between atoms: C20_29  and  C21_30 
REMARK   18  A    between atoms: C20_29  and  C24_33 
REMARK   19  A    between atoms: C20_29  and  N6_40 
REMARK   20  A    between atoms: C21_30  and  C22_31 
REMARK   21  A    between atoms: C22_31  and  C23_32 
REMARK   22  A    between atoms: C23_32  and  O8_43 
REMARK   23  A    between atoms: C24_33  and  C25_34 
REMARK   24  A    between atoms: C28_38  and  O6_39 
REMARK   25  A    between atoms: C29_42  and  O8_43 
REMARK   26  A    between atoms: C29_42  and  C35_49 
ROOT
ATOM      1  C14 non d ame     -31.060  14.604  23.844  0.00  0.00     0.089 C 
ATOM      2  H20 non d ame     -29.998  14.789  24.003  0.00  0.00     0.087 H 
ENDROOT
BRANCH   1   3
ATOM      3  N4  non d ame     -31.315  13.207  24.165  0.00  0.00    -0.346 N 
ATOM      4  C10 non d ame     -30.579  12.112  23.436  0.00  0.00     0.241 C 
ATOM      5  O4  non d ame     -29.788  12.378  22.592  0.00  0.00    -0.271 OA
ATOM      6  H19 non d ame     -31.994  13.001  24.884  0.00  0.00     0.163 HD
BRANCH   4   7
ATOM      7  C9  non d ame     -30.851  10.672  23.785  0.00  0.00     0.092 C 
ATOM      8  H11 non d ame     -30.166  10.358  24.573  0.00  0.00     0.088 H 
BRANCH   7   9
ATOM      9  N3  non d ame     -32.211  10.546  24.318  0.00  0.00    -0.346 N 
ATOM     10  C7  non d ame     -32.435  10.603  25.741  0.00  0.00     0.240 C 
ATOM     11  O3  non d ame     -31.532  10.748  26.472  0.00  0.00    -0.271 OA
ATOM     12  H10 non d ame     -32.999  10.419  23.699  0.00  0.00     0.163 HD
BRANCH  10  13
ATOM     13  C6  non d ame     -33.884  10.466  26.303  0.00  0.00     0.086 C 
ATOM     14  H6  non d ame     -34.527   9.858  25.666  0.00  0.00     0.086 H 
BRANCH  13  15
ATOM     15  N2  non d ame     -33.828   9.801  27.594  0.00  0.00    -0.343 N 
ATOM     16  C5  non d ame     -34.912   8.898  27.988  0.00  0.00     0.273 C 
ATOM     17  O2  non d ame     -35.826   8.716  27.260  0.00  0.00    -0.266 OA
ATOM     18  H5  non d ame     -33.045   9.964  28.211  0.00  0.00     0.163 HD
BRANCH  16  19
ATOM     19  C4  non d ame     -34.866   8.187  29.349  0.00  0.00     0.154 A 
ATOM     20  C1  non d ame     -35.034   6.788  29.601  0.00  0.00    -0.017 A 
ATOM     21  C2  non d ame     -34.903   6.652  31.001  0.00  0.00     0.077 A 
ATOM     22  H1  non d ame     -35.223   5.994  28.878  0.00  0.00     0.091 H 
ATOM     23  O1  non d ame     -34.684   7.839  31.486  0.00  0.00    -0.218 OA
ATOM     24  N1  non d ame     -34.658   8.751  30.542  0.00  0.00    -0.123 NA
BRANCH  21  25
ATOM     25  C3  non d ame     -34.999   5.356  31.793  0.00  0.00    -0.029 C 
ATOM     26  H2  non d ame     -35.521   5.541  32.732  0.00  0.00     0.036 H 
ATOM     27  H3  non d ame     -35.549   4.615  31.213  0.00  0.00     0.036 H 
ATOM     28  H4  non d ame     -33.997   4.982  32.002  0.00  0.00     0.036 H 
ENDBRANCH  21  25
ENDBRANCH  16  19
ENDBRANCH  13  15
BRANCH  13  29
ATOM     29  C8  non d ame     -34.500  11.834  26.452  0.00  0.00    -0.049 C 
ATOM     30  H7  non d ame     -35.026  11.893  27.405  0.00  0.00     0.030 H 
ATOM     31  H8  non d ame     -33.716  12.590  26.423  0.00  0.00     0.030 H 
ATOM     32  H9  non d ame     -35.203  12.007  25.637  0.00  0.00     0.030 H 
ENDBRANCH  13  29
ENDBRANCH  10  13
ENDBRANCH   7   9
BRANCH   7  33
ATOM     33  C11 non d ame     -30.714   9.794  22.507  0.00  0.00    -0.033 C 
ATOM     34  H12 non d ame     -30.702  10.464  21.647  0.00  0.00     0.042 H 
BRANCH  33  35
ATOM     35  C12 non d ame     -29.370   9.001  22.502  0.00  0.00    -0.071 C 
ATOM     36  H13 non d ame     -29.579   7.931  22.518  0.00  0.00     0.028 H 
ATOM     37  H14 non d ame     -28.806   9.249  21.603  0.00  0.00     0.028 H 
ATOM     38  H15 non d ame     -28.787   9.270  23.383  0.00  0.00     0.028 H 
ENDBRANCH  33  35
BRANCH  33  39
ATOM     39  C13 non d ame     -31.938   8.834  22.354  0.00  0.00    -0.071 C 
ATOM     40  H16 non d ame     -31.656   7.831  22.675  0.00  0.00     0.028 H 
ATOM     41  H17 non d ame     -32.762   9.195  22.970  0.00  0.00     0.028 H 
ATOM     42  H18 non d ame     -32.251   8.807  21.310  0.00  0.00     0.028 H 
ENDBRANCH  33  39
ENDBRANCH   7  33
ENDBRANCH   4   7
ENDBRANCH   1   3
BRANCH   1  43
ATOM     43  C15 non d ame     -31.955  15.492  24.755  0.00  0.00     0.240 C 
ATOM     44  O5  non d ame     -32.694  16.285  24.266  0.00  0.00    -0.271 OA
ATOM     45  N6  non d ame     -31.896  15.350  26.238  0.00  0.00    -0.355 N 
ATOM     46  H46 non d ame     -31.275  14.677  26.664  0.00  0.00     0.162 HD
BRANCH  45  47
ATOM     47  C20 non d ame     -32.753  16.201  27.090  0.00  0.00     0.013 C 
ATOM     48  H30 non d ame     -33.755  16.204  26.662  0.00  0.00     0.072 H 
BRANCH  47  49
ATOM     49  C21 non d ame     -32.197  17.607  27.112  0.00  0.00    -0.038 C 
ATOM     50  H31 non d ame     -32.035  17.844  28.164  0.00  0.00     0.036 H 
ATOM     51  H32 non d ame     -31.357  17.602  26.418  0.00  0.00     0.036 H 
BRANCH  49  52
ATOM     52  C22 non d ame     -33.198  18.655  26.578  0.00  0.00     0.018 C 
ATOM     53  H33 non d ame     -32.704  19.620  26.693  0.00  0.00     0.048 H 
ATOM     54  H34 non d ame     -33.490  18.307  25.587  0.00  0.00     0.048 H 
BRANCH  52  55
ATOM     55  C23 non d ame     -34.511  18.746  27.404  0.00  0.00     0.259 C 
ATOM     56  O7  non d ame     -34.537  19.341  28.432  0.00  0.00    -0.265 OA
BRANCH  55  57
ATOM     57  O8  non d ame     -35.682  18.096  26.925  0.00  0.00    -0.317 OA
BRANCH  57  58
ATOM     58  C29 non d ame     -35.972  18.361  25.549  0.00  0.00     0.052 C 
ATOM     59  H47 non d ame     -36.776  19.098  25.554  0.00  0.00     0.082 H 
ATOM     60  H48 non d ame     -35.015  18.602  25.087  0.00  0.00     0.082 H 
BRANCH  58  61
ATOM     61  C35 non d ame     -36.509  17.052  24.912  0.00  0.00    -0.034 A 
ATOM     62  C30 non d ame     -37.593  17.094  24.041  0.00  0.00    -0.075 A 
ATOM     63  C31 non d ame     -38.076  15.918  23.469  0.00  0.00    -0.082 A 
ATOM     64  H49 non d ame     -38.065  18.049  23.807  0.00  0.00     0.084 H 
ATOM     65  C32 non d ame     -37.472  14.695  23.773  0.00  0.00    -0.083 A 
ATOM     66  H50 non d ame     -38.925  15.955  22.786  0.00  0.00     0.083 H 
ATOM     67  C33 non d ame     -36.393  14.657  24.646  0.00  0.00    -0.082 A 
ATOM     68  H51 non d ame     -37.843  13.771  23.330  0.00  0.00     0.083 H 
ATOM     69  C34 non d ame     -35.906  15.831  25.218  0.00  0.00    -0.075 A 
ATOM     70  H52 non d ame     -35.925  13.701  24.883  0.00  0.00     0.083 H 
ATOM     71  H53 non d ame     -35.057  15.793  25.902  0.00  0.00     0.084 H 
ENDBRANCH  58  61
ENDBRANCH  57  58
ENDBRANCH  55  57
ENDBRANCH  52  55
ENDBRANCH  49  52
ENDBRANCH  47  49
BRANCH  47  72
ATOM     72  C24 non d ame     -32.785  15.643  28.512  0.00  0.00    -0.039 C 
ATOM     73  H35 non d ame     -32.676  16.509  29.166  0.00  0.00     0.036 H 
ATOM     74  H36 non d ame     -33.685  15.031  28.563  0.00  0.00     0.036 H 
BRANCH  72  75
ATOM     75  C25 non d ame     -31.539  14.677  28.797  0.00  0.00    -0.001 C 
ATOM     76  C26 non d ame     -32.068  13.138  29.037  0.00  0.00    -0.035 C 
ATOM     77  C27 non d ame     -31.536  12.669  30.191  0.00  0.00     0.085 C 
ATOM     78  H38 non d ame     -33.140  13.138  29.232  0.00  0.00     0.036 H 
ATOM     79  H39 non d ame     -31.652  12.477  28.277  0.00  0.00     0.036 H 
ATOM     80  N5  non d ame     -30.958  13.855  30.925  0.00  0.00    -0.049 N 
ATOM     81  H40 non d ame     -32.377  12.274  30.760  0.00  0.00     0.075 H 
ATOM     82  H41 non d ame     -30.724  12.008  29.889  0.00  0.00     0.075 H 
ATOM     83  C28 non d ame     -30.886  15.053  29.845  0.00  0.00     0.193 C 
ATOM     84  H42 non d ame     -31.627  14.104  31.638  0.00  0.00     0.280 HD
ATOM     85  H43 non d ame     -30.015  13.598  31.184  0.00  0.00     0.280 HD
ATOM     86  H44 non d ame     -29.935  15.336  29.394  0.00  0.00     0.129 H 
ATOM     87  H37 non d ame     -30.734  14.817  28.076  0.00  0.00     0.046 H 
BRANCH  83  88
ATOM     88  O6  non d ame     -31.415  16.255  30.407  0.00  0.00    -0.369 OA
ATOM     89  H45 non d ame     -31.981  16.038  31.152  0.00  0.00     0.212 HD
ENDBRANCH  83  88
ENDBRANCH  72  75
ENDBRANCH  47  72
ENDBRANCH  45  47
ENDBRANCH   1  43
BRANCH   1  90
ATOM     90  C16 non d ame     -31.413  14.850  22.385  0.00  0.00    -0.035 C 
ATOM     91  H21 non d ame     -31.352  13.874  21.905  0.00  0.00     0.037 H 
ATOM     92  H22 non d ame     -32.360  15.390  22.404  0.00  0.00     0.037 H 
BRANCH  90  93
ATOM     93  C17 non d ame     -30.394  15.771  21.642  0.00  0.00    -0.059 C 
ATOM     94  H23 non d ame     -30.629  16.803  21.904  0.00  0.00     0.038 H 
BRANCH  93  95
ATOM     95  C18 non d ame     -28.920  15.493  22.077  0.00  0.00    -0.073 C 
ATOM     96  H24 non d ame     -28.746  15.919  23.065  0.00  0.00     0.028 H 
ATOM     97  H25 non d ame     -28.748  14.417  22.112  0.00  0.00     0.028 H 
ATOM     98  H26 non d ame     -28.237  15.947  21.360  0.00  0.00     0.028 H 
ENDBRANCH  93  95
BRANCH  93  99
ATOM     99  C19 non d ame     -30.547  15.642  20.124  0.00  0.00    -0.073 C 
ATOM    100  H27 non d ame     -30.893  14.637  19.878  0.00  0.00     0.028 H 
ATOM    101  H28 non d ame     -31.273  16.373  19.768  0.00  0.00     0.028 H 
ATOM    102  H29 non d ame     -29.585  15.823  19.645  0.00  0.00     0.028 H 
ENDBRANCH  93  99
ENDBRANCH  90  93
ENDBRANCH   1  90
TORSDOF 26
ENDMDL
MODEL 6
REMARK VINA RESULT:      -6.9      2.417      6.306
REMARK  26 active torsions:
REMARK  status: ('A' for Active; 'I' for Inactive)
REMARK    1  A    between atoms: C2_2  and  C3_3 
REMARK    2  A    between atoms: C4_6  and  C5_7 
REMARK       I    between atoms: C5_7  and  N2_9 
REMARK    3  A    between atoms: N2_9  and  C6_10 
REMARK    4  A    between atoms: C6_10  and  C7_11 
REMARK    5  A    between atoms: C6_10  and  C8_13 
REMARK       I    between atoms: C7_11  and  N3_14 
REMARK    6  A    between atoms: N3_14  and  C9_15 
REMARK    7  A    between atoms: C9_15  and  C10_16 
REMARK    8  A    between atoms: C9_15  and  C11_18 
REMARK       I    between atoms: C10_16  and  N4_21 
REMARK    9  A    between atoms: C11_18  and  C12_19 
REMARK   10  A    between atoms: C11_18  and  C13_20 
REMARK   11  A    between atoms: N4_21  and  C14_22 
REMARK   12  A    between atoms: C14_22  and  C15_23 
REMARK   13  A    between atoms: C14_22  and  C16_25 
REMARK       I    between atoms: C15_23  and  N6_40 
REMARK   14  A    between atoms: C16_25  and  C17_26 
REMARK   15  A    between atoms: C17_26  and  C18_27 
REMARK   16  A    between atoms: C17_26  and  C19_28 
REMARK   17  A    between atoms: C20_29  and  C21_30 
REMARK   18  A    between atoms: C20_29  and  C24_33 
REMARK   19  A    between atoms: C20_29  and  N6_40 
REMARK   20  A    between atoms: C21_30  and  C22_31 
REMARK   21  A    between atoms: C22_31  and  C23_32 
REMARK   22  A    between atoms: C23_32  and  O8_43 
REMARK   23  A    between atoms: C24_33  and  C25_34 
REMARK   24  A    between atoms: C28_38  and  O6_39 
REMARK   25  A    between atoms: C29_42  and  O8_43 
REMARK   26  A    between atoms: C29_42  and  C35_49 
ROOT
ATOM      1  C14 non d ame     -35.290   8.967  27.068  0.00  0.00     0.089 C 
ATOM      2  H20 non d ame     -35.376   8.327  27.946  0.00  0.00     0.087 H 
ENDROOT
BRANCH   1   3
ATOM      3  N4  non d ame     -34.246   9.944  27.337  0.00  0.00    -0.346 N 
ATOM      4  C10 non d ame     -33.436   9.864  28.607  0.00  0.00     0.241 C 
ATOM      5  O4  non d ame     -33.646   9.005  29.398  0.00  0.00    -0.271 OA
ATOM      6  H19 non d ame     -34.085  10.669  26.652  0.00  0.00     0.163 HD
BRANCH   4   7
ATOM      7  C9  non d ame     -32.356  10.880  28.867  0.00  0.00     0.092 C 
ATOM      8  H11 non d ame     -31.430  10.548  28.396  0.00  0.00     0.088 H 
BRANCH   7   9
ATOM      9  N3  non d ame     -32.724  12.156  28.245  0.00  0.00    -0.346 N 
ATOM     10  C7  non d ame     -31.897  12.716  27.206  0.00  0.00     0.240 C 
ATOM     11  O3  non d ame     -30.930  12.155  26.858  0.00  0.00    -0.271 OA
ATOM     12  H10 non d ame     -33.555  12.652  28.536  0.00  0.00     0.163 HD
BRANCH  10  13
ATOM     13  C6  non d ame     -32.292  14.076  26.550  0.00  0.00     0.086 C 
ATOM     14  H6  non d ame     -31.887  14.935  27.084  0.00  0.00     0.086 H 
BRANCH  13  15
ATOM     15  N2  non d ame     -31.747  14.127  25.204  0.00  0.00    -0.343 N 
ATOM     16  C5  non d ame     -31.154  15.373  24.712  0.00  0.00     0.273 C 
ATOM     17  O2  non d ame     -31.124  16.329  25.407  0.00  0.00    -0.266 OA
ATOM     18  H5  non d ame     -31.779  13.306  24.617  0.00  0.00     0.163 HD
BRANCH  16  19
ATOM     19  C4  non d ame     -30.572  15.440  23.292  0.00  0.00     0.154 A 
ATOM     20  C1  non d ame     -31.295  15.616  22.069  0.00  0.00    -0.017 A 
ATOM     21  C2  non d ame     -30.306  15.610  21.059  0.00  0.00     0.077 A 
ATOM     22  H1  non d ame     -32.370  15.731  21.935  0.00  0.00     0.091 H 
ATOM     23  O1  non d ame     -29.156  15.450  21.644  0.00  0.00    -0.218 OA
ATOM     24  N1  non d ame     -29.285  15.348  22.947  0.00  0.00    -0.123 NA
BRANCH  21  25
ATOM     25  C3  non d ame     -30.546  15.763  19.563  0.00  0.00    -0.029 C 
ATOM     26  H2  non d ame     -31.568  16.098  19.391  0.00  0.00     0.036 H 
ATOM     27  H3  non d ame     -29.849  16.496  19.157  0.00  0.00     0.036 H 
ATOM     28  H4  non d ame     -30.390  14.803  19.070  0.00  0.00     0.036 H 
ENDBRANCH  21  25
ENDBRANCH  16  19
ENDBRANCH  13  15
BRANCH  13  29
ATOM     29  C8  non d ame     -33.794  14.196  26.504  0.00  0.00    -0.049 C 
ATOM     30  H7  non d ame     -34.107  14.450  25.491  0.00  0.00     0.030 H 
ATOM     31  H8  non d ame     -34.244  13.247  26.795  0.00  0.00     0.030 H 
ATOM     32  H9  non d ame     -34.118  14.978  27.191  0.00  0.00     0.030 H 
ENDBRANCH  13  29
ENDBRANCH  10  13
ENDBRANCH   7   9
BRANCH   7  33
ATOM     33  C11 non d ame     -32.192  11.082  30.402  0.00  0.00    -0.033 C 
ATOM     34  H12 non d ame     -32.038  10.100  30.848  0.00  0.00     0.042 H 
BRANCH  33  35
ATOM     35  C12 non d ame     -30.937  11.949  30.730  0.00  0.00    -0.071 C 
ATOM     36  H13 non d ame     -31.086  12.458  31.682  0.00  0.00     0.028 H 
ATOM     37  H14 non d ame     -30.059  11.306  30.795  0.00  0.00     0.028 H 
ATOM     38  H15 non d ame     -30.789  12.688  29.943  0.00  0.00     0.028 H 
ENDBRANCH  33  35
BRANCH  33  39
ATOM     39  C13 non d ame     -33.485  11.699  31.025  0.00  0.00    -0.071 C 
ATOM     40  H16 non d ame     -34.290  10.965  30.992  0.00  0.00     0.028 H 
ATOM     41  H17 non d ame     -33.291  11.979  32.061  0.00  0.00     0.028 H 
ATOM     42  H18 non d ame     -33.775  12.584  30.459  0.00  0.00     0.028 H 
ENDBRANCH  33  39
ENDBRANCH   7  33
ENDBRANCH   4   7
ENDBRANCH   1   3
BRANCH   1  43
ATOM     43  C15 non d ame     -34.901   8.165  25.793  0.00  0.00     0.240 C 
ATOM     44  O5  non d ame     -35.677   7.402  25.315  0.00  0.00    -0.271 OA
ATOM     45  N6  non d ame     -33.564   8.355  25.162  0.00  0.00    -0.355 N 
ATOM     46  H46 non d ame     -32.898   9.004  25.556  0.00  0.00     0.162 HD
BRANCH  45  47
ATOM     47  C20 non d ame     -33.210   7.586  23.950  0.00  0.00     0.013 C 
ATOM     48  H30 non d ame     -34.122   7.133  23.561  0.00  0.00     0.072 H 
BRANCH  47  49
ATOM     49  C21 non d ame     -32.213   6.509  24.314  0.00  0.00    -0.038 C 
ATOM     50  H31 non d ame     -32.691   5.564  24.054  0.00  0.00     0.036 H 
ATOM     51  H32 non d ame     -31.278   6.798  23.833  0.00  0.00     0.036 H 
BRANCH  49  52
ATOM     52  C22 non d ame     -31.924   6.448  25.830  0.00  0.00     0.018 C 
ATOM     53  H33 non d ame     -30.849   6.296  25.919  0.00  0.00     0.048 H 
ATOM     54  H34 non d ame     -32.385   7.341  26.254  0.00  0.00     0.048 H 
BRANCH  52  55
ATOM     55  C23 non d ame     -32.588   5.240  26.547  0.00  0.00     0.259 C 
ATOM     56  O7  non d ame     -33.262   4.474  25.938  0.00  0.00    -0.265 OA
BRANCH  55  57
ATOM     57  O8  non d ame     -32.393   5.066  27.945  0.00  0.00    -0.317 OA
BRANCH  57  58
ATOM     58  C29 non d ame     -33.298   4.137  28.548  0.00  0.00     0.052 C 
ATOM     59  H47 non d ame     -33.852   3.688  27.724  0.00  0.00     0.082 H 
ATOM     60  H48 non d ame     -32.688   3.512  29.200  0.00  0.00     0.082 H 
BRANCH  58  61
ATOM     61  C35 non d ame     -34.292   4.940  29.429  0.00  0.00    -0.034 A 
ATOM     62  C30 non d ame     -34.126   4.978  30.810  0.00  0.00    -0.075 A 
ATOM     63  C31 non d ame     -35.019   5.698  31.601  0.00  0.00    -0.082 A 
ATOM     64  H49 non d ame     -33.297   4.442  31.272  0.00  0.00     0.084 H 
ATOM     65  C32 non d ame     -36.084   6.382  31.007  0.00  0.00    -0.083 A 
ATOM     66  H50 non d ame     -34.886   5.727  32.683  0.00  0.00     0.083 H 
ATOM     67  C33 non d ame     -36.247   6.339  29.629  0.00  0.00    -0.082 A 
ATOM     68  H51 non d ame     -36.786   6.948  31.618  0.00  0.00     0.083 H 
ATOM     69  C34 non d ame     -35.356   5.621  28.834  0.00  0.00    -0.075 A 
ATOM     70  H52 non d ame     -37.080   6.871  29.168  0.00  0.00     0.083 H 
ATOM     71  H53 non d ame     -35.490   5.593  27.752  0.00  0.00     0.084 H 
ENDBRANCH  58  61
ENDBRANCH  57  58
ENDBRANCH  55  57
ENDBRANCH  52  55
ENDBRANCH  49  52
ENDBRANCH  47  49
BRANCH  47  72
ATOM     72  C24 non d ame     -32.594   8.518  22.908  0.00  0.00    -0.039 C 
ATOM     73  H35 non d ame     -32.436   7.901  22.024  0.00  0.00     0.036 H 
ATOM     74  H36 non d ame     -33.261   9.379  22.859  0.00  0.00     0.036 H 
BRANCH  72  75
ATOM     75  C25 non d ame     -31.159   9.058  23.370  0.00  0.00    -0.001 C 
ATOM     76  C26 non d ame     -31.243  10.669  23.692  0.00  0.00    -0.035 C 
ATOM     77  C27 non d ame     -30.256  11.301  23.013  0.00  0.00     0.085 C 
ATOM     78  H38 non d ame     -32.154  11.088  23.265  0.00  0.00     0.036 H 
ATOM     79  H39 non d ame     -30.995  10.856  24.736  0.00  0.00     0.036 H 
ATOM     80  N5  non d ame     -29.712  10.318  22.006  0.00  0.00    -0.049 N 
ATOM     81  H40 non d ame     -30.745  12.119  22.484  0.00  0.00     0.075 H 
ATOM     82  H41 non d ame     -29.485  11.515  23.753  0.00  0.00     0.075 H 
ATOM     83  C28 non d ame     -30.271   8.870  22.452  0.00  0.00     0.193 C 
ATOM     84  H42 non d ame     -30.125  10.561  21.117  0.00  0.00     0.280 HD
ATOM     85  H43 non d ame     -28.708  10.323  22.115  0.00  0.00     0.280 HD
ATOM     86  H44 non d ame     -29.617   8.155  22.952  0.00  0.00     0.129 H 
ATOM     87  H37 non d ame     -30.705   8.424  24.132  0.00  0.00     0.046 H 
BRANCH  83  88
ATOM     88  O6  non d ame     -30.802   8.177  21.322  0.00  0.00    -0.369 OA
ATOM     89  H45 non d ame     -30.111   7.648  20.916  0.00  0.00     0.212 HD
ENDBRANCH  83  88
ENDBRANCH  72  75
ENDBRANCH  47  72
ENDBRANCH  45  47
ENDBRANCH   1  43
BRANCH   1  90
ATOM     90  C16 non d ame     -36.603   9.696  26.832  0.00  0.00    -0.035 C 
ATOM     91  H21 non d ame     -36.355  10.757  26.865  0.00  0.00     0.037 H 
ATOM     92  H22 non d ame     -37.015   9.262  25.921  0.00  0.00     0.037 H 
BRANCH  90  93
ATOM     93  C17 non d ame     -37.663   9.457  27.954  0.00  0.00    -0.059 C 
ATOM     94  H23 non d ame     -37.810   8.381  28.046  0.00  0.00     0.038 H 
BRANCH  93  95
ATOM     95  C18 non d ame     -37.184   9.993  29.341  0.00  0.00    -0.073 C 
ATOM     96  H24 non d ame     -36.295  10.609  29.206  0.00  0.00     0.028 H 
ATOM     97  H25 non d ame     -37.975  10.591  29.793  0.00  0.00     0.028 H 
ATOM     98  H26 non d ame     -36.947   9.152  29.993  0.00  0.00     0.028 H 
ENDBRANCH  93  95
BRANCH  93  99
ATOM     99  C19 non d ame     -39.013  10.069  27.571  0.00  0.00    -0.073 C 
ATOM    100  H27 non d ame     -39.809   9.567  28.120  0.00  0.00     0.028 H 
ATOM    101  H28 non d ame     -39.014  11.131  27.819  0.00  0.00     0.028 H 
ATOM    102  H29 non d ame     -39.176   9.947  26.500  0.00  0.00     0.028 H 
ENDBRANCH  93  99
ENDBRANCH  90  93
ENDBRANCH   1  90
TORSDOF 26
ENDMDL
MODEL 7
REMARK VINA RESULT:      -6.8      2.749      7.879
REMARK  26 active torsions:
REMARK  status: ('A' for Active; 'I' for Inactive)
REMARK    1  A    between atoms: C2_2  and  C3_3 
REMARK    2  A    between atoms: C4_6  and  C5_7 
REMARK       I    between atoms: C5_7  and  N2_9 
REMARK    3  A    between atoms: N2_9  and  C6_10 
REMARK    4  A    between atoms: C6_10  and  C7_11 
REMARK    5  A    between atoms: C6_10  and  C8_13 
REMARK       I    between atoms: C7_11  and  N3_14 
REMARK    6  A    between atoms: N3_14  and  C9_15 
REMARK    7  A    between atoms: C9_15  and  C10_16 
REMARK    8  A    between atoms: C9_15  and  C11_18 
REMARK       I    between atoms: C10_16  and  N4_21 
REMARK    9  A    between atoms: C11_18  and  C12_19 
REMARK   10  A    between atoms: C11_18  and  C13_20 
REMARK   11  A    between atoms: N4_21  and  C14_22 
REMARK   12  A    between atoms: C14_22  and  C15_23 
REMARK   13  A    between atoms: C14_22  and  C16_25 
REMARK       I    between atoms: C15_23  and  N6_40 
REMARK   14  A    between atoms: C16_25  and  C17_26 
REMARK   15  A    between atoms: C17_26  and  C18_27 
REMARK   16  A    between atoms: C17_26  and  C19_28 
REMARK   17  A    between atoms: C20_29  and  C21_30 
REMARK   18  A    between atoms: C20_29  and  C24_33 
REMARK   19  A    between atoms: C20_29  and  N6_40 
REMARK   20  A    between atoms: C21_30  and  C22_31 
REMARK   21  A    between atoms: C22_31  and  C23_32 
REMARK   22  A    between atoms: C23_32  and  O8_43 
REMARK   23  A    between atoms: C24_33  and  C25_34 
REMARK   24  A    between atoms: C28_38  and  O6_39 
REMARK   25  A    between atoms: C29_42  and  O8_43 
REMARK   26  A    between atoms: C29_42  and  C35_49 
ROOT
ATOM      1  C14 non d ame     -32.991  10.387  25.757  0.00  0.00     0.089 C 
ATOM      2  H20 non d ame     -33.710  10.483  24.943  0.00  0.00     0.087 H 
ENDROOT
BRANCH   1   3
ATOM      3  N4  non d ame     -32.412   9.054  25.676  0.00  0.00    -0.346 N 
ATOM      4  C10 non d ame     -33.115   7.964  24.906  0.00  0.00     0.241 C 
ATOM      5  O4  non d ame     -34.147   8.184  24.361  0.00  0.00    -0.271 OA
ATOM      6  H19 non d ame     -31.535   8.887  26.148  0.00  0.00     0.163 HD
BRANCH   4   7
ATOM      7  C9  non d ame     -32.499   6.592  24.828  0.00  0.00     0.092 C 
ATOM      8  H11 non d ame     -31.442   6.659  25.084  0.00  0.00     0.088 H 
BRANCH   7   9
ATOM      9  N3  non d ame     -33.131   5.715  25.818  0.00  0.00    -0.346 N 
ATOM     10  C7  non d ame     -32.749   5.804  27.206  0.00  0.00     0.240 C 
ATOM     11  O3  non d ame     -31.935   6.574  27.543  0.00  0.00    -0.271 OA
ATOM     12  H10 non d ame     -33.834   5.045  25.542  0.00  0.00     0.163 HD
BRANCH  10  13
ATOM     13  C6  non d ame     -33.423   4.866  28.255  0.00  0.00     0.086 C 
ATOM     14  H6  non d ame     -32.806   4.710  29.140  0.00  0.00     0.086 H 
BRANCH  13  15
ATOM     15  N2  non d ame     -34.658   5.482  28.714  0.00  0.00    -0.343 N 
ATOM     16  C5  non d ame     -34.951   5.529  30.148  0.00  0.00     0.273 C 
ATOM     17  O2  non d ame     -34.189   5.066  30.924  0.00  0.00    -0.266 OA
ATOM     18  H5  non d ame     -35.304   5.872  28.043  0.00  0.00     0.163 HD
BRANCH  16  19
ATOM     19  C4  non d ame     -36.251   6.178  30.647  0.00  0.00     0.154 A 
ATOM     20  C1  non d ame     -36.571   7.573  30.662  0.00  0.00    -0.017 A 
ATOM     21  C2  non d ame     -37.871   7.642  31.211  0.00  0.00     0.077 A 
ATOM     22  H1  non d ame     -35.955   8.407  30.326  0.00  0.00     0.091 H 
ATOM     23  O1  non d ame     -38.245   6.424  31.476  0.00  0.00    -0.218 OA
ATOM     24  N1  non d ame     -37.316   5.553  31.156  0.00  0.00    -0.123 NA
BRANCH  21  25
ATOM     25  C3  non d ame     -38.683   8.908  31.448  0.00  0.00    -0.029 C 
ATOM     26  H2  non d ame     -39.074   8.904  32.465  0.00  0.00     0.036 H 
ATOM     27  H3  non d ame     -38.046   9.780  31.307  0.00  0.00     0.036 H 
ATOM     28  H4  non d ame     -39.512   8.946  30.740  0.00  0.00     0.036 H 
ENDBRANCH  21  25
ENDBRANCH  16  19
ENDBRANCH  13  15
BRANCH  13  29
ATOM     29  C8  non d ame     -33.717   3.529  27.623  0.00  0.00    -0.049 C 
ATOM     30  H7  non d ame     -32.805   3.129  27.181  0.00  0.00     0.030 H 
ATOM     31  H8  non d ame     -34.084   2.841  28.384  0.00  0.00     0.030 H 
ATOM     32  H9  non d ame     -34.474   3.652  26.848  0.00  0.00     0.030 H 
ENDBRANCH  13  29
ENDBRANCH  10  13
ENDBRANCH   7   9
BRANCH   7  33
ATOM     33  C11 non d ame     -32.720   6.005  23.403  0.00  0.00    -0.033 C 
ATOM     34  H12 non d ame     -33.535   6.562  22.940  0.00  0.00     0.042 H 
BRANCH  33  35
ATOM     35  C12 non d ame     -31.456   6.192  22.508  0.00  0.00    -0.071 C 
ATOM     36  H13 non d ame     -31.651   5.790  21.514  0.00  0.00     0.028 H 
ATOM     37  H14 non d ame     -31.220   7.253  22.431  0.00  0.00     0.028 H 
ATOM     38  H15 non d ame     -30.613   5.664  22.954  0.00  0.00     0.028 H 
ENDBRANCH  33  35
BRANCH  33  39
ATOM     39  C13 non d ame     -33.144   4.503  23.477  0.00  0.00    -0.071 C 
ATOM     40  H16 non d ame     -33.243   4.204  24.521  0.00  0.00     0.028 H 
ATOM     41  H17 non d ame     -34.100   4.369  22.968  0.00  0.00     0.028 H 
ATOM     42  H18 non d ame     -32.387   3.887  22.992  0.00  0.00     0.028 H 
ENDBRANCH  33  39
ENDBRANCH   7  33
ENDBRANCH   4   7
ENDBRANCH   1   3
BRANCH   1  43
ATOM     43  C15 non d ame     -31.843  11.432  25.653  0.00  0.00     0.240 C 
ATOM     44  O5  non d ame     -30.879  11.322  26.339  0.00  0.00    -0.271 OA
ATOM     45  N6  non d ame     -31.942  12.566  24.689  0.00  0.00    -0.355 N 
ATOM     46  H46 non d ame     -32.754  12.667  24.097  0.00  0.00     0.162 HD
BRANCH  45  47
ATOM     47  C20 non d ame     -30.842  13.550  24.601  0.00  0.00     0.013 C 
ATOM     48  H30 non d ame     -30.014  13.183  25.208  0.00  0.00     0.072 H 
BRANCH  47  49
ATOM     49  C21 non d ame     -31.320  14.883  25.131  0.00  0.00    -0.038 C 
ATOM     50  H31 non d ame     -30.509  15.585  24.939  0.00  0.00     0.036 H 
ATOM     51  H32 non d ame     -32.300  15.044  24.681  0.00  0.00     0.036 H 
BRANCH  49  52
ATOM     52  C22 non d ame     -31.538  14.876  26.660  0.00  0.00     0.018 C 
ATOM     53  H33 non d ame     -31.098  13.945  27.017  0.00  0.00     0.048 H 
ATOM     54  H34 non d ame     -31.154  15.832  27.017  0.00  0.00     0.048 H 
BRANCH  52  55
ATOM     55  C23 non d ame     -33.033  14.832  27.079  0.00  0.00     0.259 C 
ATOM     56  O7  non d ame     -33.820  14.210  26.442  0.00  0.00    -0.265 OA
BRANCH  55  57
ATOM     57  O8  non d ame     -33.456  15.554  28.229  0.00  0.00    -0.317 OA
BRANCH  57  58
ATOM     58  C29 non d ame     -32.637  16.685  28.541  0.00  0.00     0.052 C 
ATOM     59  H47 non d ame     -32.672  16.784  29.626  0.00  0.00     0.082 H 
ATOM     60  H48 non d ame     -31.686  16.506  28.040  0.00  0.00     0.082 H 
BRANCH  58  61
ATOM     61  C35 non d ame     -33.295  17.941  27.911  0.00  0.00    -0.034 A 
ATOM     62  C30 non d ame     -32.501  18.974  27.424  0.00  0.00    -0.075 A 
ATOM     63  C31 non d ame     -33.092  20.102  26.858  0.00  0.00    -0.082 A 
ATOM     64  H49 non d ame     -31.415  18.899  27.485  0.00  0.00     0.084 H 
ATOM     65  C32 non d ame     -34.484  20.198  26.783  0.00  0.00    -0.083 A 
ATOM     66  H50 non d ame     -32.466  20.909  26.476  0.00  0.00     0.083 H 
ATOM     67  C33 non d ame     -35.273  19.166  27.273  0.00  0.00    -0.082 A 
ATOM     68  H51 non d ame     -34.954  21.076  26.341  0.00  0.00     0.083 H 
ATOM     69  C34 non d ame     -34.686  18.035  27.837  0.00  0.00    -0.075 A 
ATOM     70  H52 non d ame     -36.359  19.244  27.215  0.00  0.00     0.083 H 
ATOM     71  H53 non d ame     -35.313  17.229  28.219  0.00  0.00     0.084 H 
ENDBRANCH  58  61
ENDBRANCH  57  58
ENDBRANCH  55  57
ENDBRANCH  52  55
ENDBRANCH  49  52
ENDBRANCH  47  49
BRANCH  47  72
ATOM     72  C24 non d ame     -30.405  13.707  23.146  0.00  0.00    -0.039 C 
ATOM     73  H35 non d ame     -29.427  13.228  23.083  0.00  0.00     0.036 H 
ATOM     74  H36 non d ame     -31.236  13.328  22.551  0.00  0.00     0.036 H 
BRANCH  72  75
ATOM     75  C25 non d ame     -30.204  15.246  22.751  0.00  0.00    -0.001 C 
ATOM     76  C26 non d ame     -31.255  15.660  21.556  0.00  0.00    -0.035 C 
ATOM     77  C27 non d ame     -30.564  16.250  20.552  0.00  0.00     0.085 C 
ATOM     78  H38 non d ame     -31.664  14.763  21.091  0.00  0.00     0.036 H 
ATOM     79  H39 non d ame     -31.924  16.448  21.903  0.00  0.00     0.036 H 
ATOM     80  N5  non d ame     -29.100  15.984  20.806  0.00  0.00    -0.049 N 
ATOM     81  H40 non d ame     -30.868  15.729  19.644  0.00  0.00     0.075 H 
ATOM     82  H41 non d ame     -30.754  17.318  20.656  0.00  0.00     0.075 H 
ATOM     83  C28 non d ame     -29.002  15.469  22.333  0.00  0.00     0.193 C 
ATOM     84  H42 non d ame     -28.837  15.226  20.193  0.00  0.00     0.280 HD
ATOM     85  H43 non d ame     -28.632  16.876  20.737  0.00  0.00     0.280 HD
ATOM     86  H44 non d ame     -28.639  16.131  23.119  0.00  0.00     0.129 H 
ATOM     87  H37 non d ame     -30.167  15.896  23.625  0.00  0.00     0.046 H 
BRANCH  83  88
ATOM     88  O6  non d ame     -28.181  14.302  22.408  0.00  0.00    -0.369 OA
ATOM     89  H45 non d ame     -28.315  13.766  21.622  0.00  0.00     0.212 HD
ENDBRANCH  83  88
ENDBRANCH  72  75
ENDBRANCH  47  72
ENDBRANCH  45  47
ENDBRANCH   1  43
BRANCH   1  90
ATOM     90  C16 non d ame     -33.701  10.539  27.093  0.00  0.00    -0.035 C 
ATOM     91  H21 non d ame     -33.526   9.603  27.621  0.00  0.00     0.037 H 
ATOM     92  H22 non d ame     -33.333  11.477  27.510  0.00  0.00     0.037 H 
BRANCH  90  93
ATOM     93  C17 non d ame     -35.250  10.690  26.965  0.00  0.00    -0.059 C 
ATOM     94  H23 non d ame     -35.572  11.429  27.699  0.00  0.00     0.038 H 
BRANCH  93  95
ATOM     95  C18 non d ame     -35.678  11.204  25.553  0.00  0.00    -0.073 C 
ATOM     96  H24 non d ame     -35.814  12.284  25.585  0.00  0.00     0.028 H 
ATOM     97  H25 non d ame     -34.904  10.958  24.826  0.00  0.00     0.028 H 
ATOM     98  H26 non d ame     -36.614  10.728  25.261  0.00  0.00     0.028 H 
ENDBRANCH  93  95
BRANCH  93  99
ATOM     99  C19 non d ame     -35.957   9.375  27.303  0.00  0.00    -0.073 C 
ATOM    100  H27 non d ame     -37.015   9.456  27.052  0.00  0.00     0.028 H 
ATOM    101  H28 non d ame     -35.509   8.563  26.730  0.00  0.00     0.028 H 
ATOM    102  H29 non d ame     -35.851   9.169  28.368  0.00  0.00     0.028 H 
ENDBRANCH  93  99
ENDBRANCH  90  93
ENDBRANCH   1  90
TORSDOF 26
ENDMDL
MODEL 8
REMARK VINA RESULT:      -6.8      3.513      8.710
REMARK  26 active torsions:
REMARK  status: ('A' for Active; 'I' for Inactive)
REMARK    1  A    between atoms: C2_2  and  C3_3 
REMARK    2  A    between atoms: C4_6  and  C5_7 
REMARK       I    between atoms: C5_7  and  N2_9 
REMARK    3  A    between atoms: N2_9  and  C6_10 
REMARK    4  A    between atoms: C6_10  and  C7_11 
REMARK    5  A    between atoms: C6_10  and  C8_13 
REMARK       I    between atoms: C7_11  and  N3_14 
REMARK    6  A    between atoms: N3_14  and  C9_15 
REMARK    7  A    between atoms: C9_15  and  C10_16 
REMARK    8  A    between atoms: C9_15  and  C11_18 
REMARK       I    between atoms: C10_16  and  N4_21 
REMARK    9  A    between atoms: C11_18  and  C12_19 
REMARK   10  A    between atoms: C11_18  and  C13_20 
REMARK   11  A    between atoms: N4_21  and  C14_22 
REMARK   12  A    between atoms: C14_22  and  C15_23 
REMARK   13  A    between atoms: C14_22  and  C16_25 
REMARK       I    between atoms: C15_23  and  N6_40 
REMARK   14  A    between atoms: C16_25  and  C17_26 
REMARK   15  A    between atoms: C17_26  and  C18_27 
REMARK   16  A    between atoms: C17_26  and  C19_28 
REMARK   17  A    between atoms: C20_29  and  C21_30 
REMARK   18  A    between atoms: C20_29  and  C24_33 
REMARK   19  A    between atoms: C20_29  and  N6_40 
REMARK   20  A    between atoms: C21_30  and  C22_31 
REMARK   21  A    between atoms: C22_31  and  C23_32 
REMARK   22  A    between atoms: C23_32  and  O8_43 
REMARK   23  A    between atoms: C24_33  and  C25_34 
REMARK   24  A    between atoms: C28_38  and  O6_39 
REMARK   25  A    between atoms: C29_42  and  O8_43 
REMARK   26  A    between atoms: C29_42  and  C35_49 
ROOT
ATOM      1  C14 non d ame     -36.424  15.682  26.296  0.00  0.00     0.089 C 
ATOM      2  H20 non d ame     -37.129  16.156  26.980  0.00  0.00     0.087 H 
ENDROOT
BRANCH   1   3
ATOM      3  N4  non d ame     -35.087  15.890  26.830  0.00  0.00    -0.346 N 
ATOM      4  C10 non d ame     -34.781  17.109  27.664  0.00  0.00     0.241 C 
ATOM      5  O4  non d ame     -35.628  17.909  27.890  0.00  0.00    -0.271 OA
ATOM      6  H19 non d ame     -34.380  15.199  26.624  0.00  0.00     0.163 HD
BRANCH   4   7
ATOM      7  C9  non d ame     -33.393  17.306  28.214  0.00  0.00     0.092 C 
ATOM      8  H11 non d ame     -33.459  17.780  29.193  0.00  0.00     0.088 H 
BRANCH   7   9
ATOM      9  N3  non d ame     -32.753  16.001  28.406  0.00  0.00    -0.346 N 
ATOM     10  C7  non d ame     -31.846  15.799  29.509  0.00  0.00     0.240 C 
ATOM     11  O3  non d ame     -31.618  16.675  30.250  0.00  0.00    -0.271 OA
ATOM     12  H10 non d ame     -32.938  15.235  27.773  0.00  0.00     0.163 HD
BRANCH  10  13
ATOM     13  C6  non d ame     -31.165  14.408  29.706  0.00  0.00     0.086 C 
ATOM     14  H6  non d ame     -30.539  14.368  30.597  0.00  0.00     0.086 H 
BRANCH  13  15
ATOM     15  N2  non d ame     -32.197  13.399  29.876  0.00  0.00    -0.343 N 
ATOM     16  C5  non d ame     -31.886  12.165  30.601  0.00  0.00     0.273 C 
ATOM     17  O2  non d ame     -30.802  11.993  31.041  0.00  0.00    -0.266 OA
ATOM     18  H5  non d ame     -33.120  13.553  29.495  0.00  0.00     0.163 HD
BRANCH  16  19
ATOM     19  C4  non d ame     -32.967  11.090  30.790  0.00  0.00     0.154 A 
ATOM     20  C1  non d ame     -34.025  11.087  31.755  0.00  0.00    -0.017 A 
ATOM     21  C2  non d ame     -34.734   9.889  31.512  0.00  0.00     0.077 A 
ATOM     22  H1  non d ame     -34.244  11.839  32.513  0.00  0.00     0.091 H 
ATOM     23  O1  non d ame     -34.146   9.284  30.523  0.00  0.00    -0.218 OA
ATOM     24  N1  non d ame     -33.112   9.964  30.085  0.00  0.00    -0.123 NA
BRANCH  21  25
ATOM     25  C3  non d ame     -35.961   9.400  32.270  0.00  0.00    -0.029 C 
ATOM     26  H2  non d ame     -35.981   8.311  32.264  0.00  0.00     0.036 H 
ATOM     27  H3  non d ame     -35.919   9.757  33.299  0.00  0.00     0.036 H 
ATOM     28  H4  non d ame     -36.862   9.782  31.789  0.00  0.00     0.036 H 
ENDBRANCH  21  25
ENDBRANCH  16  19
ENDBRANCH  13  15
BRANCH  13  29
ATOM     29  C8  non d ame     -30.319  14.084  28.501  0.00  0.00    -0.049 C 
ATOM     30  H7  non d ame     -30.755  13.239  27.968  0.00  0.00     0.030 H 
ATOM     31  H8  non d ame     -30.281  14.950  27.841  0.00  0.00     0.030 H 
ATOM     32  H9  non d ame     -29.310  13.828  28.824  0.00  0.00     0.030 H 
ENDBRANCH  13  29
ENDBRANCH  10  13
ENDBRANCH   7   9
BRANCH   7  33
ATOM     33  C11 non d ame     -32.553  18.149  27.210  0.00  0.00    -0.033 C 
ATOM     34  H12 non d ame     -31.520  17.806  27.276  0.00  0.00     0.042 H 
BRANCH  33  35
ATOM     35  C12 non d ame     -33.029  17.925  25.741  0.00  0.00    -0.071 C 
ATOM     36  H13 non d ame     -33.864  17.224  25.733  0.00  0.00     0.028 H 
ATOM     37  H14 non d ame     -33.347  18.875  25.313  0.00  0.00     0.028 H 
ATOM     38  H15 non d ame     -32.208  17.517  25.152  0.00  0.00     0.028 H 
ENDBRANCH  33  35
BRANCH  33  39
ATOM     39  C13 non d ame     -32.584  19.665  27.590  0.00  0.00    -0.071 C 
ATOM     40  H16 non d ame     -32.450  19.772  28.667  0.00  0.00     0.028 H 
ATOM     41  H17 non d ame     -31.780  20.186  27.070  0.00  0.00     0.028 H 
ATOM     42  H18 non d ame     -33.542  20.093  27.298  0.00  0.00     0.028 H 
ENDBRANCH  33  39
ENDBRANCH   7  33
ENDBRANCH   4   7
ENDBRANCH   1   3
BRANCH   1  43
ATOM     43  C15 non d ame     -36.672  14.152  26.164  0.00  0.00     0.240 C 
ATOM     44  O5  non d ame     -37.350  13.736  25.281  0.00  0.00    -0.271 OA
ATOM     45  N6  non d ame     -36.057  13.203  27.136  0.00  0.00    -0.355 N 
ATOM     46  H46 non d ame     -35.475  13.543  27.888  0.00  0.00     0.162 HD
BRANCH  45  47
ATOM     47  C20 non d ame     -36.301  11.751  26.996  0.00  0.00     0.013 C 
ATOM     48  H30 non d ame     -36.389  11.526  25.934  0.00  0.00     0.072 H 
BRANCH  47  49
ATOM     49  C21 non d ame     -37.585  11.389  27.709  0.00  0.00    -0.038 C 
ATOM     50  H31 non d ame     -38.025  12.336  28.022  0.00  0.00     0.036 H 
ATOM     51  H32 non d ame     -38.126  10.735  27.025  0.00  0.00     0.036 H 
BRANCH  49  52
ATOM     52  C22 non d ame     -37.346  10.572  28.997  0.00  0.00     0.018 C 
ATOM     53  H33 non d ame     -36.265  10.453  29.075  0.00  0.00     0.048 H 
ATOM     54  H34 non d ame     -37.895  11.091  29.782  0.00  0.00     0.048 H 
BRANCH  52  55
ATOM     55  C23 non d ame     -37.932   9.134  28.944  0.00  0.00     0.259 C 
ATOM     56  O7  non d ame     -39.107   8.961  28.948  0.00  0.00    -0.265 OA
BRANCH  55  57
ATOM     57  O8  non d ame     -37.046   8.021  28.903  0.00  0.00    -0.317 OA
BRANCH  57  58
ATOM     58  C29 non d ame     -37.321   7.021  29.888  0.00  0.00     0.052 C 
ATOM     59  H47 non d ame     -37.518   7.564  30.812  0.00  0.00     0.082 H 
ATOM     60  H48 non d ame     -38.093   6.385  29.454  0.00  0.00     0.082 H 
BRANCH  58  61
ATOM     61  C35 non d ame     -36.036   6.173  30.081  0.00  0.00    -0.034 A 
ATOM     62  C30 non d ame     -35.315   5.739  28.973  0.00  0.00    -0.075 A 
ATOM     63  C31 non d ame     -34.161   4.976  29.146  0.00  0.00    -0.082 A 
ATOM     64  H49 non d ame     -35.654   5.996  27.969  0.00  0.00     0.084 H 
ATOM     65  C32 non d ame     -33.730   4.645  30.434  0.00  0.00    -0.083 A 
ATOM     66  H50 non d ame     -33.597   4.639  28.276  0.00  0.00     0.083 H 
ATOM     67  C33 non d ame     -34.455   5.077  31.536  0.00  0.00    -0.082 A 
ATOM     68  H51 non d ame     -32.828   4.050  30.578  0.00  0.00     0.083 H 
ATOM     69  C34 non d ame     -35.608   5.842  31.368  0.00  0.00    -0.075 A 
ATOM     70  H52 non d ame     -34.117   4.816  32.539  0.00  0.00     0.083 H 
ATOM     71  H53 non d ame     -36.171   6.178  32.238  0.00  0.00     0.084 H 
ENDBRANCH  58  61
ENDBRANCH  57  58
ENDBRANCH  55  57
ENDBRANCH  52  55
ENDBRANCH  49  52
ENDBRANCH  47  49
BRANCH  47  72
ATOM     72  C24 non d ame     -35.140  10.971  27.610  0.00  0.00    -0.039 C 
ATOM     73  H35 non d ame     -34.483  11.724  28.046  0.00  0.00     0.036 H 
ATOM     74  H36 non d ame     -35.602  10.217  28.247  0.00  0.00     0.036 H 
BRANCH  72  75
ATOM     75  C25 non d ame     -34.294  10.193  26.494  0.00  0.00    -0.001 C 
ATOM     76  C26 non d ame     -34.292   8.580  26.816  0.00  0.00    -0.035 C 
ATOM     77  C27 non d ame     -33.014   8.133  26.802  0.00  0.00     0.085 C 
ATOM     78  H38 non d ame     -34.613   8.403  27.842  0.00  0.00     0.036 H 
ATOM     79  H39 non d ame     -34.761   8.035  25.997  0.00  0.00     0.036 H 
ATOM     80  N5  non d ame     -32.121   9.350  26.825  0.00  0.00    -0.049 N 
ATOM     81  H40 non d ame     -32.888   7.582  27.734  0.00  0.00     0.075 H 
ATOM     82  H41 non d ame     -32.894   7.623  25.847  0.00  0.00     0.075 H 
ATOM     83  C28 non d ame     -33.070  10.605  26.464  0.00  0.00     0.193 C 
ATOM     84  H42 non d ame     -31.801   9.452  27.778  0.00  0.00     0.280 HD
ATOM     85  H43 non d ame     -31.452   9.227  26.078  0.00  0.00     0.280 HD
ATOM     86  H44 non d ame     -33.038  11.056  25.472  0.00  0.00     0.129 H 
ATOM     87  H37 non d ame     -34.565  10.497  25.483  0.00  0.00     0.046 H 
BRANCH  83  88
ATOM     88  O6  non d ame     -32.840  11.677  27.380  0.00  0.00    -0.369 OA
ATOM     89  H45 non d ame     -33.585  11.751  27.980  0.00  0.00     0.212 HD
ENDBRANCH  83  88
ENDBRANCH  72  75
ENDBRANCH  47  72
ENDBRANCH  45  47
ENDBRANCH   1  43
BRANCH   1  90
ATOM     90  C16 non d ame     -36.519  16.334  24.926  0.00  0.00    -0.035 C 
ATOM     91  H21 non d ame     -35.535  16.763  24.742  0.00  0.00     0.037 H 
ATOM     92  H22 non d ame     -36.909  15.561  24.264  0.00  0.00     0.037 H 
BRANCH  90  93
ATOM     93  C17 non d ame     -37.534  17.520  24.865  0.00  0.00    -0.059 C 
ATOM     94  H23 non d ame     -38.092  17.430  23.933  0.00  0.00     0.038 H 
BRANCH  93  95
ATOM     95  C18 non d ame     -38.563  17.475  26.041  0.00  0.00    -0.073 C 
ATOM     96  H24 non d ame     -39.438  16.903  25.737  0.00  0.00     0.028 H 
ATOM     97  H25 non d ame     -38.103  17.001  26.908  0.00  0.00     0.028 H 
ATOM     98  H26 non d ame     -38.863  18.491  26.299  0.00  0.00     0.028 H 
ENDBRANCH  93  95
BRANCH  93  99
ATOM     99  C19 non d ame     -36.804  18.864  24.831  0.00  0.00    -0.073 C 
ATOM    100  H27 non d ame     -36.458  19.065  23.817  0.00  0.00     0.028 H 
ATOM    101  H28 non d ame     -37.484  19.656  25.146  0.00  0.00     0.028 H 
ATOM    102  H29 non d ame     -35.949  18.831  25.506  0.00  0.00     0.028 H 
ENDBRANCH  93  99
ENDBRANCH  90  93
ENDBRANCH   1  90
TORSDOF 26
ENDMDL
MODEL 9
REMARK VINA RESULT:      -6.8      2.420      7.215
REMARK  26 active torsions:
REMARK  status: ('A' for Active; 'I' for Inactive)
REMARK    1  A    between atoms: C2_2  and  C3_3 
REMARK    2  A    between atoms: C4_6  and  C5_7 
REMARK       I    between atoms: C5_7  and  N2_9 
REMARK    3  A    between atoms: N2_9  and  C6_10 
REMARK    4  A    between atoms: C6_10  and  C7_11 
REMARK    5  A    between atoms: C6_10  and  C8_13 
REMARK       I    between atoms: C7_11  and  N3_14 
REMARK    6  A    between atoms: N3_14  and  C9_15 
REMARK    7  A    between atoms: C9_15  and  C10_16 
REMARK    8  A    between atoms: C9_15  and  C11_18 
REMARK       I    between atoms: C10_16  and  N4_21 
REMARK    9  A    between atoms: C11_18  and  C12_19 
REMARK   10  A    between atoms: C11_18  and  C13_20 
REMARK   11  A    between atoms: N4_21  and  C14_22 
REMARK   12  A    between atoms: C14_22  and  C15_23 
REMARK   13  A    between atoms: C14_22  and  C16_25 
REMARK       I    between atoms: C15_23  and  N6_40 
REMARK   14  A    between atoms: C16_25  and  C17_26 
REMARK   15  A    between atoms: C17_26  and  C18_27 
REMARK   16  A    between atoms: C17_26  and  C19_28 
REMARK   17  A    between atoms: C20_29  and  C21_30 
REMARK   18  A    between atoms: C20_29  and  C24_33 
REMARK   19  A    between atoms: C20_29  and  N6_40 
REMARK   20  A    between atoms: C21_30  and  C22_31 
REMARK   21  A    between atoms: C22_31  and  C23_32 
REMARK   22  A    between atoms: C23_32  and  O8_43 
REMARK   23  A    between atoms: C24_33  and  C25_34 
REMARK   24  A    between atoms: C28_38  and  O6_39 
REMARK   25  A    between atoms: C29_42  and  O8_43 
REMARK   26  A    between atoms: C29_42  and  C35_49 
ROOT
ATOM      1  C14 non d ame     -33.087  12.013  28.732  0.00  0.00     0.089 C 
ATOM      2  H20 non d ame     -33.206  12.466  29.717  0.00  0.00     0.087 H 
ENDROOT
BRANCH   1   3
ATOM      3  N4  non d ame     -33.864  10.782  28.719  0.00  0.00    -0.346 N 
ATOM      4  C10 non d ame     -33.908   9.897  29.939  0.00  0.00     0.241 C 
ATOM      5  O4  non d ame     -33.308  10.195  30.919  0.00  0.00    -0.271 OA
ATOM      6  H19 non d ame     -34.365  10.545  27.875  0.00  0.00     0.163 HD
BRANCH   4   7
ATOM      7  C9  non d ame     -34.721   8.630  29.911  0.00  0.00     0.092 C 
ATOM      8  H11 non d ame     -35.661   8.819  29.391  0.00  0.00     0.088 H 
BRANCH   7   9
ATOM      9  N3  non d ame     -34.003   7.605  29.148  0.00  0.00    -0.346 N 
ATOM     10  C7  non d ame     -34.500   7.183  27.861  0.00  0.00     0.240 C 
ATOM     11  O3  non d ame     -35.478   7.657  27.426  0.00  0.00    -0.271 OA
ATOM     12  H10 non d ame     -33.159   7.186  29.512  0.00  0.00     0.163 HD
BRANCH  10  13
ATOM     13  C6  non d ame     -33.733   6.090  27.056  0.00  0.00     0.086 C 
ATOM     14  H6  non d ame     -34.381   5.529  26.383  0.00  0.00     0.086 H 
BRANCH  13  15
ATOM     15  N2  non d ame     -32.729   6.734  26.225  0.00  0.00    -0.343 N 
ATOM     16  C5  non d ame     -32.870   6.701  24.767  0.00  0.00     0.273 C 
ATOM     17  O2  non d ame     -33.792   6.151  24.273  0.00  0.00    -0.266 OA
ATOM     18  H5  non d ame     -31.943   7.199  26.655  0.00  0.00     0.163 HD
BRANCH  16  19
ATOM     19  C4  non d ame     -31.817   7.379  23.877  0.00  0.00     0.154 A 
ATOM     20  C1  non d ame     -31.597   8.783  23.714  0.00  0.00    -0.017 A 
ATOM     21  C2  non d ame     -30.526   8.880  22.798  0.00  0.00     0.077 A 
ATOM     22  H1  non d ame     -32.132   9.606  24.188  0.00  0.00     0.091 H 
ATOM     23  O1  non d ame     -30.179   7.668  22.479  0.00  0.00    -0.218 OA
ATOM     24  N1  non d ame     -30.918   6.774  23.095  0.00  0.00    -0.123 NA
BRANCH  21  25
ATOM     25  C3  non d ame     -29.896  10.166  22.280  0.00  0.00    -0.029 C 
ATOM     26  H2  non d ame     -30.673  10.912  22.117  0.00  0.00     0.036 H 
ATOM     27  H3  non d ame     -29.182  10.541  23.013  0.00  0.00     0.036 H 
ATOM     28  H4  non d ame     -29.381   9.966  21.341  0.00  0.00     0.036 H 
ENDBRANCH  21  25
ENDBRANCH  16  19
ENDBRANCH  13  15
BRANCH  13  29
ATOM     29  C8  non d ame     -33.073   5.128  28.011  0.00  0.00    -0.049 C 
ATOM     30  H7  non d ame     -32.157   4.743  27.563  0.00  0.00     0.030 H 
ATOM     31  H8  non d ame     -32.833   5.646  28.939  0.00  0.00     0.030 H 
ATOM     32  H9  non d ame     -33.751   4.301  28.220  0.00  0.00     0.030 H 
ENDBRANCH  13  29
ENDBRANCH  10  13
ENDBRANCH   7   9
BRANCH   7  33
ATOM     33  C11 non d ame     -34.948   8.126  31.366  0.00  0.00    -0.033 C 
ATOM     34  H12 non d ame     -34.081   8.424  31.956  0.00  0.00     0.042 H 
BRANCH  33  35
ATOM     35  C12 non d ame     -36.204   8.793  32.010  0.00  0.00    -0.071 C 
ATOM     36  H13 non d ame     -36.971   8.932  31.248  0.00  0.00     0.028 H 
ATOM     37  H14 non d ame     -36.590   8.151  32.802  0.00  0.00     0.028 H 
ATOM     38  H15 non d ame     -35.927   9.760  32.428  0.00  0.00     0.028 H 
ENDBRANCH  33  35
BRANCH  33  39
ATOM     39  C13 non d ame     -35.049   6.567  31.409  0.00  0.00    -0.071 C 
ATOM     40  H16 non d ame     -34.048   6.137  31.385  0.00  0.00     0.028 H 
ATOM     41  H17 non d ame     -35.554   6.261  32.326  0.00  0.00     0.028 H 
ATOM     42  H18 non d ame     -35.617   6.216  30.548  0.00  0.00     0.028 H 
ENDBRANCH  33  39
ENDBRANCH   7  33
ENDBRANCH   4   7
ENDBRANCH   1   3
BRANCH   1  43
ATOM     43  C15 non d ame     -33.606  12.938  27.594  0.00  0.00     0.240 C 
ATOM     44  O5  non d ame     -33.408  12.646  26.459  0.00  0.00    -0.271 OA
ATOM     45  N6  non d ame     -34.359  14.183  27.919  0.00  0.00    -0.355 N 
ATOM     46  H46 non d ame     -34.537  14.439  28.879  0.00  0.00     0.162 HD
BRANCH  45  47
ATOM     47  C20 non d ame     -34.847  15.051  26.826  0.00  0.00     0.013 C 
ATOM     48  H30 non d ame     -34.304  14.785  25.919  0.00  0.00     0.072 H 
BRANCH  47  49
ATOM     49  C21 non d ame     -34.583  16.497  27.180  0.00  0.00    -0.038 C 
ATOM     50  H31 non d ame     -34.844  17.071  26.290  0.00  0.00     0.036 H 
ATOM     51  H32 non d ame     -35.114  16.672  28.116  0.00  0.00     0.036 H 
BRANCH  49  52
ATOM     52  C22 non d ame     -33.092  16.783  27.462  0.00  0.00     0.018 C 
ATOM     53  H33 non d ame     -33.076  17.414  28.350  0.00  0.00     0.048 H 
ATOM     54  H34 non d ame     -32.603  15.809  27.476  0.00  0.00     0.048 H 
BRANCH  52  55
ATOM     55  C23 non d ame     -32.388  17.600  26.344  0.00  0.00     0.259 C 
ATOM     56  O7  non d ame     -32.078  18.732  26.528  0.00  0.00    -0.265 OA
BRANCH  55  57
ATOM     57  O8  non d ame     -32.130  16.983  25.088  0.00  0.00    -0.317 OA
BRANCH  57  58
ATOM     58  C29 non d ame     -31.356  15.784  25.177  0.00  0.00     0.052 C 
ATOM     59  H47 non d ame     -30.476  16.044  25.766  0.00  0.00     0.082 H 
ATOM     60  H48 non d ame     -32.042  15.016  25.533  0.00  0.00     0.082 H 
BRANCH  58  61
ATOM     61  C35 non d ame     -30.894  15.404  23.745  0.00  0.00    -0.034 A 
ATOM     62  C30 non d ame     -30.116  14.269  23.542  0.00  0.00    -0.075 A 
ATOM     63  C31 non d ame     -29.701  13.928  22.256  0.00  0.00    -0.082 A 
ATOM     64  H49 non d ame     -29.830  13.647  24.391  0.00  0.00     0.084 H 
ATOM     65  C32 non d ame     -30.066  14.728  21.170  0.00  0.00    -0.083 A 
ATOM     66  H50 non d ame     -29.092  13.037  22.100  0.00  0.00     0.083 H 
ATOM     67  C33 non d ame     -30.840  15.861  21.378  0.00  0.00    -0.082 A 
ATOM     68  H51 non d ame     -29.746  14.468  20.160  0.00  0.00     0.083 H 
ATOM     69  C34 non d ame     -31.258  16.205  22.661  0.00  0.00    -0.075 A 
ATOM     70  H52 non d ame     -31.121  16.485  20.528  0.00  0.00     0.083 H 
ATOM     71  H53 non d ame     -31.867  17.096  22.816  0.00  0.00     0.084 H 
ENDBRANCH  58  61
ENDBRANCH  57  58
ENDBRANCH  55  57
ENDBRANCH  52  55
ENDBRANCH  49  52
ENDBRANCH  47  49
BRANCH  47  72
ATOM     72  C24 non d ame     -36.346  14.839  26.628  0.00  0.00    -0.039 C 
ATOM     73  H35 non d ame     -36.706  14.419  27.568  0.00  0.00     0.036 H 
ATOM     74  H36 non d ame     -36.731  15.797  26.278  0.00  0.00     0.036 H 
BRANCH  72  75
ATOM     75  C25 non d ame     -36.647  13.761  25.482  0.00  0.00    -0.001 C 
ATOM     76  C26 non d ame     -37.789  14.344  24.451  0.00  0.00    -0.035 C 
ATOM     77  C27 non d ame     -38.769  13.418  24.318  0.00  0.00     0.085 C 
ATOM     78  H38 non d ame     -38.300  15.193  24.902  0.00  0.00     0.036 H 
ATOM     79  H39 non d ame     -37.377  14.426  23.445  0.00  0.00     0.036 H 
ATOM     80  N5  non d ame     -38.565  12.398  25.412  0.00  0.00    -0.049 N 
ATOM     81  H40 non d ame     -39.701  13.953  24.499  0.00  0.00     0.075 H 
ATOM     82  H41 non d ame     -38.591  12.944  23.353  0.00  0.00     0.075 H 
ATOM     83  C28 non d ame     -37.077  12.652  25.985  0.00  0.00     0.193 C 
ATOM     84  H42 non d ame     -39.231  12.621  26.138  0.00  0.00     0.280 HD
ATOM     85  H43 non d ame     -38.588  11.492  24.966  0.00  0.00     0.280 HD
ATOM     86  H44 non d ame     -36.259  11.983  25.717  0.00  0.00     0.129 H 
ATOM     87  H37 non d ame     -35.734  13.365  25.038  0.00  0.00     0.046 H 
BRANCH  83  88
ATOM     88  O6  non d ame     -37.096  12.679  27.413  0.00  0.00    -0.369 OA
ATOM     89  H45 non d ame     -36.356  12.170  27.753  0.00  0.00     0.212 HD
ENDBRANCH  83  88
ENDBRANCH  72  75
ENDBRANCH  47  72
ENDBRANCH  45  47
ENDBRANCH   1  43
BRANCH   1  90
ATOM     90  C16 non d ame     -31.624  11.679  28.491  0.00  0.00    -0.035 C 
ATOM     91  H21 non d ame     -31.487  10.675  28.891  0.00  0.00     0.037 H 
ATOM     92  H22 non d ame     -31.454  11.871  27.432  0.00  0.00     0.037 H 
BRANCH  90  93
ATOM     93  C17 non d ame     -30.634  12.602  29.272  0.00  0.00    -0.059 C 
ATOM     94  H23 non d ame     -29.667  12.100  29.299  0.00  0.00     0.038 H 
BRANCH  93  95
ATOM     95  C18 non d ame     -30.435  13.982  28.567  0.00  0.00    -0.073 C 
ATOM     96  H24 non d ame     -30.171  14.734  29.309  0.00  0.00     0.028 H 
ATOM     97  H25 non d ame     -29.636  13.902  27.831  0.00  0.00     0.028 H 
ATOM     98  H26 non d ame     -31.360  14.272  28.069  0.00  0.00     0.028 H 
ENDBRANCH  93  95
BRANCH  93  99
ATOM     99  C19 non d ame     -31.090  12.791  30.721  0.00  0.00    -0.073 C 
ATOM    100  H27 non d ame     -31.048  13.849  30.980  0.00  0.00     0.028 H 
ATOM    101  H28 non d ame     -32.113  12.431  30.830  0.00  0.00     0.028 H 
ATOM    102  H29 non d ame     -30.434  12.227  31.384  0.00  0.00     0.028 H 
ENDBRANCH  93  99
ENDBRANCH  90  93
ENDBRANCH   1  90
TORSDOF 26
ENDMDL
MODEL 10
REMARK VINA RESULT:      -6.7      2.221      6.257
REMARK  26 active torsions:
REMARK  status: ('A' for Active; 'I' for Inactive)
REMARK    1  A    between atoms: C2_2  and  C3_3 
REMARK    2  A    between atoms: C4_6  and  C5_7 
REMARK       I    between atoms: C5_7  and  N2_9 
REMARK    3  A    between atoms: N2_9  and  C6_10 
REMARK    4  A    between atoms: C6_10  and  C7_11 
REMARK    5  A    between atoms: C6_10  and  C8_13 
REMARK       I    between atoms: C7_11  and  N3_14 
REMARK    6  A    between atoms: N3_14  and  C9_15 
REMARK    7  A    between atoms: C9_15  and  C10_16 
REMARK    8  A    between atoms: C9_15  and  C11_18 
REMARK       I    between atoms: C10_16  and  N4_21 
REMARK    9  A    between atoms: C11_18  and  C12_19 
REMARK   10  A    between atoms: C11_18  and  C13_20 
REMARK   11  A    between atoms: N4_21  and  C14_22 
REMARK   12  A    between atoms: C14_22  and  C15_23 
REMARK   13  A    between atoms: C14_22  and  C16_25 
REMARK       I    between atoms: C15_23  and  N6_40 
REMARK   14  A    between atoms: C16_25  and  C17_26 
REMARK   15  A    between atoms: C17_26  and  C18_27 
REMARK   16  A    between atoms: C17_26  and  C19_28 
REMARK   17  A    between atoms: C20_29  and  C21_30 
REMARK   18  A    between atoms: C20_29  and  C24_33 
REMARK   19  A    between atoms: C20_29  and  N6_40 
REMARK   20  A    between atoms: C21_30  and  C22_31 
REMARK   21  A    between atoms: C22_31  and  C23_32 
REMARK   22  A    between atoms: C23_32  and  O8_43 
REMARK   23  A    between atoms: C24_33  and  C25_34 
REMARK   24  A    between atoms: C28_38  and  O6_39 
REMARK   25  A    between atoms: C29_42  and  O8_43 
REMARK   26  A    between atoms: C29_42  and  C35_49 
ROOT
ATOM      1  C14 non d ame     -33.019   9.129  27.637  0.00  0.00     0.089 C 
ATOM      2  H20 non d ame     -32.023   8.685  27.619  0.00  0.00     0.087 H 
ENDROOT
BRANCH   1   3
ATOM      3  N4  non d ame     -32.864  10.541  27.953  0.00  0.00    -0.346 N 
ATOM      4  C10 non d ame     -31.800  11.362  27.270  0.00  0.00     0.241 C 
ATOM      5  O4  non d ame     -31.078  10.864  26.470  0.00  0.00    -0.271 OA
ATOM      6  H19 non d ame     -33.487  10.945  28.638  0.00  0.00     0.163 HD
BRANCH   4   7
ATOM      7  C9  non d ame     -31.658  12.824  27.606  0.00  0.00     0.092 C 
ATOM      8  H11 non d ame     -30.621  13.126  27.458  0.00  0.00     0.088 H 
BRANCH   7   9
ATOM      9  N3  non d ame     -32.477  13.619  26.686  0.00  0.00    -0.346 N 
ATOM     10  C7  non d ame     -31.845  14.403  25.653  0.00  0.00     0.240 C 
ATOM     11  O3  non d ame     -30.679  14.407  25.549  0.00  0.00    -0.271 OA
ATOM     12  H10 non d ame     -33.484  13.627  26.764  0.00  0.00     0.163 HD
BRANCH  10  13
ATOM     13  C6  non d ame     -32.722  15.250  24.679  0.00  0.00     0.086 C 
ATOM     14  H6  non d ame     -33.619  14.723  24.353  0.00  0.00     0.086 H 
BRANCH  13  15
ATOM     15  N2  non d ame     -33.170  16.448  25.369  0.00  0.00    -0.343 N 
ATOM     16  C5  non d ame     -34.378  16.395  26.196  0.00  0.00     0.273 C 
ATOM     17  O2  non d ame     -34.983  15.384  26.297  0.00  0.00    -0.266 OA
ATOM     18  H5  non d ame     -32.649  17.308  25.275  0.00  0.00     0.163 HD
BRANCH  16  19
ATOM     19  C4  non d ame     -34.863  17.653  26.932  0.00  0.00     0.154 A 
ATOM     20  C1  non d ame     -35.648  18.722  26.394  0.00  0.00    -0.017 A 
ATOM     21  C2  non d ame     -35.820  19.623  27.468  0.00  0.00     0.077 A 
ATOM     22  H1  non d ame     -36.033  18.827  25.379  0.00  0.00     0.091 H 
ATOM     23  O1  non d ame     -35.204  19.121  28.497  0.00  0.00    -0.218 OA
ATOM     24  N1  non d ame     -34.637  17.972  28.210  0.00  0.00    -0.123 NA
BRANCH  21  25
ATOM     25  C3  non d ame     -36.587  20.939  27.426  0.00  0.00    -0.029 C 
ATOM     26  H2  non d ame     -37.262  20.993  28.280  0.00  0.00     0.036 H 
ATOM     27  H3  non d ame     -35.884  21.770  27.466  0.00  0.00     0.036 H 
ATOM     28  H4  non d ame     -37.163  20.994  26.503  0.00  0.00     0.036 H 
ENDBRANCH  21  25
ENDBRANCH  16  19
ENDBRANCH  13  15
BRANCH  13  29
ATOM     29  C8  non d ame     -31.910  15.626  23.466  0.00  0.00    -0.049 C 
ATOM     30  H7  non d ame     -32.495  16.289  22.828  0.00  0.00     0.030 H 
ATOM     31  H8  non d ame     -31.000  16.136  23.781  0.00  0.00     0.030 H 
ATOM     32  H9  non d ame     -31.648  14.725  22.910  0.00  0.00     0.030 H 
ENDBRANCH  13  29
ENDBRANCH  10  13
ENDBRANCH   7   9
BRANCH   7  33
ATOM     33  C11 non d ame     -32.137  13.069  29.066  0.00  0.00    -0.033 C 
ATOM     34  H12 non d ame     -32.945  12.367  29.270  0.00  0.00     0.042 H 
BRANCH  33  35
ATOM     35  C12 non d ame     -30.997  12.783  30.094  0.00  0.00    -0.071 C 
ATOM     36  H13 non d ame     -30.922  13.616  30.794  0.00  0.00     0.028 H 
ATOM     37  H14 non d ame     -31.222  11.868  30.640  0.00  0.00     0.028 H 
ATOM     38  H15 non d ame     -30.052  12.668  29.564  0.00  0.00     0.028 H 
ENDBRANCH  33  35
BRANCH  33  39
ATOM     39  C13 non d ame     -32.700  14.517  29.234  0.00  0.00    -0.071 C 
ATOM     40  H16 non d ame     -32.556  15.073  28.308  0.00  0.00     0.028 H 
ATOM     41  H17 non d ame     -33.765  14.468  29.467  0.00  0.00     0.028 H 
ATOM     42  H18 non d ame     -32.175  15.020  30.046  0.00  0.00     0.028 H 
ENDBRANCH  33  39
ENDBRANCH   7  33
ENDBRANCH   4   7
ENDBRANCH   1   3
BRANCH   1  43
ATOM     43  C15 non d ame     -33.743   9.005  26.265  0.00  0.00     0.240 C 
ATOM     44  O5  non d ame     -34.847   9.425  26.140  0.00  0.00    -0.271 OA
ATOM     45  N6  non d ame     -33.054   8.371  25.105  0.00  0.00    -0.355 N 
ATOM     46  H46 non d ame     -32.114   8.015  25.198  0.00  0.00     0.162 HD
BRANCH  45  47
ATOM     47  C20 non d ame     -33.755   8.262  23.807  0.00  0.00     0.013 C 
ATOM     48  H30 non d ame     -34.689   8.819  23.883  0.00  0.00     0.072 H 
BRANCH  47  49
ATOM     49  C21 non d ame     -34.044   6.807  23.516  0.00  0.00    -0.038 C 
ATOM     50  H31 non d ame     -35.026   6.609  23.948  0.00  0.00     0.036 H 
ATOM     51  H32 non d ame     -33.885   6.684  22.445  0.00  0.00     0.036 H 
BRANCH  49  52
ATOM     52  C22 non d ame     -33.058   5.847  24.217  0.00  0.00     0.018 C 
ATOM     53  H33 non d ame     -32.721   5.155  23.447  0.00  0.00     0.048 H 
ATOM     54  H34 non d ame     -32.337   6.487  24.728  0.00  0.00     0.048 H 
BRANCH  52  55
ATOM     55  C23 non d ame     -33.713   4.973  25.322  0.00  0.00     0.259 C 
ATOM     56  O7  non d ame     -33.862   3.805  25.157  0.00  0.00    -0.265 OA
BRANCH  55  57
ATOM     57  O8  non d ame     -34.146   5.585  26.530  0.00  0.00    -0.317 OA
BRANCH  57  58
ATOM     58  C29 non d ame     -35.398   5.093  27.016  0.00  0.00     0.052 C 
ATOM     59  H47 non d ame     -36.160   5.732  26.569  0.00  0.00     0.082 H 
ATOM     60  H48 non d ame     -35.395   4.023  26.811  0.00  0.00     0.082 H 
BRANCH  58  61
ATOM     61  C35 non d ame     -35.429   5.297  28.555  0.00  0.00    -0.034 A 
ATOM     62  C30 non d ame     -34.315   4.973  29.322  0.00  0.00    -0.075 A 
ATOM     63  C31 non d ame     -34.342   5.156  30.704  0.00  0.00    -0.082 A 
ATOM     64  H49 non d ame     -33.420   4.576  28.841  0.00  0.00     0.084 H 
ATOM     65  C32 non d ame     -35.490   5.663  31.319  0.00  0.00    -0.083 A 
ATOM     66  H50 non d ame     -33.466   4.903  31.303  0.00  0.00     0.083 H 
ATOM     67  C33 non d ame     -36.600   5.981  30.549  0.00  0.00    -0.082 A 
ATOM     68  H51 non d ame     -35.519   5.809  32.398  0.00  0.00     0.083 H 
ATOM     69  C34 non d ame     -36.577   5.802  29.167  0.00  0.00    -0.075 A 
ATOM     70  H52 non d ame     -37.496   6.374  31.032  0.00  0.00     0.083 H 
ATOM     71  H53 non d ame     -37.453   6.056  28.569  0.00  0.00     0.084 H 
ENDBRANCH  58  61
ENDBRANCH  57  58
ENDBRANCH  55  57
ENDBRANCH  52  55
ENDBRANCH  49  52
ENDBRANCH  47  49
BRANCH  47  72
ATOM     72  C24 non d ame     -32.879   8.840  22.698  0.00  0.00    -0.039 C 
ATOM     73  H35 non d ame     -33.042   8.194  21.834  0.00  0.00     0.036 H 
ATOM     74  H36 non d ame     -33.140   9.897  22.643  0.00  0.00     0.036 H 
BRANCH  72  75
ATOM     75  C25 non d ame     -31.323   8.755  23.066  0.00  0.00    -0.001 C 
ATOM     76  C26 non d ame     -30.677  10.266  23.122  0.00  0.00    -0.035 C 
ATOM     77  C27 non d ame     -29.565  10.294  22.350  0.00  0.00     0.085 C 
ATOM     78  H38 non d ame     -31.344  10.976  22.634  0.00  0.00     0.036 H 
ATOM     79  H39 non d ame     -30.298  10.474  24.123  0.00  0.00     0.036 H 
ATOM     80  N5  non d ame     -29.575   9.037  21.515  0.00  0.00    -0.049 N 
ATOM     81  H40 non d ame     -29.687  11.158  21.696  0.00  0.00     0.075 H 
ATOM     82  H41 non d ame     -28.727  10.252  23.045  0.00  0.00     0.075 H 
ATOM     83  C28 non d ame     -30.672   8.064  22.190  0.00  0.00     0.193 C 
ATOM     84  H42 non d ame     -29.903   9.306  20.598  0.00  0.00     0.280 HD
ATOM     85  H43 non d ame     -28.663   8.617  21.621  0.00  0.00     0.280 HD
ATOM     86  H44 non d ame     -30.360   7.216  22.798  0.00  0.00     0.129 H 
ATOM     87  H37 non d ame     -31.135   8.103  23.920  0.00  0.00     0.046 H 
BRANCH  83  88
ATOM     88  O6  non d ame     -31.531   7.520  21.186  0.00  0.00    -0.369 OA
ATOM     89  H45 non d ame     -31.507   6.561  21.230  0.00  0.00     0.212 HD
ENDBRANCH  83  88
ENDBRANCH  72  75
ENDBRANCH  47  72
ENDBRANCH  45  47
ENDBRANCH   1  43
BRANCH   1  90
ATOM     90  C16 non d ame     -33.858   8.467  28.719  0.00  0.00    -0.035 C 
ATOM     91  H21 non d ame     -34.633   7.917  28.187  0.00  0.00     0.037 H 
ATOM     92  H22 non d ame     -33.146   7.933  29.349  0.00  0.00     0.037 H 
BRANCH  90  93
ATOM     93  C17 non d ame     -34.596   9.482  29.648  0.00  0.00    -0.059 C 
ATOM     94  H23 non d ame     -34.175  10.470  29.460  0.00  0.00     0.038 H 
BRANCH  93  95
ATOM     95  C18 non d ame     -36.127   9.552  29.345  0.00  0.00    -0.073 C 
ATOM     96  H24 non d ame     -36.682   9.595  30.282  0.00  0.00     0.028 H 
ATOM     97  H25 non d ame     -36.341  10.444  28.757  0.00  0.00     0.028 H 
ATOM     98  H26 non d ame     -36.428   8.667  28.785  0.00  0.00     0.028 H 
ENDBRANCH  93  95
BRANCH  93  99
ATOM     99  C19 non d ame     -34.347   9.155  31.122  0.00  0.00    -0.073 C 
ATOM    100  H27 non d ame     -34.879   8.240  31.387  0.00  0.00     0.028 H 
ATOM    101  H28 non d ame     -33.279   9.015  31.289  0.00  0.00     0.028 H 
ATOM    102  H29 non d ame     -34.705   9.976  31.743  0.00  0.00     0.028 H 
ENDBRANCH  93  99
ENDBRANCH  90  93
ENDBRANCH   1  90
TORSDOF 26
ENDMDL
MODEL 11
REMARK VINA RESULT:      -6.7      2.476      9.323
REMARK  26 active torsions:
REMARK  status: ('A' for Active; 'I' for Inactive)
REMARK    1  A    between atoms: C2_2  and  C3_3 
REMARK    2  A    between atoms: C4_6  and  C5_7 
REMARK       I    between atoms: C5_7  and  N2_9 
REMARK    3  A    between atoms: N2_9  and  C6_10 
REMARK    4  A    between atoms: C6_10  and  C7_11 
REMARK    5  A    between atoms: C6_10  and  C8_13 
REMARK       I    between atoms: C7_11  and  N3_14 
REMARK    6  A    between atoms: N3_14  and  C9_15 
REMARK    7  A    between atoms: C9_15  and  C10_16 
REMARK    8  A    between atoms: C9_15  and  C11_18 
REMARK       I    between atoms: C10_16  and  N4_21 
REMARK    9  A    between atoms: C11_18  and  C12_19 
REMARK   10  A    between atoms: C11_18  and  C13_20 
REMARK   11  A    between atoms: N4_21  and  C14_22 
REMARK   12  A    between atoms: C14_22  and  C15_23 
REMARK   13  A    between atoms: C14_22  and  C16_25 
REMARK       I    between atoms: C15_23  and  N6_40 
REMARK   14  A    between atoms: C16_25  and  C17_26 
REMARK   15  A    between atoms: C17_26  and  C18_27 
REMARK   16  A    between atoms: C17_26  and  C19_28 
REMARK   17  A    between atoms: C20_29  and  C21_30 
REMARK   18  A    between atoms: C20_29  and  C24_33 
REMARK   19  A    between atoms: C20_29  and  N6_40 
REMARK   20  A    between atoms: C21_30  and  C22_31 
REMARK   21  A    between atoms: C22_31  and  C23_32 
REMARK   22  A    between atoms: C23_32  and  O8_43 
REMARK   23  A    between atoms: C24_33  and  C25_34 
REMARK   24  A    between atoms: C28_38  and  O6_39 
REMARK   25  A    between atoms: C29_42  and  O8_43 
REMARK   26  A    between atoms: C29_42  and  C35_49 
ROOT
ATOM      1  C14 non d ame     -30.908  13.955  24.149  0.00  0.00     0.089 C 
ATOM      2  H20 non d ame     -29.820  14.005  24.188  0.00  0.00     0.087 H 
ENDROOT
BRANCH   1   3
ATOM      3  N4  non d ame     -31.287  12.556  24.287  0.00  0.00    -0.346 N 
ATOM      4  C10 non d ame     -30.656  11.506  23.407  0.00  0.00     0.241 C 
ATOM      5  O4  non d ame     -29.848  11.811  22.593  0.00  0.00    -0.271 OA
ATOM      6  H19 non d ame     -31.978  12.317  24.984  0.00  0.00     0.163 HD
BRANCH   4   7
ATOM      7  C9  non d ame     -31.056  10.063  23.567  0.00  0.00     0.092 C 
ATOM      8  H11 non d ame     -30.591   9.660  24.467  0.00  0.00     0.088 H 
BRANCH   7   9
ATOM      9  N3  non d ame     -32.507   9.975  23.752  0.00  0.00    -0.346 N 
ATOM     10  C7  non d ame     -33.048   9.249  24.875  0.00  0.00     0.240 C 
ATOM     11  O3  non d ame     -32.329   8.729  25.639  0.00  0.00    -0.271 OA
ATOM     12  H10 non d ame     -33.140  10.417  23.100  0.00  0.00     0.163 HD
BRANCH  10  13
ATOM     13  C6  non d ame     -34.594   9.157  25.065  0.00  0.00     0.086 C 
ATOM     14  H6  non d ame     -35.014   8.237  24.659  0.00  0.00     0.086 H 
BRANCH  13  15
ATOM     15  N2  non d ame     -34.895   9.159  26.487  0.00  0.00    -0.343 N 
ATOM     16  C5  non d ame     -35.317   7.917  27.137  0.00  0.00     0.273 C 
ATOM     17  O2  non d ame     -35.415   6.921  26.507  0.00  0.00    -0.266 OA
ATOM     18  H5  non d ame     -34.812  10.015  27.017  0.00  0.00     0.163 HD
BRANCH  16  19
ATOM     19  C4  non d ame     -35.638   7.904  28.640  0.00  0.00     0.154 A 
ATOM     20  C1  non d ame     -35.428   8.965  29.577  0.00  0.00    -0.017 A 
ATOM     21  C2  non d ame     -35.884   8.454  30.813  0.00  0.00     0.077 A 
ATOM     22  H1  non d ame     -35.009   9.954  29.390  0.00  0.00     0.091 H 
ATOM     23  O1  non d ame     -36.305   7.242  30.599  0.00  0.00    -0.218 OA
ATOM     24  N1  non d ame     -36.171   6.898  29.339  0.00  0.00    -0.123 NA
BRANCH  21  25
ATOM     25  C3  non d ame     -35.883   9.187  32.148  0.00  0.00    -0.029 C 
ATOM     26  H2  non d ame     -35.857   8.462  32.961  0.00  0.00     0.036 H 
ATOM     27  H3  non d ame     -35.006   9.831  32.207  0.00  0.00     0.036 H 
ATOM     28  H4  non d ame     -36.785   9.793  32.230  0.00  0.00     0.036 H 
ENDBRANCH  21  25
ENDBRANCH  16  19
ENDBRANCH  13  15
BRANCH  13  29
ATOM     29  C8  non d ame     -35.257  10.333  24.395  0.00  0.00    -0.049 C 
ATOM     30  H7  non d ame     -35.208  10.209  23.313  0.00  0.00     0.030 H 
ATOM     31  H8  non d ame     -36.299  10.389  24.707  0.00  0.00     0.030 H 
ATOM     32  H9  non d ame     -34.742  11.251  24.678  0.00  0.00     0.030 H 
ENDBRANCH  13  29
ENDBRANCH  10  13
ENDBRANCH   7   9
BRANCH   7  33
ATOM     33  C11 non d ame     -30.649   9.268  22.292  0.00  0.00    -0.033 C 
ATOM     34  H12 non d ame     -30.494   9.990  21.490  0.00  0.00     0.042 H 
BRANCH  33  35
ATOM     35  C12 non d ame     -29.304   8.505  22.502  0.00  0.00    -0.071 C 
ATOM     36  H13 non d ame     -28.593   9.156  23.012  0.00  0.00     0.028 H 
ATOM     37  H14 non d ame     -29.481   7.616  23.107  0.00  0.00     0.028 H 
ATOM     38  H15 non d ame     -28.898   8.211  21.534  0.00  0.00     0.028 H 
ENDBRANCH  33  35
BRANCH  33  39
ATOM     39  C13 non d ame     -31.789   8.294  21.852  0.00  0.00    -0.071 C 
ATOM     40  H16 non d ame     -32.592   8.863  21.382  0.00  0.00     0.028 H 
ATOM     41  H17 non d ame     -31.394   7.568  21.141  0.00  0.00     0.028 H 
ATOM     42  H18 non d ame     -32.177   7.771  22.726  0.00  0.00     0.028 H 
ENDBRANCH  33  39
ENDBRANCH   7  33
ENDBRANCH   4   7
ENDBRANCH   1   3
BRANCH   1  43
ATOM     43  C15 non d ame     -31.576  14.764  25.298  0.00  0.00     0.240 C 
ATOM     44  O5  non d ame     -30.945  15.047  26.265  0.00  0.00    -0.271 OA
ATOM     45  N6  non d ame     -32.999  15.194  25.188  0.00  0.00    -0.355 N 
ATOM     46  H46 non d ame     -33.543  14.963  24.369  0.00  0.00     0.162 HD
BRANCH  45  47
ATOM     47  C20 non d ame     -33.619  15.964  26.288  0.00  0.00     0.013 C 
ATOM     48  H30 non d ame     -32.978  15.871  27.165  0.00  0.00     0.072 H 
BRANCH  47  49
ATOM     49  C21 non d ame     -34.988  15.396  26.586  0.00  0.00    -0.038 C 
ATOM     50  H31 non d ame     -35.014  15.240  27.665  0.00  0.00     0.036 H 
ATOM     51  H32 non d ame     -35.697  16.076  26.116  0.00  0.00     0.036 H 
BRANCH  49  52
ATOM     52  C22 non d ame     -35.216  14.012  25.940  0.00  0.00     0.018 C 
ATOM     53  H33 non d ame     -35.994  14.160  25.193  0.00  0.00     0.048 H 
ATOM     54  H34 non d ame     -34.229  13.661  25.638  0.00  0.00     0.048 H 
BRANCH  52  55
ATOM     55  C23 non d ame     -35.767  12.944  26.926  0.00  0.00     0.259 C 
ATOM     56  O7  non d ame     -36.926  12.899  27.180  0.00  0.00    -0.265 OA
BRANCH  55  57
ATOM     57  O8  non d ame     -34.866  12.025  27.532  0.00  0.00    -0.317 OA
BRANCH  57  58
ATOM     58  C29 non d ame     -33.502  12.201  27.139  0.00  0.00     0.052 C 
ATOM     59  H47 non d ame     -33.257  11.333  26.527  0.00  0.00     0.082 H 
ATOM     60  H48 non d ame     -33.445  13.202  26.711  0.00  0.00     0.082 H 
BRANCH  58  61
ATOM     61  C35 non d ame     -32.625  12.164  28.419  0.00  0.00    -0.034 A 
ATOM     62  C30 non d ame     -31.291  12.552  28.361  0.00  0.00    -0.075 A 
ATOM     63  C31 non d ame     -30.503  12.518  29.510  0.00  0.00    -0.082 A 
ATOM     64  H49 non d ame     -30.862  12.883  27.414  0.00  0.00     0.084 H 
ATOM     65  C32 non d ame     -31.054  12.091  30.721  0.00  0.00    -0.083 A 
ATOM     66  H50 non d ame     -29.458  12.825  29.462  0.00  0.00     0.083 H 
ATOM     67  C33 non d ame     -32.385  11.701  30.774  0.00  0.00    -0.082 A 
ATOM     68  H51 non d ame     -30.445  12.062  31.625  0.00  0.00     0.083 H 
ATOM     69  C34 non d ame     -33.177  11.736  29.628  0.00  0.00    -0.075 A 
ATOM     70  H52 non d ame     -32.812  11.366  31.720  0.00  0.00     0.083 H 
ATOM     71  H53 non d ame     -34.222  11.429  29.677  0.00  0.00     0.084 H 
ENDBRANCH  58  61
ENDBRANCH  57  58
ENDBRANCH  55  57
ENDBRANCH  52  55
ENDBRANCH  49  52
ENDBRANCH  47  49
BRANCH  47  72
ATOM     72  C24 non d ame     -33.752  17.430  25.881  0.00  0.00    -0.039 C 
ATOM     73  H35 non d ame     -32.746  17.747  25.606  0.00  0.00     0.036 H 
ATOM     74  H36 non d ame     -34.552  17.453  25.141  0.00  0.00     0.036 H 
BRANCH  72  75
ATOM     75  C25 non d ame     -34.218  18.346  27.110  0.00  0.00    -0.001 C 
ATOM     76  C26 non d ame     -35.587  19.164  26.711  0.00  0.00    -0.035 C 
ATOM     77  C27 non d ame     -35.403  20.479  26.976  0.00  0.00     0.085 C 
ATOM     78  H38 non d ame     -35.736  19.140  25.632  0.00  0.00     0.036 H 
ATOM     79  H39 non d ame     -36.400  18.881  27.380  0.00  0.00     0.036 H 
ATOM     80  N5  non d ame     -33.925  20.679  27.211  0.00  0.00    -0.049 N 
ATOM     81  H40 non d ame     -35.693  21.003  26.065  0.00  0.00     0.075 H 
ATOM     82  H41 non d ame     -35.938  20.667  27.906  0.00  0.00     0.075 H 
ATOM     83  C28 non d ame     -33.306  19.204  27.425  0.00  0.00     0.193 C 
ATOM     84  H42 non d ame     -33.549  21.065  26.356  0.00  0.00     0.280 HD
ATOM     85  H43 non d ame     -33.840  21.193  28.077  0.00  0.00     0.280 HD
ATOM     86  H44 non d ame     -33.041  18.854  28.423  0.00  0.00     0.129 H 
ATOM     87  H37 non d ame     -34.223  17.800  28.053  0.00  0.00     0.046 H 
BRANCH  83  88
ATOM     88  O6  non d ame     -32.123  19.047  26.639  0.00  0.00    -0.369 OA
ATOM     89  H45 non d ame     -32.286  19.365  25.748  0.00  0.00     0.212 HD
ENDBRANCH  83  88
ENDBRANCH  72  75
ENDBRANCH  47  72
ENDBRANCH  45  47
ENDBRANCH   1  43
BRANCH   1  90
ATOM     90  C16 non d ame     -31.400  14.472  22.807  0.00  0.00    -0.035 C 
ATOM     91  H21 non d ame     -31.510  13.588  22.180  0.00  0.00     0.037 H 
ATOM     92  H22 non d ame     -32.268  15.090  23.036  0.00  0.00     0.037 H 
BRANCH  90  93
ATOM     93  C17 non d ame     -30.376  15.401  22.080  0.00  0.00    -0.059 C 
ATOM     94  H23 non d ame     -30.656  16.433  22.295  0.00  0.00     0.038 H 
BRANCH  93  95
ATOM     95  C18 non d ame     -28.916  15.187  22.595  0.00  0.00    -0.073 C 
ATOM     96  H24 non d ame     -28.231  15.169  21.748  0.00  0.00     0.028 H 
ATOM     97  H25 non d ame     -28.644  16.001  23.265  0.00  0.00     0.028 H 
ATOM     98  H26 non d ame     -28.856  14.240  23.131  0.00  0.00     0.028 H 
ENDBRANCH  93  95
BRANCH  93  99
ATOM     99  C19 non d ame     -30.451  15.217  20.563  0.00  0.00    -0.073 C 
ATOM    100  H27 non d ame     -31.083  15.994  20.132  0.00  0.00     0.028 H 
ATOM    101  H28 non d ame     -29.449  15.287  20.137  0.00  0.00     0.028 H 
ATOM    102  H29 non d ame     -30.873  14.238  20.336  0.00  0.00     0.028 H 
ENDBRANCH  93  99
ENDBRANCH  90  93
ENDBRANCH   1  90
TORSDOF 26
ENDMDL
MODEL 12
REMARK VINA RESULT:      -6.6      2.289      6.880
REMARK  26 active torsions:
REMARK  status: ('A' for Active; 'I' for Inactive)
REMARK    1  A    between atoms: C2_2  and  C3_3 
REMARK    2  A    between atoms: C4_6  and  C5_7 
REMARK       I    between atoms: C5_7  and  N2_9 
REMARK    3  A    between atoms: N2_9  and  C6_10 
REMARK    4  A    between atoms: C6_10  and  C7_11 
REMARK    5  A    between atoms: C6_10  and  C8_13 
REMARK       I    between atoms: C7_11  and  N3_14 
REMARK    6  A    between atoms: N3_14  and  C9_15 
REMARK    7  A    between atoms: C9_15  and  C10_16 
REMARK    8  A    between atoms: C9_15  and  C11_18 
REMARK       I    between atoms: C10_16  and  N4_21 
REMARK    9  A    between atoms: C11_18  and  C12_19 
REMARK   10  A    between atoms: C11_18  and  C13_20 
REMARK   11  A    between atoms: N4_21  and  C14_22 
REMARK   12  A    between atoms: C14_22  and  C15_23 
REMARK   13  A    between atoms: C14_22  and  C16_25 
REMARK       I    between atoms: C15_23  and  N6_40 
REMARK   14  A    between atoms: C16_25  and  C17_26 
REMARK   15  A    between atoms: C17_26  and  C18_27 
REMARK   16  A    between atoms: C17_26  and  C19_28 
REMARK   17  A    between atoms: C20_29  and  C21_30 
REMARK   18  A    between atoms: C20_29  and  C24_33 
REMARK   19  A    between atoms: C20_29  and  N6_40 
REMARK   20  A    between atoms: C21_30  and  C22_31 
REMARK   21  A    between atoms: C22_31  and  C23_32 
REMARK   22  A    between atoms: C23_32  and  O8_43 
REMARK   23  A    between atoms: C24_33  and  C25_34 
REMARK   24  A    between atoms: C28_38  and  O6_39 
REMARK   25  A    between atoms: C29_42  and  O8_43 
REMARK   26  A    between atoms: C29_42  and  C35_49 
ROOT
ATOM      1  C14 non d ame     -32.273   9.256  24.862  0.00  0.00     0.089 C 
ATOM      2  H20 non d ame     -31.441   8.553  24.912  0.00  0.00     0.087 H 
ENDROOT
BRANCH   1   3
ATOM      3  N4  non d ame     -33.454   8.573  25.366  0.00  0.00    -0.346 N 
ATOM      4  C10 non d ame     -33.413   7.094  25.656  0.00  0.00     0.241 C 
ATOM      5  O4  non d ame     -32.418   6.474  25.474  0.00  0.00    -0.271 OA
ATOM      6  H19 non d ame     -34.292   9.118  25.512  0.00  0.00     0.163 HD
BRANCH   4   7
ATOM      7  C9  non d ame     -34.644   6.404  26.183  0.00  0.00     0.092 C 
ATOM      8  H11 non d ame     -34.361   5.442  26.610  0.00  0.00     0.088 H 
BRANCH   7   9
ATOM      9  N3  non d ame     -35.228   7.203  27.265  0.00  0.00    -0.346 N 
ATOM     10  C7  non d ame     -35.719   6.555  28.456  0.00  0.00     0.240 C 
ATOM     11  O3  non d ame     -35.654   5.391  28.560  0.00  0.00    -0.271 OA
ATOM     12  H10 non d ame     -35.292   8.208  27.189  0.00  0.00     0.163 HD
BRANCH  10  13
ATOM     13  C6  non d ame     -36.342   7.410  29.602  0.00  0.00     0.086 C 
ATOM     14  H6  non d ame     -36.251   6.936  30.579  0.00  0.00     0.086 H 
BRANCH  13  15
ATOM     15  N2  non d ame     -35.630   8.675  29.686  0.00  0.00    -0.343 N 
ATOM     16  C5  non d ame     -34.588   8.850  30.700  0.00  0.00     0.273 C 
ATOM     17  O2  non d ame     -34.331   7.969  31.445  0.00  0.00    -0.266 OA
ATOM     18  H5  non d ame     -35.858   9.424  29.048  0.00  0.00     0.163 HD
BRANCH  16  19
ATOM     19  C4  non d ame     -33.826  10.181  30.799  0.00  0.00     0.154 A 
ATOM     20  C1  non d ame     -32.807  10.662  29.918  0.00  0.00    -0.017 A 
ATOM     21  C2  non d ame     -32.436  11.920  30.442  0.00  0.00     0.077 A 
ATOM     22  H1  non d ame     -32.398  10.172  29.034  0.00  0.00     0.091 H 
ATOM     23  O1  non d ame     -33.165  12.129  31.500  0.00  0.00    -0.218 OA
ATOM     24  N1  non d ame     -33.983  11.128  31.729  0.00  0.00    -0.123 NA
BRANCH  21  25
ATOM     25  C3  non d ame     -31.381  12.859  29.873  0.00  0.00    -0.029 C 
ATOM     26  H2  non d ame     -31.394  12.804  28.785  0.00  0.00     0.036 H 
ATOM     27  H3  non d ame     -31.596  13.880  30.187  0.00  0.00     0.036 H 
ATOM     28  H4  non d ame     -30.398  12.565  30.240  0.00  0.00     0.036 H 
ENDBRANCH  21  25
ENDBRANCH  16  19
ENDBRANCH  13  15
BRANCH  13  29
ATOM     29  C8  non d ame     -37.801   7.657  29.314  0.00  0.00    -0.049 C 
ATOM     30  H7  non d ame     -38.359   7.669  30.250  0.00  0.00     0.030 H 
ATOM     31  H8  non d ame     -37.914   8.617  28.811  0.00  0.00     0.030 H 
ATOM     32  H9  non d ame     -38.184   6.863  28.672  0.00  0.00     0.030 H 
ENDBRANCH  13  29
ENDBRANCH  10  13
ENDBRANCH   7   9
BRANCH   7  33
ATOM     33  C11 non d ame     -35.685   6.252  25.035  0.00  0.00    -0.033 C 
ATOM     34  H12 non d ame     -35.170   6.454  24.096  0.00  0.00     0.042 H 
BRANCH  33  35
ATOM     35  C12 non d ame     -36.241   4.795  24.961  0.00  0.00    -0.071 C 
ATOM     36  H13 non d ame     -36.903   4.616  25.808  0.00  0.00     0.028 H 
ATOM     37  H14 non d ame     -36.795   4.665  24.032  0.00  0.00     0.028 H 
ATOM     38  H15 non d ame     -35.412   4.088  24.993  0.00  0.00     0.028 H 
ENDBRANCH  33  35
BRANCH  33  39
ATOM     39  C13 non d ame     -36.841   7.292  25.187  0.00  0.00    -0.071 C 
ATOM     40  H16 non d ame     -37.729   6.794  25.575  0.00  0.00     0.028 H 
ATOM     41  H17 non d ame     -36.534   8.079  25.877  0.00  0.00     0.028 H 
ATOM     42  H18 non d ame     -37.065   7.730  24.214  0.00  0.00     0.028 H 
ENDBRANCH  33  39
ENDBRANCH   7  33
ENDBRANCH   4   7
ENDBRANCH   1   3
BRANCH   1  43
ATOM     43  C15 non d ame     -32.024  10.523  25.730  0.00  0.00     0.240 C 
ATOM     44  O5  non d ame     -31.436  10.428  26.758  0.00  0.00    -0.271 OA
ATOM     45  N6  non d ame     -32.512  11.856  25.274  0.00  0.00    -0.355 N 
ATOM     46  H46 non d ame     -33.009  11.949  24.400  0.00  0.00     0.162 HD
BRANCH  45  47
ATOM     47  C20 non d ame     -32.267  13.051  26.110  0.00  0.00     0.013 C 
ATOM     48  H30 non d ame     -32.087  12.715  27.131  0.00  0.00     0.072 H 
BRANCH  47  49
ATOM     49  C21 non d ame     -33.483  13.948  26.069  0.00  0.00    -0.038 C 
ATOM     50  H31 non d ame     -33.180  14.829  25.502  0.00  0.00     0.036 H 
ATOM     51  H32 non d ame     -34.299  13.321  25.708  0.00  0.00     0.036 H 
BRANCH  49  52
ATOM     52  C22 non d ame     -33.905  14.452  27.466  0.00  0.00     0.018 C 
ATOM     53  H33 non d ame     -34.962  14.700  27.384  0.00  0.00     0.048 H 
ATOM     54  H34 non d ame     -33.578  13.684  28.168  0.00  0.00     0.048 H 
BRANCH  52  55
ATOM     55  C23 non d ame     -33.191  15.762  27.901  0.00  0.00     0.259 C 
ATOM     56  O7  non d ame     -32.962  15.972  29.048  0.00  0.00    -0.265 OA
BRANCH  55  57
ATOM     57  O8  non d ame     -32.824  16.717  26.913  0.00  0.00    -0.317 OA
BRANCH  57  58
ATOM     58  C29 non d ame     -32.749  18.059  27.399  0.00  0.00     0.052 C 
ATOM     59  H47 non d ame     -32.730  17.978  28.486  0.00  0.00     0.082 H 
ATOM     60  H48 non d ame     -31.913  18.519  26.873  0.00  0.00     0.082 H 
BRANCH  58  61
ATOM     61  C35 non d ame     -34.053  18.792  26.984  0.00  0.00    -0.034 A 
ATOM     62  C30 non d ame     -34.590  18.593  25.717  0.00  0.00    -0.075 A 
ATOM     63  C31 non d ame     -35.761  19.252  25.344  0.00  0.00    -0.082 A 
ATOM     64  H49 non d ame     -34.094  17.922  25.016  0.00  0.00     0.084 H 
ATOM     65  C32 non d ame     -36.394  20.114  26.243  0.00  0.00    -0.083 A 
ATOM     66  H50 non d ame     -36.181  19.092  24.350  0.00  0.00     0.083 H 
ATOM     67  C33 non d ame     -35.851  20.312  27.505  0.00  0.00    -0.082 A 
ATOM     68  H51 non d ame     -37.310  20.632  25.959  0.00  0.00     0.083 H 
ATOM     69  C34 non d ame     -34.683  19.655  27.883  0.00  0.00    -0.075 A 
ATOM     70  H52 non d ame     -36.346  20.988  28.204  0.00  0.00     0.083 H 
ATOM     71  H53 non d ame     -34.264  19.815  28.877  0.00  0.00     0.084 H 
ENDBRANCH  58  61
ENDBRANCH  57  58
ENDBRANCH  55  57
ENDBRANCH  52  55
ENDBRANCH  49  52
ENDBRANCH  47  49
BRANCH  47  72
ATOM     72  C24 non d ame     -31.053  13.812  25.581  0.00  0.00    -0.039 C 
ATOM     73  H35 non d ame     -30.978  14.705  26.201  0.00  0.00     0.036 H 
ATOM     74  H36 non d ame     -30.239  13.087  25.569  0.00  0.00     0.036 H 
BRANCH  72  75
ATOM     75  C25 non d ame     -31.273  14.301  24.071  0.00  0.00    -0.001 C 
ATOM     76  C26 non d ame     -30.299  13.447  23.058  0.00  0.00    -0.035 C 
ATOM     77  C27 non d ame     -29.608  14.316  22.282  0.00  0.00     0.085 C 
ATOM     78  H38 non d ame     -29.520  12.940  23.628  0.00  0.00     0.036 H 
ATOM     79  H39 non d ame     -30.901  12.889  22.342  0.00  0.00     0.036 H 
ATOM     80  N5  non d ame     -29.777  15.686  22.894  0.00  0.00    -0.049 N 
ATOM     81  H40 non d ame     -28.564  14.015  22.366  0.00  0.00     0.075 H 
ATOM     82  H41 non d ame     -30.104  14.297  21.312  0.00  0.00     0.075 H 
ATOM     83  C28 non d ame     -30.998  15.556  23.942  0.00  0.00     0.193 C 
ATOM     84  H42 non d ame     -28.930  15.875  23.410  0.00  0.00     0.280 HD
ATOM     85  H43 non d ame     -30.060  16.300  22.144  0.00  0.00     0.280 HD
ATOM     86  H44 non d ame     -31.984  15.950  23.695  0.00  0.00     0.129 H 
ATOM     87  H37 non d ame     -32.329  14.364  23.807  0.00  0.00     0.046 H 
BRANCH  83  88
ATOM     88  O6  non d ame     -30.646  16.162  25.187  0.00  0.00    -0.369 OA
ATOM     89  H45 non d ame     -29.715  16.396  25.176  0.00  0.00     0.212 HD
ENDBRANCH  83  88
ENDBRANCH  72  75
ENDBRANCH  47  72
ENDBRANCH  45  47
ENDBRANCH   1  43
BRANCH   1  90
ATOM     90  C16 non d ame     -32.514   9.665  23.418  0.00  0.00    -0.035 C 
ATOM     91  H21 non d ame     -33.438   9.165  23.127  0.00  0.00     0.037 H 
ATOM     92  H22 non d ame     -32.459  10.754  23.413  0.00  0.00     0.037 H 
BRANCH  90  93
ATOM     93  C17 non d ame     -31.412   9.164  22.431  0.00  0.00    -0.059 C 
ATOM     94  H23 non d ame     -31.663   9.537  21.438  0.00  0.00     0.038 H 
BRANCH  93  95
ATOM     95  C18 non d ame     -29.996   9.710  22.802  0.00  0.00    -0.073 C 
ATOM     96  H24 non d ame     -29.238   8.985  22.507  0.00  0.00     0.028 H 
ATOM     97  H25 non d ame     -29.821  10.650  22.281  0.00  0.00     0.028 H 
ATOM     98  H26 non d ame     -29.942   9.875  23.878  0.00  0.00     0.028 H 
ENDBRANCH  93  95
BRANCH  93  99
ATOM     99  C19 non d ame     -31.403   7.635  22.353  0.00  0.00    -0.073 C 
ATOM    100  H27 non d ame     -30.982   7.226  23.272  0.00  0.00     0.028 H 
ATOM    101  H28 non d ame     -32.424   7.271  22.229  0.00  0.00     0.028 H 
ATOM    102  H29 non d ame     -30.799   7.318  21.503  0.00  0.00     0.028 H 
ENDBRANCH  93  99
ENDBRANCH  90  93
ENDBRANCH   1  90
TORSDOF 26
ENDMDL
MODEL 13
REMARK VINA RESULT:      -6.6      2.345      9.200
REMARK  26 active torsions:
REMARK  status: ('A' for Active; 'I' for Inactive)
REMARK    1  A    between atoms: C2_2  and  C3_3 
REMARK    2  A    between atoms: C4_6  and  C5_7 
REMARK       I    between atoms: C5_7  and  N2_9 
REMARK    3  A    between atoms: N2_9  and  C6_10 
REMARK    4  A    between atoms: C6_10  and  C7_11 
REMARK    5  A    between atoms: C6_10  and  C8_13 
REMARK       I    between atoms: C7_11  and  N3_14 
REMARK    6  A    between atoms: N3_14  and  C9_15 
REMARK    7  A    between atoms: C9_15  and  C10_16 
REMARK    8  A    between atoms: C9_15  and  C11_18 
REMARK       I    between atoms: C10_16  and  N4_21 
REMARK    9  A    between atoms: C11_18  and  C12_19 
REMARK   10  A    between atoms: C11_18  and  C13_20 
REMARK   11  A    between atoms: N4_21  and  C14_22 
REMARK   12  A    between atoms: C14_22  and  C15_23 
REMARK   13  A    between atoms: C14_22  and  C16_25 
REMARK       I    between atoms: C15_23  and  N6_40 
REMARK   14  A    between atoms: C16_25  and  C17_26 
REMARK   15  A    between atoms: C17_26  and  C18_27 
REMARK   16  A    between atoms: C17_26  and  C19_28 
REMARK   17  A    between atoms: C20_29  and  C21_30 
REMARK   18  A    between atoms: C20_29  and  C24_33 
REMARK   19  A    between atoms: C20_29  and  N6_40 
REMARK   20  A    between atoms: C21_30  and  C22_31 
REMARK   21  A    between atoms: C22_31  and  C23_32 
REMARK   22  A    between atoms: C23_32  and  O8_43 
REMARK   23  A    between atoms: C24_33  and  C25_34 
REMARK   24  A    between atoms: C28_38  and  O6_39 
REMARK   25  A    between atoms: C29_42  and  O8_43 
REMARK   26  A    between atoms: C29_42  and  C35_49 
ROOT
ATOM      1  C14 non d ame     -31.104  13.343  24.601  0.00  0.00     0.089 C 
ATOM      2  H20 non d ame     -30.025  13.185  24.621  0.00  0.00     0.087 H 
ENDROOT
BRANCH   1   3
ATOM      3  N4  non d ame     -31.729  12.061  24.313  0.00  0.00    -0.346 N 
ATOM      4  C10 non d ame     -31.486  10.875  25.213  0.00  0.00     0.241 C 
ATOM      5  O4  non d ame     -30.781  10.977  26.162  0.00  0.00    -0.271 OA
ATOM      6  H19 non d ame     -32.324  11.994  23.499  0.00  0.00     0.163 HD
BRANCH   4   7
ATOM      7  C9  non d ame     -32.146   9.557  24.902  0.00  0.00     0.092 C 
ATOM      8  H11 non d ame     -31.428   8.752  25.055  0.00  0.00     0.088 H 
BRANCH   7   9
ATOM      9  N3  non d ame     -33.254   9.333  25.836  0.00  0.00    -0.346 N 
ATOM     10  C7  non d ame     -33.372   8.071  26.524  0.00  0.00     0.240 C 
ATOM     11  O3  non d ame     -32.585   7.225  26.337  0.00  0.00    -0.271 OA
ATOM     12  H10 non d ame     -33.941  10.053  26.006  0.00  0.00     0.163 HD
BRANCH  10  13
ATOM     13  C6  non d ame     -34.555   7.837  27.514  0.00  0.00     0.086 C 
ATOM     14  H6  non d ame     -35.342   7.214  27.091  0.00  0.00     0.086 H 
BRANCH  13  15
ATOM     15  N2  non d ame     -34.057   7.139  28.687  0.00  0.00    -0.343 N 
ATOM     16  C5  non d ame     -34.459   5.751  28.926  0.00  0.00     0.273 C 
ATOM     17  O2  non d ame     -35.187   5.207  28.170  0.00  0.00    -0.266 OA
ATOM     18  H5  non d ame     -33.437   7.612  29.330  0.00  0.00     0.163 HD
BRANCH  16  19
ATOM     19  C4  non d ame     -33.939   5.000  30.161  0.00  0.00     0.154 A 
ATOM     20  C1  non d ame     -32.919   3.997  30.197  0.00  0.00    -0.017 A 
ATOM     21  C2  non d ame     -32.817   3.630  31.558  0.00  0.00     0.077 A 
ATOM     22  H1  non d ame     -32.341   3.597  29.364  0.00  0.00     0.091 H 
ATOM     23  O1  non d ame     -33.681   4.345  32.217  0.00  0.00    -0.218 OA
ATOM     24  N1  non d ame     -34.348   5.152  31.424  0.00  0.00    -0.123 NA
BRANCH  21  25
ATOM     25  C3  non d ame     -31.870   2.591  32.143  0.00  0.00    -0.029 C 
ATOM     26  H2  non d ame     -31.354   2.073  31.335  0.00  0.00     0.036 H 
ATOM     27  H3  non d ame     -31.139   3.085  32.782  0.00  0.00     0.036 H 
ATOM     28  H4  non d ame     -32.439   1.871  32.731  0.00  0.00     0.036 H 
ENDBRANCH  21  25
ENDBRANCH  16  19
ENDBRANCH  13  15
BRANCH  13  29
ATOM     29  C8  non d ame     -35.147   9.164  27.916  0.00  0.00    -0.049 C 
ATOM     30  H7  non d ame     -36.231   9.127  27.804  0.00  0.00     0.030 H 
ATOM     31  H8  non d ame     -34.897   9.373  28.956  0.00  0.00     0.030 H 
ATOM     32  H9  non d ame     -34.743   9.951  27.279  0.00  0.00     0.030 H 
ENDBRANCH  13  29
ENDBRANCH  10  13
ENDBRANCH   7   9
BRANCH   7  33
ATOM     33  C11 non d ame     -32.696   9.583  23.446  0.00  0.00    -0.033 C 
ATOM     34  H12 non d ame     -32.627  10.610  23.087  0.00  0.00     0.042 H 
BRANCH  33  35
ATOM     35  C12 non d ame     -31.832   8.695  22.497  0.00  0.00    -0.071 C 
ATOM     36  H13 non d ame     -30.830   8.586  22.913  0.00  0.00     0.028 H 
ATOM     37  H14 non d ame     -32.294   7.713  22.398  0.00  0.00     0.028 H 
ATOM     38  H15 non d ame     -31.768   9.167  21.517  0.00  0.00     0.028 H 
ENDBRANCH  33  35
BRANCH  33  39
ATOM     39  C13 non d ame     -34.199   9.157  23.408  0.00  0.00    -0.071 C 
ATOM     40  H16 non d ame     -34.340   8.269  24.025  0.00  0.00     0.028 H 
ATOM     41  H17 non d ame     -34.816   9.969  23.792  0.00  0.00     0.028 H 
ATOM     42  H18 non d ame     -34.488   8.936  22.381  0.00  0.00     0.028 H 
ENDBRANCH  33  39
ENDBRANCH   7  33
ENDBRANCH   4   7
ENDBRANCH   1   3
BRANCH   1  43
ATOM     43  C15 non d ame     -31.647  13.864  25.962  0.00  0.00     0.240 C 
ATOM     44  O5  non d ame     -31.077  14.738  26.531  0.00  0.00    -0.271 OA
ATOM     45  N6  non d ame     -32.884  13.279  26.553  0.00  0.00    -0.355 N 
ATOM     46  H46 non d ame     -33.380  12.539  26.077  0.00  0.00     0.162 HD
BRANCH  45  47
ATOM     47  C20 non d ame     -33.389  13.786  27.847  0.00  0.00     0.013 C 
ATOM     48  H30 non d ame     -34.134  13.082  28.216  0.00  0.00     0.072 H 
BRANCH  47  49
ATOM     49  C21 non d ame     -34.019  15.145  27.640  0.00  0.00    -0.038 C 
ATOM     50  H31 non d ame     -34.511  15.389  28.582  0.00  0.00     0.036 H 
ATOM     51  H32 non d ame     -33.222  15.784  27.260  0.00  0.00     0.036 H 
BRANCH  49  52
ATOM     52  C22 non d ame     -35.123  15.135  26.561  0.00  0.00     0.018 C 
ATOM     53  H33 non d ame     -34.781  15.814  25.781  0.00  0.00     0.048 H 
ATOM     54  H34 non d ame     -35.300  14.084  26.329  0.00  0.00     0.048 H 
BRANCH  52  55
ATOM     55  C23 non d ame     -36.485  15.699  27.053  0.00  0.00     0.259 C 
ATOM     56  O7  non d ame     -37.506  15.207  26.696  0.00  0.00    -0.265 OA
BRANCH  55  57
ATOM     57  O8  non d ame     -36.499  16.822  27.926  0.00  0.00    -0.317 OA
BRANCH  57  58
ATOM     58  C29 non d ame     -36.695  18.074  27.261  0.00  0.00     0.052 C 
ATOM     59  H47 non d ame     -37.151  17.830  26.302  0.00  0.00     0.082 H 
ATOM     60  H48 non d ame     -37.226  18.706  27.972  0.00  0.00     0.082 H 
BRANCH  58  61
ATOM     61  C35 non d ame     -35.299  18.699  26.997  0.00  0.00    -0.034 A 
ATOM     62  C30 non d ame     -34.815  18.797  25.696  0.00  0.00    -0.075 A 
ATOM     63  C31 non d ame     -33.561  19.358  25.458  0.00  0.00    -0.082 A 
ATOM     64  H49 non d ame     -35.417  18.433  24.863  0.00  0.00     0.084 H 
ATOM     65  C32 non d ame     -32.789  19.820  26.528  0.00  0.00    -0.083 A 
ATOM     66  H50 non d ame     -33.185  19.434  24.438  0.00  0.00     0.083 H 
ATOM     67  C33 non d ame     -33.275  19.718  27.824  0.00  0.00    -0.082 A 
ATOM     68  H51 non d ame     -31.808  20.261  26.351  0.00  0.00     0.083 H 
ATOM     69  C34 non d ame     -34.529  19.159  28.066  0.00  0.00    -0.075 A 
ATOM     70  H52 non d ame     -32.670  20.077  28.656  0.00  0.00     0.083 H 
ATOM     71  H53 non d ame     -34.904  19.083  29.087  0.00  0.00     0.084 H 
ENDBRANCH  58  61
ENDBRANCH  57  58
ENDBRANCH  55  57
ENDBRANCH  52  55
ENDBRANCH  49  52
ENDBRANCH  47  49
BRANCH  47  72
ATOM     72  C24 non d ame     -32.235  13.906  28.841  0.00  0.00    -0.039 C 
ATOM     73  H35 non d ame     -31.457  14.462  28.316  0.00  0.00     0.036 H 
ATOM     74  H36 non d ame     -32.676  14.313  29.750  0.00  0.00     0.036 H 
BRANCH  72  75
ATOM     75  C25 non d ame     -31.622  12.473  29.212  0.00  0.00    -0.001 C 
ATOM     76  C26 non d ame     -32.826  11.357  29.307  0.00  0.00    -0.035 C 
ATOM     77  C27 non d ame     -32.719  10.700  30.487  0.00  0.00     0.085 C 
ATOM     78  H38 non d ame     -33.792  11.855  29.379  0.00  0.00     0.036 H 
ATOM     79  H39 non d ame     -32.669  10.574  28.565  0.00  0.00     0.036 H 
ATOM     80  N5  non d ame     -31.757  11.485  31.345  0.00  0.00    -0.049 N 
ATOM     81  H40 non d ame     -33.712  10.743  30.935  0.00  0.00     0.075 H 
ATOM     82  H41 non d ame     -32.273   9.736  30.244  0.00  0.00     0.075 H 
ATOM     83  C28 non d ame     -31.006  12.508  30.347  0.00  0.00     0.193 C 
ATOM     84  H42 non d ame     -32.320  12.020  31.990  0.00  0.00     0.280 HD
ATOM     85  H43 non d ame     -31.080  10.822  31.694  0.00  0.00     0.280 HD
ATOM     86  H44 non d ame     -29.983  12.315  30.023  0.00  0.00     0.129 H 
ATOM     87  H37 non d ame     -30.759  12.221  28.596  0.00  0.00     0.046 H 
BRANCH  83  88
ATOM     88  O6  non d ame     -30.987  13.821  30.910  0.00  0.00    -0.369 OA
ATOM     89  H45 non d ame     -31.494  13.827  31.725  0.00  0.00     0.212 HD
ENDBRANCH  83  88
ENDBRANCH  72  75
ENDBRANCH  47  72
ENDBRANCH  45  47
ENDBRANCH   1  43
BRANCH   1  90
ATOM     90  C16 non d ame     -31.459  14.327  23.498  0.00  0.00    -0.035 C 
ATOM     91  H21 non d ame     -32.080  13.767  22.800  0.00  0.00     0.037 H 
ATOM     92  H22 non d ame     -31.866  15.200  24.010  0.00  0.00     0.037 H 
BRANCH  90  93
ATOM     93  C17 non d ame     -30.224  14.829  22.684  0.00  0.00    -0.059 C 
ATOM     94  H23 non d ame     -29.530  15.290  23.387  0.00  0.00     0.038 H 
BRANCH  93  95
ATOM     95  C18 non d ame     -29.473  13.659  21.972  0.00  0.00    -0.073 C 
ATOM     96  H24 non d ame     -28.410  13.712  22.207  0.00  0.00     0.028 H 
ATOM     97  H25 non d ame     -29.873  12.706  22.318  0.00  0.00     0.028 H 
ATOM     98  H26 non d ame     -29.611  13.741  20.894  0.00  0.00     0.028 H 
ENDBRANCH  93  95
BRANCH  93  99
ATOM     99  C19 non d ame     -30.634  15.906  21.677  0.00  0.00    -0.073 C 
ATOM    100  H27 non d ame     -31.533  16.412  22.031  0.00  0.00     0.028 H 
ATOM    101  H28 non d ame     -29.827  16.631  21.570  0.00  0.00     0.028 H 
ATOM    102  H29 non d ame     -30.835  15.443  20.711  0.00  0.00     0.028 H 
ENDBRANCH  93  99
ENDBRANCH  90  93
ENDBRANCH   1  90
TORSDOF 26
ENDMDL
MODEL 14
REMARK VINA RESULT:      -6.4      1.525      1.937
REMARK  26 active torsions:
REMARK  status: ('A' for Active; 'I' for Inactive)
REMARK    1  A    between atoms: C2_2  and  C3_3 
REMARK    2  A    between atoms: C4_6  and  C5_7 
REMARK       I    between atoms: C5_7  and  N2_9 
REMARK    3  A    between atoms: N2_9  and  C6_10 
REMARK    4  A    between atoms: C6_10  and  C7_11 
REMARK    5  A    between atoms: C6_10  and  C8_13 
REMARK       I    between atoms: C7_11  and  N3_14 
REMARK    6  A    between atoms: N3_14  and  C9_15 
REMARK    7  A    between atoms: C9_15  and  C10_16 
REMARK    8  A    between atoms: C9_15  and  C11_18 
REMARK       I    between atoms: C10_16  and  N4_21 
REMARK    9  A    between atoms: C11_18  and  C12_19 
REMARK   10  A    between atoms: C11_18  and  C13_20 
REMARK   11  A    between atoms: N4_21  and  C14_22 
REMARK   12  A    between atoms: C14_22  and  C15_23 
REMARK   13  A    between atoms: C14_22  and  C16_25 
REMARK       I    between atoms: C15_23  and  N6_40 
REMARK   14  A    between atoms: C16_25  and  C17_26 
REMARK   15  A    between atoms: C17_26  and  C18_27 
REMARK   16  A    between atoms: C17_26  and  C19_28 
REMARK   17  A    between atoms: C20_29  and  C21_30 
REMARK   18  A    between atoms: C20_29  and  C24_33 
REMARK   19  A    between atoms: C20_29  and  N6_40 
REMARK   20  A    between atoms: C21_30  and  C22_31 
REMARK   21  A    between atoms: C22_31  and  C23_32 
REMARK   22  A    between atoms: C23_32  and  O8_43 
REMARK   23  A    between atoms: C24_33  and  C25_34 
REMARK   24  A    between atoms: C28_38  and  O6_39 
REMARK   25  A    between atoms: C29_42  and  O8_43 
REMARK   26  A    between atoms: C29_42  and  C35_49 
ROOT
ATOM      1  C14 non d ame     -33.603   6.888  26.181  0.00  0.00     0.089 C 
ATOM      2  H20 non d ame     -33.311   6.508  27.160  0.00  0.00     0.087 H 
ENDROOT
BRANCH   1   3
ATOM      3  N4  non d ame     -33.981   8.283  26.346  0.00  0.00    -0.346 N 
ATOM      4  C10 non d ame     -34.041   8.898  27.722  0.00  0.00     0.241 C 
ATOM      5  O4  non d ame     -33.783   8.248  28.681  0.00  0.00    -0.271 OA
ATOM      6  H19 non d ame     -34.199   8.818  25.518  0.00  0.00     0.163 HD
BRANCH   4   7
ATOM      7  C9  non d ame     -34.429  10.345  27.875  0.00  0.00     0.092 C 
ATOM      8  H11 non d ame     -35.007  10.467  28.791  0.00  0.00     0.088 H 
BRANCH   7   9
ATOM      9  N3  non d ame     -33.221  11.164  28.012  0.00  0.00    -0.346 N 
ATOM     10  C7  non d ame     -32.797  11.610  29.316  0.00  0.00     0.240 C 
ATOM     11  O3  non d ame     -33.418  11.321  30.266  0.00  0.00    -0.271 OA
ATOM     12  H10 non d ame     -32.677  11.423  27.201  0.00  0.00     0.163 HD
BRANCH  10  13
ATOM     13  C6  non d ame     -31.512  12.484  29.455  0.00  0.00     0.086 C 
ATOM     14  H6  non d ame     -30.786  12.294  28.665  0.00  0.00     0.086 H 
BRANCH  13  15
ATOM     15  N2  non d ame     -31.881  13.886  29.352  0.00  0.00    -0.343 N 
ATOM     16  C5  non d ame     -31.958  14.516  28.032  0.00  0.00     0.273 C 
ATOM     17  O2  non d ame     -31.717  13.888  27.060  0.00  0.00    -0.266 OA
ATOM     18  H5  non d ame     -32.083  14.416  30.188  0.00  0.00     0.163 HD
BRANCH  16  19
ATOM     19  C4  non d ame     -32.348  15.997  27.908  0.00  0.00     0.154 A 
ATOM     20  C1  non d ame     -32.463  16.763  26.704  0.00  0.00    -0.017 A 
ATOM     21  C2  non d ame     -32.845  18.055  27.130  0.00  0.00     0.077 A 
ATOM     22  H1  non d ame     -32.295  16.432  25.679  0.00  0.00     0.091 H 
ATOM     23  O1  non d ame     -32.938  18.023  28.428  0.00  0.00    -0.218 OA
ATOM     24  N1  non d ame     -32.652  16.833  28.904  0.00  0.00    -0.123 NA
BRANCH  21  25
ATOM     25  C3  non d ame     -33.103  19.260  26.236  0.00  0.00    -0.029 C 
ATOM     26  H2  non d ame     -33.951  19.825  26.621  0.00  0.00     0.036 H 
ATOM     27  H3  non d ame     -32.219  19.897  26.222  0.00  0.00     0.036 H 
ATOM     28  H4  non d ame     -33.322  18.921  25.223  0.00  0.00     0.036 H 
ENDBRANCH  21  25
ENDBRANCH  16  19
ENDBRANCH  13  15
BRANCH  13  29
ATOM     29  C8  non d ame     -30.862  12.218  30.789  0.00  0.00    -0.049 C 
ATOM     30  H7  non d ame     -30.146  13.010  31.009  0.00  0.00     0.030 H 
ATOM     31  H8  non d ame     -31.626  12.194  31.566  0.00  0.00     0.030 H 
ATOM     32  H9  non d ame     -30.345  11.259  30.757  0.00  0.00     0.030 H 
ENDBRANCH  13  29
ENDBRANCH  10  13
ENDBRANCH   7   9
BRANCH   7  33
ATOM     33  C11 non d ame     -35.224  10.805  26.617  0.00  0.00    -0.033 C 
ATOM     34  H12 non d ame     -35.101  10.038  25.853  0.00  0.00     0.042 H 
BRANCH  33  35
ATOM     35  C12 non d ame     -36.750  10.924  26.921  0.00  0.00    -0.071 C 
ATOM     36  H13 non d ame     -37.154  11.801  26.415  0.00  0.00     0.028 H 
ATOM     37  H14 non d ame     -37.262  10.030  26.565  0.00  0.00     0.028 H 
ATOM     38  H15 non d ame     -36.900  11.024  27.996  0.00  0.00     0.028 H 
ENDBRANCH  33  35
BRANCH  33  39
ATOM     39  C13 non d ame     -34.653  12.145  26.053  0.00  0.00    -0.071 C 
ATOM     40  H16 non d ame     -33.567  12.147  26.152  0.00  0.00     0.028 H 
ATOM     41  H17 non d ame     -34.922  12.241  25.001  0.00  0.00     0.028 H 
ATOM     42  H18 non d ame     -35.071  12.982  26.612  0.00  0.00     0.028 H 
ENDBRANCH  33  39
ENDBRANCH   7  33
ENDBRANCH   4   7
ENDBRANCH   1   3
BRANCH   1  43
ATOM     43  C15 non d ame     -32.441   6.809  25.149  0.00  0.00     0.240 C 
ATOM     44  O5  non d ame     -31.490   6.134  25.381  0.00  0.00    -0.271 OA
ATOM     45  N6  non d ame     -32.517   7.569  23.869  0.00  0.00    -0.355 N 
ATOM     46  H46 non d ame     -33.322   8.141  23.659  0.00  0.00     0.162 HD
BRANCH  45  47
ATOM     47  C20 non d ame     -31.405   7.482  22.898  0.00  0.00     0.013 C 
ATOM     48  H30 non d ame     -30.531   7.097  23.423  0.00  0.00     0.072 H 
BRANCH  47  49
ATOM     49  C21 non d ame     -31.113   8.860  22.348  0.00  0.00    -0.038 C 
ATOM     50  H31 non d ame     -30.496   8.700  21.464  0.00  0.00     0.036 H 
ATOM     51  H32 non d ame     -32.082   9.351  22.256  0.00  0.00     0.036 H 
BRANCH  49  52
ATOM     52  C22 non d ame     -30.275   9.725  23.315  0.00  0.00     0.018 C 
ATOM     53  H33 non d ame     -29.802   9.026  24.003  0.00  0.00     0.048 H 
ATOM     54  H34 non d ame     -29.661  10.366  22.681  0.00  0.00     0.048 H 
BRANCH  52  55
ATOM     55  C23 non d ame     -31.125  10.683  24.195  0.00  0.00     0.259 C 
ATOM     56  O7  non d ame     -31.814  10.253  25.062  0.00  0.00    -0.265 OA
BRANCH  55  57
ATOM     57  O8  non d ame     -31.082  12.082  23.944  0.00  0.00    -0.317 OA
BRANCH  57  58
ATOM     58  C29 non d ame     -30.020  12.486  23.076  0.00  0.00     0.052 C 
ATOM     59  H47 non d ame     -29.134  12.557  23.706  0.00  0.00     0.082 H 
ATOM     60  H48 non d ame     -30.039  11.785  22.241  0.00  0.00     0.082 H 
BRANCH  58  61
ATOM     61  C35 non d ame     -30.354  13.902  22.536  0.00  0.00    -0.034 A 
ATOM     62  C30 non d ame     -31.071  14.796  23.324  0.00  0.00    -0.075 A 
ATOM     63  C31 non d ame     -31.371  16.068  22.839  0.00  0.00    -0.082 A 
ATOM     64  H49 non d ame     -31.398  14.501  24.321  0.00  0.00     0.084 H 
ATOM     65  C32 non d ame     -30.954  16.444  21.560  0.00  0.00    -0.083 A 
ATOM     66  H50 non d ame     -31.932  16.768  23.460  0.00  0.00     0.083 H 
ATOM     67  C33 non d ame     -30.241  15.547  20.776  0.00  0.00    -0.082 A 
ATOM     68  H51 non d ame     -31.184  17.437  21.173  0.00  0.00     0.083 H 
ATOM     69  C34 non d ame     -29.937  14.275  21.257  0.00  0.00    -0.075 A 
ATOM     70  H52 non d ame     -29.919  15.843  19.777  0.00  0.00     0.083 H 
ATOM     71  H53 non d ame     -29.376  13.577  20.635  0.00  0.00     0.084 H 
ENDBRANCH  58  61
ENDBRANCH  57  58
ENDBRANCH  55  57
ENDBRANCH  52  55
ENDBRANCH  49  52
ENDBRANCH  47  49
BRANCH  47  72
ATOM     72  C24 non d ame     -31.790   6.547  21.753  0.00  0.00    -0.039 C 
ATOM     73  H35 non d ame     -31.661   7.134  20.844  0.00  0.00     0.036 H 
ATOM     74  H36 non d ame     -31.201   5.643  21.906  0.00  0.00     0.036 H 
BRANCH  72  75
ATOM     75  C25 non d ame     -33.333   6.124  21.827  0.00  0.00    -0.001 C 
ATOM     76  C26 non d ame     -33.459   4.536  22.236  0.00  0.00    -0.035 C 
ATOM     77  C27 non d ame     -34.270   3.919  21.342  0.00  0.00     0.085 C 
ATOM     78  H38 non d ame     -32.501   4.037  22.097  0.00  0.00     0.036 H 
ATOM     79  H39 non d ame     -33.996   4.434  23.179  0.00  0.00     0.036 H 
ATOM     80  N5  non d ame     -34.444   4.864  20.178  0.00  0.00    -0.049 N 
ATOM     81  H40 non d ame     -33.718   3.040  21.008  0.00  0.00     0.075 H 
ATOM     82  H41 non d ame     -35.226   3.801  21.850  0.00  0.00     0.075 H 
ATOM     83  C28 non d ame     -33.922   6.303  20.692  0.00  0.00     0.193 C 
ATOM     84  H42 non d ame     -33.825   4.538  19.450  0.00  0.00     0.280 HD
ATOM     85  H43 non d ame     -35.438   4.925  20.007  0.00  0.00     0.280 HD
ATOM     86  H44 non d ame     -34.631   7.087  20.958  0.00  0.00     0.129 H 
ATOM     87  H37 non d ame     -33.929   6.833  22.403  0.00  0.00     0.046 H 
BRANCH  83  88
ATOM     88  O6  non d ame     -33.053   6.887  19.720  0.00  0.00    -0.369 OA
ATOM     89  H45 non d ame     -32.847   6.238  19.044  0.00  0.00     0.212 HD
ENDBRANCH  83  88
ENDBRANCH  72  75
ENDBRANCH  47  72
ENDBRANCH  45  47
ENDBRANCH   1  43
BRANCH   1  90
ATOM     90  C16 non d ame     -34.800   6.108  25.662  0.00  0.00    -0.035 C 
ATOM     91  H21 non d ame     -35.666   6.734  25.873  0.00  0.00     0.037 H 
ATOM     92  H22 non d ame     -34.553   5.849  24.632  0.00  0.00     0.037 H 
BRANCH  90  93
ATOM     93  C17 non d ame     -35.040   4.758  26.410  0.00  0.00    -0.059 C 
ATOM     94  H23 non d ame     -36.080   4.473  26.254  0.00  0.00     0.038 H 
BRANCH  93  95
ATOM     95  C18 non d ame     -34.142   3.607  25.852  0.00  0.00    -0.073 C 
ATOM     96  H24 non d ame     -33.097   3.823  26.070  0.00  0.00     0.028 H 
ATOM     97  H25 non d ame     -34.423   2.666  26.323  0.00  0.00     0.028 H 
ATOM     98  H26 non d ame     -34.280   3.529  24.774  0.00  0.00     0.028 H 
ENDBRANCH  93  95
BRANCH  93  99
ATOM     99  C19 non d ame     -34.836   4.925  27.918  0.00  0.00    -0.073 C 
ATOM    100  H27 non d ame     -35.683   4.491  28.450  0.00  0.00     0.028 H 
ATOM    101  H28 non d ame     -33.920   4.417  28.220  0.00  0.00     0.028 H 
ATOM    102  H29 non d ame     -34.759   5.985  28.159  0.00  0.00     0.028 H 
ENDBRANCH  93  99
ENDBRANCH  90  93
ENDBRANCH   1  90
TORSDOF 26
ENDMDL
MODEL 15
REMARK VINA RESULT:      -6.4      1.644      2.207
REMARK  26 active torsions:
REMARK  status: ('A' for Active; 'I' for Inactive)
REMARK    1  A    between atoms: C2_2  and  C3_3 
REMARK    2  A    between atoms: C4_6  and  C5_7 
REMARK       I    between atoms: C5_7  and  N2_9 
REMARK    3  A    between atoms: N2_9  and  C6_10 
REMARK    4  A    between atoms: C6_10  and  C7_11 
REMARK    5  A    between atoms: C6_10  and  C8_13 
REMARK       I    between atoms: C7_11  and  N3_14 
REMARK    6  A    between atoms: N3_14  and  C9_15 
REMARK    7  A    between atoms: C9_15  and  C10_16 
REMARK    8  A    between atoms: C9_15  and  C11_18 
REMARK       I    between atoms: C10_16  and  N4_21 
REMARK    9  A    between atoms: C11_18  and  C12_19 
REMARK   10  A    between atoms: C11_18  and  C13_20 
REMARK   11  A    between atoms: N4_21  and  C14_22 
REMARK   12  A    between atoms: C14_22  and  C15_23 
REMARK   13  A    between atoms: C14_22  and  C16_25 
REMARK       I    between atoms: C15_23  and  N6_40 
REMARK   14  A    between atoms: C16_25  and  C17_26 
REMARK   15  A    between atoms: C17_26  and  C18_27 
REMARK   16  A    between atoms: C17_26  and  C19_28 
REMARK   17  A    between atoms: C20_29  and  C21_30 
REMARK   18  A    between atoms: C20_29  and  C24_33 
REMARK   19  A    between atoms: C20_29  and  N6_40 
REMARK   20  A    between atoms: C21_30  and  C22_31 
REMARK   21  A    between atoms: C22_31  and  C23_32 
REMARK   22  A    between atoms: C23_32  and  O8_43 
REMARK   23  A    between atoms: C24_33  and  C25_34 
REMARK   24  A    between atoms: C28_38  and  O6_39 
REMARK   25  A    between atoms: C29_42  and  O8_43 
REMARK   26  A    between atoms: C29_42  and  C35_49 
ROOT
ATOM      1  C14 non d ame     -34.098   7.009  27.621  0.00  0.00     0.089 C 
ATOM      2  H20 non d ame     -33.854   6.372  28.472  0.00  0.00     0.087 H 
ENDROOT
BRANCH   1   3
ATOM      3  N4  non d ame     -34.478   8.313  28.143  0.00  0.00    -0.346 N 
ATOM      4  C10 non d ame     -35.026   8.443  29.542  0.00  0.00     0.241 C 
ATOM      5  O4  non d ame     -35.155   7.483  30.228  0.00  0.00    -0.271 OA
ATOM      6  H19 non d ame     -34.362   9.117  27.543  0.00  0.00     0.163 HD
BRANCH   4   7
ATOM      7  C9  non d ame     -35.409   9.801  30.068  0.00  0.00     0.092 C 
ATOM      8  H11 non d ame     -35.331   9.800  31.155  0.00  0.00     0.088 H 
BRANCH   7   9
ATOM      9  N3  non d ame     -34.463  10.804  29.568  0.00  0.00    -0.346 N 
ATOM     10  C7  non d ame     -33.295  11.142  30.342  0.00  0.00     0.240 C 
ATOM     11  O3  non d ame     -33.100  10.618  31.371  0.00  0.00    -0.271 OA
ATOM     12  H10 non d ame     -34.619  11.266  28.683  0.00  0.00     0.163 HD
BRANCH  10  13
ATOM     13  C6  non d ame     -32.293  12.212  29.806  0.00  0.00     0.086 C 
ATOM     14  H6  non d ame     -31.888  11.957  28.827  0.00  0.00     0.086 H 
BRANCH  13  15
ATOM     15  N2  non d ame     -32.994  13.476  29.650  0.00  0.00    -0.343 N 
ATOM     16  C5  non d ame     -32.627  14.372  28.551  0.00  0.00     0.273 C 
ATOM     17  O2  non d ame     -31.766  14.069  27.800  0.00  0.00    -0.266 OA
ATOM     18  H5  non d ame     -33.727  13.728  30.297  0.00  0.00     0.163 HD
BRANCH  16  19
ATOM     19  C4  non d ame     -33.360  15.711  28.373  0.00  0.00     0.154 A 
ATOM     20  C1  non d ame     -34.678  15.913  27.854  0.00  0.00    -0.017 A 
ATOM     21  C2  non d ame     -34.877  17.311  27.899  0.00  0.00     0.077 A 
ATOM     22  H1  non d ame     -35.383  15.160  27.500  0.00  0.00     0.091 H 
ATOM     23  O1  non d ame     -33.794  17.840  28.389  0.00  0.00    -0.218 OA
ATOM     24  N1  non d ame     -32.894  16.927  28.672  0.00  0.00    -0.123 NA
BRANCH  21  25
ATOM     25  C3  non d ame     -36.128  18.058  27.457  0.00  0.00    -0.029 C 
ATOM     26  H2  non d ame     -36.785  18.206  28.314  0.00  0.00     0.036 H 
ATOM     27  H3  non d ame     -35.845  19.027  27.045  0.00  0.00     0.036 H 
ATOM     28  H4  non d ame     -36.648  17.478  26.696  0.00  0.00     0.036 H 
ENDBRANCH  21  25
ENDBRANCH  16  19
ENDBRANCH  13  15
BRANCH  13  29
ATOM     29  C8  non d ame     -31.153  12.370  30.780  0.00  0.00    -0.049 C 
ATOM     30  H7  non d ame     -31.550  12.487  31.788  0.00  0.00     0.030 H 
ATOM     31  H8  non d ame     -30.517  11.486  30.741  0.00  0.00     0.030 H 
ATOM     32  H9  non d ame     -30.568  13.251  30.515  0.00  0.00     0.030 H 
ENDBRANCH  13  29
ENDBRANCH  10  13
ENDBRANCH   7   9
BRANCH   7  33
ATOM     33  C11 non d ame     -36.845  10.159  29.584  0.00  0.00    -0.033 C 
ATOM     34  H12 non d ame     -36.764  11.029  28.932  0.00  0.00     0.042 H 
BRANCH  33  35
ATOM     35  C12 non d ame     -37.467   9.000  28.745  0.00  0.00    -0.071 C 
ATOM     36  H13 non d ame     -37.124   8.043  29.137  0.00  0.00     0.028 H 
ATOM     37  H14 non d ame     -38.554   9.050  28.807  0.00  0.00     0.028 H 
ATOM     38  H15 non d ame     -37.157   9.098  27.704  0.00  0.00     0.028 H 
ENDBRANCH  33  35
BRANCH  33  39
ATOM     39  C13 non d ame     -37.762  10.542  30.789  0.00  0.00    -0.071 C 
ATOM     40  H16 non d ame     -38.799  10.313  30.543  0.00  0.00     0.028 H 
ATOM     41  H17 non d ame     -37.462   9.972  31.669  0.00  0.00     0.028 H 
ATOM     42  H18 non d ame     -37.664  11.608  30.997  0.00  0.00     0.028 H 
ENDBRANCH  33  39
ENDBRANCH   7  33
ENDBRANCH   4   7
ENDBRANCH   1   3
BRANCH   1  43
ATOM     43  C15 non d ame     -32.889   7.193  26.660  0.00  0.00     0.240 C 
ATOM     44  O5  non d ame     -31.781   7.069  27.073  0.00  0.00    -0.271 OA
ATOM     45  N6  non d ame     -33.112   7.516  25.222  0.00  0.00    -0.355 N 
ATOM     46  H46 non d ame     -34.048   7.619  24.858  0.00  0.00     0.162 HD
BRANCH  45  47
ATOM     47  C20 non d ame     -31.951   7.686  24.321  0.00  0.00     0.013 C 
ATOM     48  H30 non d ame     -31.119   8.066  24.913  0.00  0.00     0.072 H 
BRANCH  47  49
ATOM     49  C21 non d ame     -32.305   8.675  23.233  0.00  0.00    -0.038 C 
ATOM     50  H31 non d ame     -33.221   8.299  22.779  0.00  0.00     0.036 H 
ATOM     51  H32 non d ame     -32.296   9.655  23.712  0.00  0.00     0.036 H 
BRANCH  49  52
ATOM     52  C22 non d ame     -31.250   8.730  22.107  0.00  0.00     0.018 C 
ATOM     53  H33 non d ame     -30.928   7.700  21.954  0.00  0.00     0.048 H 
ATOM     54  H34 non d ame     -31.717   9.282  21.291  0.00  0.00     0.048 H 
BRANCH  52  55
ATOM     55  C23 non d ame     -29.970   9.526  22.486  0.00  0.00     0.259 C 
ATOM     56  O7  non d ame     -29.035   8.972  22.966  0.00  0.00    -0.265 OA
BRANCH  55  57
ATOM     57  O8  non d ame     -29.932  10.930  22.263  0.00  0.00    -0.317 OA
BRANCH  57  58
ATOM     58  C29 non d ame     -30.362  11.710  23.383  0.00  0.00     0.052 C 
ATOM     59  H47 non d ame     -31.400  11.426  23.558  0.00  0.00     0.082 H 
ATOM     60  H48 non d ame     -29.615  11.548  24.159  0.00  0.00     0.082 H 
BRANCH  58  61
ATOM     61  C35 non d ame     -30.324  13.205  22.969  0.00  0.00    -0.034 A 
ATOM     62  C30 non d ame     -31.031  14.150  23.706  0.00  0.00    -0.075 A 
ATOM     63  C31 non d ame     -30.997  15.493  23.334  0.00  0.00    -0.082 A 
ATOM     64  H49 non d ame     -31.612  13.838  24.573  0.00  0.00     0.084 H 
ATOM     65  C32 non d ame     -30.253  15.890  22.219  0.00  0.00    -0.083 A 
ATOM     66  H50 non d ame     -31.551  16.231  23.914  0.00  0.00     0.083 H 
ATOM     67  C33 non d ame     -29.552  14.943  21.485  0.00  0.00    -0.082 A 
ATOM     68  H51 non d ame     -30.220  16.938  21.922  0.00  0.00     0.083 H 
ATOM     69  C34 non d ame     -29.581  13.600  21.854  0.00  0.00    -0.075 A 
ATOM     70  H52 non d ame     -28.975  15.255  20.615  0.00  0.00     0.083 H 
ATOM     71  H53 non d ame     -29.027  12.862  21.274  0.00  0.00     0.084 H 
ENDBRANCH  58  61
ENDBRANCH  57  58
ENDBRANCH  55  57
ENDBRANCH  52  55
ENDBRANCH  49  52
ENDBRANCH  47  49
BRANCH  47  72
ATOM     72  C24 non d ame     -31.585   6.344  23.690  0.00  0.00    -0.039 C 
ATOM     73  H35 non d ame     -30.935   6.586  22.849  0.00  0.00     0.036 H 
ATOM     74  H36 non d ame     -31.210   5.731  24.510  0.00  0.00     0.036 H 
BRANCH  72  75
ATOM     75  C25 non d ame     -32.872   5.599  23.094  0.00  0.00    -0.001 C 
ATOM     76  C26 non d ame     -33.291   4.341  24.066  0.00  0.00    -0.035 C 
ATOM     77  C27 non d ame     -33.417   3.226  23.307  0.00  0.00     0.085 C 
ATOM     78  H38 non d ame     -32.470   4.099  24.740  0.00  0.00     0.036 H 
ATOM     79  H39 non d ame     -34.295   4.494  24.463  0.00  0.00     0.036 H 
ATOM     80  N5  non d ame     -32.804   3.535  21.963  0.00  0.00    -0.049 N 
ATOM     81  H40 non d ame     -32.816   2.466  23.806  0.00  0.00     0.075 H 
ATOM     82  H41 non d ame     -34.489   3.078  23.183  0.00  0.00     0.075 H 
ATOM     83  C28 non d ame     -32.639   5.140  21.909  0.00  0.00     0.193 C 
ATOM     84  H42 non d ame     -31.885   3.117  21.964  0.00  0.00     0.280 HD
ATOM     85  H43 non d ame     -33.484   3.259  21.269  0.00  0.00     0.280 HD
ATOM     86  H44 non d ame     -33.327   5.749  21.322  0.00  0.00     0.129 H 
ATOM     87  H37 non d ame     -33.662   6.297  22.817  0.00  0.00     0.046 H 
BRANCH  83  88
ATOM     88  O6  non d ame     -31.333   5.486  21.444  0.00  0.00    -0.369 OA
ATOM     89  H45 non d ame     -30.838   5.898  22.157  0.00  0.00     0.212 HD
ENDBRANCH  83  88
ENDBRANCH  72  75
ENDBRANCH  47  72
ENDBRANCH  45  47
ENDBRANCH   1  43
BRANCH   1  90
ATOM     90  C16 non d ame     -35.273   6.419  26.857  0.00  0.00    -0.035 C 
ATOM     91  H21 non d ame     -36.124   7.052  27.103  0.00  0.00     0.037 H 
ATOM     92  H22 non d ame     -34.934   6.338  25.824  0.00  0.00     0.037 H 
BRANCH  90  93
ATOM     93  C17 non d ame     -35.653   4.973  27.311  0.00  0.00    -0.059 C 
ATOM     94  H23 non d ame     -36.022   4.438  26.436  0.00  0.00     0.038 H 
BRANCH  93  95
ATOM     95  C18 non d ame     -34.422   4.187  27.867  0.00  0.00    -0.073 C 
ATOM     96  H24 non d ame     -34.730   3.591  28.725  0.00  0.00     0.028 H 
ATOM     97  H25 non d ame     -34.030   3.531  27.091  0.00  0.00     0.028 H 
ATOM     98  H26 non d ame     -33.649   4.892  28.172  0.00  0.00     0.028 H 
ENDBRANCH  93  95
BRANCH  93  99
ATOM     99  C19 non d ame     -36.789   5.004  28.337  0.00  0.00    -0.073 C 
ATOM    100  H27 non d ame     -37.119   3.986  28.545  0.00  0.00     0.028 H 
ATOM    101  H28 non d ame     -36.434   5.465  29.259  0.00  0.00     0.028 H 
ATOM    102  H29 non d ame     -37.622   5.583  27.940  0.00  0.00     0.028 H 
ENDBRANCH  93  99
ENDBRANCH  90  93
ENDBRANCH   1  90
TORSDOF 26
ENDMDL
MODEL 16
REMARK VINA RESULT:      -6.4      2.528      5.842
REMARK  26 active torsions:
REMARK  status: ('A' for Active; 'I' for Inactive)
REMARK    1  A    between atoms: C2_2  and  C3_3 
REMARK    2  A    between atoms: C4_6  and  C5_7 
REMARK       I    between atoms: C5_7  and  N2_9 
REMARK    3  A    between atoms: N2_9  and  C6_10 
REMARK    4  A    between atoms: C6_10  and  C7_11 
REMARK    5  A    between atoms: C6_10  and  C8_13 
REMARK       I    between atoms: C7_11  and  N3_14 
REMARK    6  A    between atoms: N3_14  and  C9_15 
REMARK    7  A    between atoms: C9_15  and  C10_16 
REMARK    8  A    between atoms: C9_15  and  C11_18 
REMARK       I    between atoms: C10_16  and  N4_21 
REMARK    9  A    between atoms: C11_18  and  C12_19 
REMARK   10  A    between atoms: C11_18  and  C13_20 
REMARK   11  A    between atoms: N4_21  and  C14_22 
REMARK   12  A    between atoms: C14_22  and  C15_23 
REMARK   13  A    between atoms: C14_22  and  C16_25 
REMARK       I    between atoms: C15_23  and  N6_40 
REMARK   14  A    between atoms: C16_25  and  C17_26 
REMARK   15  A    between atoms: C17_26  and  C18_27 
REMARK   16  A    between atoms: C17_26  and  C19_28 
REMARK   17  A    between atoms: C20_29  and  C21_30 
REMARK   18  A    between atoms: C20_29  and  C24_33 
REMARK   19  A    between atoms: C20_29  and  N6_40 
REMARK   20  A    between atoms: C21_30  and  C22_31 
REMARK   21  A    between atoms: C22_31  and  C23_32 
REMARK   22  A    between atoms: C23_32  and  O8_43 
REMARK   23  A    between atoms: C24_33  and  C25_34 
REMARK   24  A    between atoms: C28_38  and  O6_39 
REMARK   25  A    between atoms: C29_42  and  O8_43 
REMARK   26  A    between atoms: C29_42  and  C35_49 
ROOT
ATOM      1  C14 non d ame     -34.957   8.416  31.525  0.00  0.00     0.089 C 
ATOM      2  H20 non d ame     -34.528   8.555  32.517  0.00  0.00     0.087 H 
ENDROOT
BRANCH   1   3
ATOM      3  N4  non d ame     -34.100   9.110  30.575  0.00  0.00    -0.346 N 
ATOM      4  C10 non d ame     -33.588  10.495  30.883  0.00  0.00     0.241 C 
ATOM      5  O4  non d ame     -33.881  11.031  31.900  0.00  0.00    -0.271 OA
ATOM      6  H19 non d ame     -33.864   8.637  29.714  0.00  0.00     0.163 HD
BRANCH   4   7
ATOM      7  C9  non d ame     -32.697  11.196  29.891  0.00  0.00     0.092 C 
ATOM      8  H11 non d ame     -32.045  10.464  29.415  0.00  0.00     0.088 H 
BRANCH   7   9
ATOM      9  N3  non d ame     -33.518  11.797  28.836  0.00  0.00    -0.346 N 
ATOM     10  C7  non d ame     -33.521  11.226  27.512  0.00  0.00     0.240 C 
ATOM     11  O3  non d ame     -32.868  10.283  27.278  0.00  0.00    -0.271 OA
ATOM     12  H10 non d ame     -34.086  12.612  29.023  0.00  0.00     0.163 HD
BRANCH  10  13
ATOM     13  C6  non d ame     -34.395  11.872  26.392  0.00  0.00     0.086 C 
ATOM     14  H6  non d ame     -35.120  12.585  26.782  0.00  0.00     0.086 H 
BRANCH  13  15
ATOM     15  N2  non d ame     -33.531  12.610  25.487  0.00  0.00    -0.343 N 
ATOM     16  C5  non d ame     -33.101  13.964  25.844  0.00  0.00     0.273 C 
ATOM     17  O2  non d ame     -33.459  14.451  26.860  0.00  0.00    -0.266 OA
ATOM     18  H5  non d ame     -33.232  12.187  24.619  0.00  0.00     0.163 HD
BRANCH  16  19
ATOM     19  C4  non d ame     -32.186  14.756  24.897  0.00  0.00     0.154 A 
ATOM     20  C1  non d ame     -31.038  14.268  24.196  0.00  0.00    -0.017 A 
ATOM     21  C2  non d ame     -30.556  15.380  23.469  0.00  0.00     0.077 A 
ATOM     22  H1  non d ame     -30.618  13.262  24.212  0.00  0.00     0.091 H 
ATOM     23  O1  non d ame     -31.344  16.383  23.728  0.00  0.00    -0.218 OA
ATOM     24  N1  non d ame     -32.302  16.043  24.559  0.00  0.00    -0.123 NA
BRANCH  21  25
ATOM     25  C3  non d ame     -29.341  15.400  22.551  0.00  0.00    -0.029 C 
ATOM     26  H2  non d ame     -29.630  15.788  21.574  0.00  0.00     0.036 H 
ATOM     27  H3  non d ame     -28.571  16.038  22.982  0.00  0.00     0.036 H 
ATOM     28  H4  non d ame     -28.954  14.387  22.439  0.00  0.00     0.036 H 
ENDBRANCH  21  25
ENDBRANCH  16  19
ENDBRANCH  13  15
BRANCH  13  29
ATOM     29  C8  non d ame     -35.130  10.792  25.639  0.00  0.00    -0.049 C 
ATOM     30  H7  non d ame     -34.851   9.817  26.037  0.00  0.00     0.030 H 
ATOM     31  H8  non d ame     -36.204  10.937  25.753  0.00  0.00     0.030 H 
ATOM     32  H9  non d ame     -34.866  10.842  24.582  0.00  0.00     0.030 H 
ENDBRANCH  13  29
ENDBRANCH  10  13
ENDBRANCH   7   9
BRANCH   7  33
ATOM     33  C11 non d ame     -31.891  12.313  30.617  0.00  0.00    -0.033 C 
ATOM     34  H12 non d ame     -32.402  12.530  31.555  0.00  0.00     0.042 H 
BRANCH  33  35
ATOM     35  C12 non d ame     -30.448  11.836  30.969  0.00  0.00    -0.071 C 
ATOM     36  H13 non d ame     -30.320  11.833  32.052  0.00  0.00     0.028 H 
ATOM     37  H14 non d ame     -30.294  10.829  30.582  0.00  0.00     0.028 H 
ATOM     38  H15 non d ame     -29.722  12.513  30.520  0.00  0.00     0.028 H 
ENDBRANCH  33  35
BRANCH  33  39
ATOM     39  C13 non d ame     -31.863  13.624  29.768  0.00  0.00    -0.071 C 
ATOM     40  H16 non d ame     -32.863  13.832  29.387  0.00  0.00     0.028 H 
ATOM     41  H17 non d ame     -31.533  14.455  30.393  0.00  0.00     0.028 H 
ATOM     42  H18 non d ame     -31.173  13.502  28.933  0.00  0.00     0.028 H 
ENDBRANCH  33  39
ENDBRANCH   7  33
ENDBRANCH   4   7
ENDBRANCH   1   3
BRANCH   1  43
ATOM     43  C15 non d ame     -35.030   6.915  31.121  0.00  0.00     0.240 C 
ATOM     44  O5  non d ame     -35.519   6.127  31.864  0.00  0.00    -0.271 OA
ATOM     45  N6  non d ame     -34.499   6.463  29.803  0.00  0.00    -0.355 N 
ATOM     46  H46 non d ame     -34.086   7.125  29.162  0.00  0.00     0.162 HD
BRANCH  45  47
ATOM     47  C20 non d ame     -34.577   5.033  29.434  0.00  0.00     0.013 C 
ATOM     48  H30 non d ame     -34.940   4.482  30.301  0.00  0.00     0.072 H 
BRANCH  47  49
ATOM     49  C21 non d ame     -33.201   4.541  29.047  0.00  0.00    -0.038 C 
ATOM     50  H31 non d ame     -32.508   5.317  29.374  0.00  0.00     0.036 H 
ATOM     51  H32 non d ame     -33.124   3.533  29.455  0.00  0.00     0.036 H 
BRANCH  49  52
ATOM     52  C22 non d ame     -33.018   4.409  27.520  0.00  0.00     0.018 C 
ATOM     53  H33 non d ame     -32.163   3.749  27.380  0.00  0.00     0.048 H 
ATOM     54  H34 non d ame     -33.996   4.125  27.129  0.00  0.00     0.048 H 
BRANCH  52  55
ATOM     55  C23 non d ame     -32.648   5.743  26.815  0.00  0.00     0.259 C 
ATOM     56  O7  non d ame     -31.830   6.467  27.285  0.00  0.00    -0.265 OA
BRANCH  55  57
ATOM     57  O8  non d ame     -33.306   6.099  25.606  0.00  0.00    -0.317 OA
BRANCH  57  58
ATOM     58  C29 non d ame     -32.808   5.420  24.450  0.00  0.00     0.052 C 
ATOM     59  H47 non d ame     -32.006   4.775  24.810  0.00  0.00     0.082 H 
ATOM     60  H48 non d ame     -33.680   4.985  23.964  0.00  0.00     0.082 H 
BRANCH  58  61
ATOM     61  C35 non d ame     -32.194   6.481  23.498  0.00  0.00    -0.034 A 
ATOM     62  C30 non d ame     -33.007   7.163  22.598  0.00  0.00    -0.075 A 
ATOM     63  C31 non d ame     -32.455   8.116  21.742  0.00  0.00    -0.082 A 
ATOM     64  H49 non d ame     -34.075   6.950  22.562  0.00  0.00     0.084 H 
ATOM     65  C32 non d ame     -31.085   8.385  21.788  0.00  0.00    -0.083 A 
ATOM     66  H50 non d ame     -33.095   8.649  21.039  0.00  0.00     0.083 H 
ATOM     67  C33 non d ame     -30.277   7.700  22.686  0.00  0.00    -0.082 A 
ATOM     68  H51 non d ame     -30.646   9.129  21.124  0.00  0.00     0.083 H 
ATOM     69  C34 non d ame     -30.824   6.748  23.544  0.00  0.00    -0.075 A 
ATOM     70  H52 non d ame     -29.208   7.910  22.718  0.00  0.00     0.083 H 
ATOM     71  H53 non d ame     -30.183   6.215  24.247  0.00  0.00     0.084 H 
ENDBRANCH  58  61
ENDBRANCH  57  58
ENDBRANCH  55  57
ENDBRANCH  52  55
ENDBRANCH  49  52
ENDBRANCH  47  49
BRANCH  47  72
ATOM     72  C24 non d ame     -35.532   4.856  28.255  0.00  0.00    -0.039 C 
ATOM     73  H35 non d ame     -34.983   5.211  27.381  0.00  0.00     0.036 H 
ATOM     74  H36 non d ame     -35.865   3.820  28.304  0.00  0.00     0.036 H 
BRANCH  72  75
ATOM     75  C25 non d ame     -36.833   5.779  28.402  0.00  0.00    -0.001 C 
ATOM     76  C26 non d ame     -38.089   4.888  28.978  0.00  0.00    -0.035 C 
ATOM     77  C27 non d ame     -39.161   5.071  28.170  0.00  0.00     0.085 C 
ATOM     78  H38 non d ame     -37.871   3.825  28.875  0.00  0.00     0.036 H 
ATOM     79  H39 non d ame     -38.421   5.286  29.937  0.00  0.00     0.036 H 
ATOM     80  N5  non d ame     -38.659   5.745  26.916  0.00  0.00    -0.049 N 
ATOM     81  H40 non d ame     -39.512   4.070  27.920  0.00  0.00     0.075 H 
ATOM     82  H41 non d ame     -39.814   5.759  28.706  0.00  0.00     0.075 H 
ATOM     83  C28 non d ame     -37.178   6.286  27.265  0.00  0.00     0.193 C 
ATOM     84  H42 non d ame     -38.580   5.023  26.215  0.00  0.00     0.280 HD
ATOM     85  H43 non d ame     -39.262   6.539  26.758  0.00  0.00     0.280 HD
ATOM     86  H44 non d ame     -37.007   7.344  27.460  0.00  0.00     0.129 H 
ATOM     87  H37 non d ame     -36.617   6.719  28.910  0.00  0.00     0.046 H 
BRANCH  83  88
ATOM     88  O6  non d ame     -36.267   5.937  26.221  0.00  0.00    -0.369 OA
ATOM     89  H45 non d ame     -36.403   5.020  25.971  0.00  0.00     0.212 HD
ENDBRANCH  83  88
ENDBRANCH  72  75
ENDBRANCH  47  72
ENDBRANCH  45  47
ENDBRANCH   1  43
BRANCH   1  90
ATOM     90  C16 non d ame     -36.349   9.027  31.476  0.00  0.00    -0.035 C 
ATOM     91  H21 non d ame     -36.937   8.462  32.199  0.00  0.00     0.037 H 
ATOM     92  H22 non d ame     -36.198  10.098  31.613  0.00  0.00     0.037 H 
BRANCH  90  93
ATOM     93  C17 non d ame     -37.061   8.854  30.097  0.00  0.00    -0.059 C 
ATOM     94  H23 non d ame     -36.519   8.091  29.538  0.00  0.00     0.038 H 
BRANCH  93  95
ATOM     95  C18 non d ame     -38.539   8.372  30.253  0.00  0.00    -0.073 C 
ATOM     96  H24 non d ame     -39.212   9.222  30.146  0.00  0.00     0.028 H 
ATOM     97  H25 non d ame     -38.763   7.633  29.484  0.00  0.00     0.028 H 
ATOM     98  H26 non d ame     -38.672   7.924  31.237  0.00  0.00     0.028 H 
ENDBRANCH  93  95
BRANCH  93  99
ATOM     99  C19 non d ame     -36.994  10.148  29.281  0.00  0.00    -0.073 C 
ATOM    100  H27 non d ame     -37.979  10.370  28.870  0.00  0.00     0.028 H 
ATOM    101  H28 non d ame     -36.675  10.968  29.925  0.00  0.00     0.028 H 
ATOM    102  H29 non d ame     -36.279  10.028  28.467  0.00  0.00     0.028 H 
ENDBRANCH  93  99
ENDBRANCH  90  93
ENDBRANCH   1  90
TORSDOF 26
ENDMDL
MODEL 17
REMARK VINA RESULT:      -6.3      2.929      9.120
REMARK  26 active torsions:
REMARK  status: ('A' for Active; 'I' for Inactive)
REMARK    1  A    between atoms: C2_2  and  C3_3 
REMARK    2  A    between atoms: C4_6  and  C5_7 
REMARK       I    between atoms: C5_7  and  N2_9 
REMARK    3  A    between atoms: N2_9  and  C6_10 
REMARK    4  A    between atoms: C6_10  and  C7_11 
REMARK    5  A    between atoms: C6_10  and  C8_13 
REMARK       I    between atoms: C7_11  and  N3_14 
REMARK    6  A    between atoms: N3_14  and  C9_15 
REMARK    7  A    between atoms: C9_15  and  C10_16 
REMARK    8  A    between atoms: C9_15  and  C11_18 
REMARK       I    between atoms: C10_16  and  N4_21 
REMARK    9  A    between atoms: C11_18  and  C12_19 
REMARK   10  A    between atoms: C11_18  and  C13_20 
REMARK   11  A    between atoms: N4_21  and  C14_22 
REMARK   12  A    between atoms: C14_22  and  C15_23 
REMARK   13  A    between atoms: C14_22  and  C16_25 
REMARK       I    between atoms: C15_23  and  N6_40 
REMARK   14  A    between atoms: C16_25  and  C17_26 
REMARK   15  A    between atoms: C17_26  and  C18_27 
REMARK   16  A    between atoms: C17_26  and  C19_28 
REMARK   17  A    between atoms: C20_29  and  C21_30 
REMARK   18  A    between atoms: C20_29  and  C24_33 
REMARK   19  A    between atoms: C20_29  and  N6_40 
REMARK   20  A    between atoms: C21_30  and  C22_31 
REMARK   21  A    between atoms: C22_31  and  C23_32 
REMARK   22  A    between atoms: C23_32  and  O8_43 
REMARK   23  A    between atoms: C24_33  and  C25_34 
REMARK   24  A    between atoms: C28_38  and  O6_39 
REMARK   25  A    between atoms: C29_42  and  O8_43 
REMARK   26  A    between atoms: C29_42  and  C35_49 
ROOT
ATOM      1  C14 non d ame     -32.746  12.795  28.096  0.00  0.00     0.089 C 
ATOM      2  H20 non d ame     -33.116  13.067  29.085  0.00  0.00     0.087 H 
ENDROOT
BRANCH   1   3
ATOM      3  N4  non d ame     -33.121  11.410  27.853  0.00  0.00    -0.346 N 
ATOM      4  C10 non d ame     -33.663  10.560  28.974  0.00  0.00     0.241 C 
ATOM      5  O4  non d ame     -33.785  11.011  30.065  0.00  0.00    -0.271 OA
ATOM      6  H19 non d ame     -33.007  11.043  26.919  0.00  0.00     0.163 HD
BRANCH   4   7
ATOM      7  C9  non d ame     -34.051   9.130  28.704  0.00  0.00     0.092 C 
ATOM      8  H11 non d ame     -33.570   8.483  29.437  0.00  0.00     0.088 H 
BRANCH   7   9
ATOM      9  N3  non d ame     -35.499   8.976  28.874  0.00  0.00    -0.346 N 
ATOM     10  C7  non d ame     -36.027   8.428  30.099  0.00  0.00     0.240 C 
ATOM     11  O3  non d ame     -35.300   8.103  30.958  0.00  0.00    -0.271 OA
ATOM     12  H10 non d ame     -36.138   9.250  28.141  0.00  0.00     0.163 HD
BRANCH  10  13
ATOM     13  C6  non d ame     -37.569   8.263  30.273  0.00  0.00     0.086 C 
ATOM     14  H6  non d ame     -38.138   8.797  29.512  0.00  0.00     0.086 H 
BRANCH  13  15
ATOM     15  N2  non d ame     -37.911   6.857  30.139  0.00  0.00    -0.343 N 
ATOM     16  C5  non d ame     -38.158   6.299  28.808  0.00  0.00     0.273 C 
ATOM     17  O2  non d ame     -38.082   6.989  27.852  0.00  0.00    -0.266 OA
ATOM     18  H5  non d ame     -37.977   6.275  30.962  0.00  0.00     0.163 HD
BRANCH  16  19
ATOM     19  C4  non d ame     -38.520   4.813  28.651  0.00  0.00     0.154 A 
ATOM     20  C1  non d ame     -37.826   3.832  27.874  0.00  0.00    -0.017 A 
ATOM     21  C2  non d ame     -38.554   2.636  28.065  0.00  0.00     0.077 A 
ATOM     22  H1  non d ame     -36.932   3.966  27.265  0.00  0.00     0.091 H 
ATOM     23  O1  non d ame     -39.546   2.910  28.861  0.00  0.00    -0.218 OA
ATOM     24  N1  non d ame     -39.548   4.174  29.216  0.00  0.00    -0.123 NA
BRANCH  21  25
ATOM     25  C3  non d ame     -38.235   1.279  27.452  0.00  0.00    -0.029 C 
ATOM     26  H2  non d ame     -39.099   0.623  27.552  0.00  0.00     0.036 H 
ATOM     27  H3  non d ame     -37.995   1.405  26.397  0.00  0.00     0.036 H 
ATOM     28  H4  non d ame     -37.383   0.838  27.969  0.00  0.00     0.036 H 
ENDBRANCH  21  25
ENDBRANCH  16  19
ENDBRANCH  13  15
BRANCH  13  29
ATOM     29  C8  non d ame     -37.980   8.768  31.632  0.00  0.00    -0.049 C 
ATOM     30  H7  non d ame     -38.942   9.276  31.555  0.00  0.00     0.030 H 
ATOM     31  H8  non d ame     -38.068   7.928  32.320  0.00  0.00     0.030 H 
ATOM     32  H9  non d ame     -37.230   9.466  32.004  0.00  0.00     0.030 H 
ENDBRANCH  13  29
ENDBRANCH  10  13
ENDBRANCH   7   9
BRANCH   7  33
ATOM     33  C11 non d ame     -33.660   8.753  27.245  0.00  0.00    -0.033 C 
ATOM     34  H12 non d ame     -33.284   9.655  26.762  0.00  0.00     0.042 H 
BRANCH  33  35
ATOM     35  C12 non d ame     -32.514   7.694  27.219  0.00  0.00    -0.071 C 
ATOM     36  H13 non d ame     -32.759   6.912  26.500  0.00  0.00     0.028 H 
ATOM     37  H14 non d ame     -31.581   8.176  26.928  0.00  0.00     0.028 H 
ATOM     38  H15 non d ame     -32.403   7.255  28.210  0.00  0.00     0.028 H 
ENDBRANCH  33  35
BRANCH  33  39
ATOM     39  C13 non d ame     -34.906   8.260  26.441  0.00  0.00    -0.071 C 
ATOM     40  H16 non d ame     -35.561   9.106  26.230  0.00  0.00     0.028 H 
ATOM     41  H17 non d ame     -34.579   7.809  25.504  0.00  0.00     0.028 H 
ATOM     42  H18 non d ame     -35.448   7.519  27.029  0.00  0.00     0.028 H 
ENDBRANCH  33  39
ENDBRANCH   7  33
ENDBRANCH   4   7
ENDBRANCH   1   3
BRANCH   1  43
ATOM     43  C15 non d ame     -33.362  13.679  26.974  0.00  0.00     0.240 C 
ATOM     44  O5  non d ame     -34.327  13.305  26.391  0.00  0.00    -0.271 OA
ATOM     45  N6  non d ame     -32.754  14.997  26.634  0.00  0.00    -0.355 N 
ATOM     46  H46 non d ame     -31.936  15.327  27.126  0.00  0.00     0.162 HD
BRANCH  45  47
ATOM     47  C20 non d ame     -33.353  15.826  25.566  0.00  0.00     0.013 C 
ATOM     48  H30 non d ame     -34.118  15.231  25.069  0.00  0.00     0.072 H 
BRANCH  47  49
ATOM     49  C21 non d ame     -32.279  16.218  24.577  0.00  0.00    -0.038 C 
ATOM     50  H31 non d ame     -32.636  15.879  23.604  0.00  0.00     0.036 H 
ATOM     51  H32 non d ame     -32.092  17.279  24.750  0.00  0.00     0.036 H 
BRANCH  49  52
ATOM     52  C22 non d ame     -30.939  15.493  24.827  0.00  0.00     0.018 C 
ATOM     53  H33 non d ame     -30.162  16.195  24.527  0.00  0.00     0.048 H 
ATOM     54  H34 non d ame     -30.984  15.137  25.857  0.00  0.00     0.048 H 
BRANCH  52  55
ATOM     55  C23 non d ame     -30.737  14.229  23.946  0.00  0.00     0.259 C 
ATOM     56  O7  non d ame     -29.882  14.199  23.121  0.00  0.00    -0.265 OA
BRANCH  55  57
ATOM     57  O8  non d ame     -31.596  13.109  24.126  0.00  0.00    -0.317 OA
BRANCH  57  58
ATOM     58  C29 non d ame     -30.972  11.995  24.771  0.00  0.00     0.052 C 
ATOM     59  H47 non d ame     -29.910  12.236  24.814  0.00  0.00     0.082 H 
ATOM     60  H48 non d ame     -31.532  11.835  25.691  0.00  0.00     0.082 H 
BRANCH  58  61
ATOM     61  C35 non d ame     -31.157  10.751  23.861  0.00  0.00    -0.034 A 
ATOM     62  C30 non d ame     -32.331  10.007  23.928  0.00  0.00    -0.075 A 
ATOM     63  C31 non d ame     -32.497   8.890  23.112  0.00  0.00    -0.082 A 
ATOM     64  H49 non d ame     -33.121  10.300  24.620  0.00  0.00     0.084 H 
ATOM     65  C32 non d ame     -31.482   8.514  22.228  0.00  0.00    -0.083 A 
ATOM     66  H50 non d ame     -33.419   8.310  23.166  0.00  0.00     0.083 H 
ATOM     67  C33 non d ame     -30.311   9.257  22.167  0.00  0.00    -0.082 A 
ATOM     68  H51 non d ame     -31.604   7.642  21.585  0.00  0.00     0.083 H 
ATOM     69  C34 non d ame     -30.141  10.376  22.979  0.00  0.00    -0.075 A 
ATOM     70  H52 non d ame     -29.520   8.960  21.478  0.00  0.00     0.083 H 
ATOM     71  H53 non d ame     -29.219  10.955  22.925  0.00  0.00     0.084 H 
ENDBRANCH  58  61
ENDBRANCH  57  58
ENDBRANCH  55  57
ENDBRANCH  52  55
ENDBRANCH  49  52
ENDBRANCH  47  49
BRANCH  47  72
ATOM     72  C24 non d ame     -33.970  17.084  26.174  0.00  0.00    -0.039 C 
ATOM     73  H35 non d ame     -34.691  17.439  25.437  0.00  0.00     0.036 H 
ATOM     74  H36 non d ame     -34.307  16.790  27.168  0.00  0.00     0.036 H 
BRANCH  72  75
ATOM     75  C25 non d ame     -32.882  18.244  26.367  0.00  0.00    -0.001 C 
ATOM     76  C26 non d ame     -32.531  18.423  27.964  0.00  0.00    -0.035 C 
ATOM     77  C27 non d ame     -32.656  19.730  28.294  0.00  0.00     0.085 C 
ATOM     78  H38 non d ame     -33.292  17.933  28.571  0.00  0.00     0.036 H 
ATOM     79  H39 non d ame     -31.475  18.215  28.140  0.00  0.00     0.036 H 
ATOM     80  N5  non d ame     -33.375  20.408  27.153  0.00  0.00    -0.049 N 
ATOM     81  H40 non d ame     -33.294  19.747  29.178  0.00  0.00     0.075 H 
ATOM     82  H41 non d ame     -31.638  20.114  28.351  0.00  0.00     0.075 H 
ATOM     83  C28 non d ame     -33.317  19.373  25.915  0.00  0.00     0.193 C 
ATOM     84  H42 non d ame     -34.337  20.511  27.442  0.00  0.00     0.280 HD
ATOM     85  H43 non d ame     -32.828  21.224  26.916  0.00  0.00     0.280 HD
ATOM     86  H44 non d ame     -32.625  19.536  25.089  0.00  0.00     0.129 H 
ATOM     87  H37 non d ame     -32.040  18.139  25.683  0.00  0.00     0.046 H 
BRANCH  83  88
ATOM     88  O6  non d ame     -34.607  19.251  25.314  0.00  0.00    -0.369 OA
ATOM     89  H45 non d ame     -35.002  18.414  25.569  0.00  0.00     0.212 HD
ENDBRANCH  83  88
ENDBRANCH  72  75
ENDBRANCH  47  72
ENDBRANCH  45  47
ENDBRANCH   1  43
BRANCH   1  90
ATOM     90  C16 non d ame     -31.230  12.911  28.064  0.00  0.00    -0.035 C 
ATOM     91  H21 non d ame     -30.864  11.890  27.957  0.00  0.00     0.037 H 
ATOM     92  H22 non d ame     -31.014  13.651  27.293  0.00  0.00     0.037 H 
BRANCH  90  93
ATOM     93  C17 non d ame     -30.616  13.463  29.389  0.00  0.00    -0.059 C 
ATOM     94  H23 non d ame     -29.541  13.561  29.240  0.00  0.00     0.038 H 
BRANCH  93  95
ATOM     95  C18 non d ame     -31.177  14.874  29.757  0.00  0.00    -0.073 C 
ATOM     96  H24 non d ame     -32.193  14.971  29.377  0.00  0.00     0.028 H 
ATOM     97  H25 non d ame     -31.182  14.992  30.840  0.00  0.00     0.028 H 
ATOM     98  H26 non d ame     -30.547  15.643  29.310  0.00  0.00     0.028 H 
ENDBRANCH  93  95
BRANCH  93  99
ATOM     99  C19 non d ame     -30.825  12.476  30.541  0.00  0.00    -0.073 C 
ATOM    100  H27 non d ame     -30.076  11.686  30.484  0.00  0.00     0.028 H 
ATOM    101  H28 non d ame     -30.728  13.001  31.492  0.00  0.00     0.028 H 
ATOM    102  H29 non d ame     -31.821  12.040  30.469  0.00  0.00     0.028 H 
ENDBRANCH  93  99
ENDBRANCH  90  93
ENDBRANCH   1  90
TORSDOF 26
ENDMDL
MODEL 18
REMARK VINA RESULT:      -6.3      2.850      8.283
REMARK  26 active torsions:
REMARK  status: ('A' for Active; 'I' for Inactive)
REMARK    1  A    between atoms: C2_2  and  C3_3 
REMARK    2  A    between atoms: C4_6  and  C5_7 
REMARK       I    between atoms: C5_7  and  N2_9 
REMARK    3  A    between atoms: N2_9  and  C6_10 
REMARK    4  A    between atoms: C6_10  and  C7_11 
REMARK    5  A    between atoms: C6_10  and  C8_13 
REMARK       I    between atoms: C7_11  and  N3_14 
REMARK    6  A    between atoms: N3_14  and  C9_15 
REMARK    7  A    between atoms: C9_15  and  C10_16 
REMARK    8  A    between atoms: C9_15  and  C11_18 
REMARK       I    between atoms: C10_16  and  N4_21 
REMARK    9  A    between atoms: C11_18  and  C12_19 
REMARK   10  A    between atoms: C11_18  and  C13_20 
REMARK   11  A    between atoms: N4_21  and  C14_22 
REMARK   12  A    between atoms: C14_22  and  C15_23 
REMARK   13  A    between atoms: C14_22  and  C16_25 
REMARK       I    between atoms: C15_23  and  N6_40 
REMARK   14  A    between atoms: C16_25  and  C17_26 
REMARK   15  A    between atoms: C17_26  and  C18_27 
REMARK   16  A    between atoms: C17_26  and  C19_28 
REMARK   17  A    between atoms: C20_29  and  C21_30 
REMARK   18  A    between atoms: C20_29  and  C24_33 
REMARK   19  A    between atoms: C20_29  and  N6_40 
REMARK   20  A    between atoms: C21_30  and  C22_31 
REMARK   21  A    between atoms: C22_31  and  C23_32 
REMARK   22  A    between atoms: C23_32  and  O8_43 
REMARK   23  A    between atoms: C24_33  and  C25_34 
REMARK   24  A    between atoms: C28_38  and  O6_39 
REMARK   25  A    between atoms: C29_42  and  O8_43 
REMARK   26  A    between atoms: C29_42  and  C35_49 
ROOT
ATOM      1  C14 non d ame     -31.602  13.919  26.709  0.00  0.00     0.089 C 
ATOM      2  H20 non d ame     -30.960  13.954  25.828  0.00  0.00     0.087 H 
ENDROOT
BRANCH   1   3
ATOM      3  N4  non d ame     -32.489  15.071  26.652  0.00  0.00    -0.346 N 
ATOM      4  C10 non d ame     -32.116  16.279  25.830  0.00  0.00     0.241 C 
ATOM      5  O4  non d ame     -31.095  16.302  25.226  0.00  0.00    -0.271 OA
ATOM      6  H19 non d ame     -33.353  15.032  27.175  0.00  0.00     0.163 HD
BRANCH   4   7
ATOM      7  C9  non d ame     -33.050  17.460  25.778  0.00  0.00     0.092 C 
ATOM      8  H11 non d ame     -33.180  17.768  24.740  0.00  0.00     0.088 H 
BRANCH   7   9
ATOM      9  N3  non d ame     -34.368  17.065  26.281  0.00  0.00    -0.346 N 
ATOM     10  C7  non d ame     -35.136  16.064  25.582  0.00  0.00     0.240 C 
ATOM     11  O3  non d ame     -34.709  15.569  24.611  0.00  0.00    -0.271 OA
ATOM     12  H10 non d ame     -34.751  17.484  27.117  0.00  0.00     0.163 HD
BRANCH  10  13
ATOM     13  C6  non d ame     -36.541  15.650  26.121  0.00  0.00     0.086 C 
ATOM     14  H6  non d ame     -37.282  15.546  25.329  0.00  0.00     0.086 H 
BRANCH  13  15
ATOM     15  N2  non d ame     -36.434  14.350  26.763  0.00  0.00    -0.343 N 
ATOM     16  C5  non d ame     -37.412  13.307  26.447  0.00  0.00     0.273 C 
ATOM     17  O2  non d ame     -38.282  13.524  25.677  0.00  0.00    -0.266 OA
ATOM     18  H5  non d ame     -35.688  14.174  27.422  0.00  0.00     0.163 HD
BRANCH  16  19
ATOM     19  C4  non d ame     -37.310  11.928  27.117  0.00  0.00     0.154 A 
ATOM     20  C1  non d ame     -36.635  10.770  26.616  0.00  0.00    -0.017 A 
ATOM     21  C2  non d ame     -36.838   9.776  27.599  0.00  0.00     0.077 A 
ATOM     22  H1  non d ame     -36.082  10.667  25.682  0.00  0.00     0.091 H 
ATOM     23  O1  non d ame     -37.547  10.311  28.550  0.00  0.00    -0.218 OA
ATOM     24  N1  non d ame     -37.835  11.566  28.291  0.00  0.00    -0.123 NA
BRANCH  21  25
ATOM     25  C3  non d ame     -36.322   8.344  27.554  0.00  0.00    -0.029 C 
ATOM     26  H2  non d ame     -36.230   8.023  26.517  0.00  0.00     0.036 H 
ATOM     27  H3  non d ame     -35.346   8.295  28.036  0.00  0.00     0.036 H 
ATOM     28  H4  non d ame     -37.019   7.690  28.077  0.00  0.00     0.036 H 
ENDBRANCH  21  25
ENDBRANCH  16  19
ENDBRANCH  13  15
BRANCH  13  29
ATOM     29  C8  non d ame     -37.025  16.677  27.112  0.00  0.00    -0.049 C 
ATOM     30  H7  non d ame     -37.173  16.204  28.083  0.00  0.00     0.030 H 
ATOM     31  H8  non d ame     -36.284  17.471  27.203  0.00  0.00     0.030 H 
ATOM     32  H9  non d ame     -37.969  17.099  26.766  0.00  0.00     0.030 H 
ENDBRANCH  13  29
ENDBRANCH  10  13
ENDBRANCH   7   9
BRANCH   7  33
ATOM     33  C11 non d ame     -32.483  18.609  26.663  0.00  0.00    -0.033 C 
ATOM     34  H12 non d ame     -31.395  18.565  26.601  0.00  0.00     0.042 H 
BRANCH  33  35
ATOM     35  C12 non d ame     -32.926  20.007  26.131  0.00  0.00    -0.071 C 
ATOM     36  H13 non d ame     -33.708  19.881  25.383  0.00  0.00     0.028 H 
ATOM     37  H14 non d ame     -33.308  20.606  26.958  0.00  0.00     0.028 H 
ATOM     38  H15 non d ame     -32.072  20.513  25.681  0.00  0.00     0.028 H 
ENDBRANCH  33  35
BRANCH  33  39
ATOM     39  C13 non d ame     -32.890  18.416  28.159  0.00  0.00    -0.071 C 
ATOM     40  H16 non d ame     -32.051  17.995  28.713  0.00  0.00     0.028 H 
ATOM     41  H17 non d ame     -33.164  19.380  28.588  0.00  0.00     0.028 H 
ATOM     42  H18 non d ame     -33.742  17.738  28.218  0.00  0.00     0.028 H 
ENDBRANCH  33  39
ENDBRANCH   7  33
ENDBRANCH   4   7
ENDBRANCH   1   3
BRANCH   1  43
ATOM     43  C15 non d ame     -32.468  12.627  26.753  0.00  0.00     0.240 C 
ATOM     44  O5  non d ame     -33.591  12.656  26.365  0.00  0.00    -0.271 OA
ATOM     45  N6  non d ame     -31.895  11.353  27.271  0.00  0.00    -0.355 N 
ATOM     46  H46 non d ame     -30.941  11.315  27.599  0.00  0.00     0.162 HD
BRANCH  45  47
ATOM     47  C20 non d ame     -32.731  10.133  27.305  0.00  0.00     0.013 C 
ATOM     48  H30 non d ame     -33.683  10.366  26.828  0.00  0.00     0.072 H 
BRANCH  47  49
ATOM     49  C21 non d ame     -32.960   9.724  28.743  0.00  0.00    -0.038 C 
ATOM     50  H31 non d ame     -33.510   8.784  28.698  0.00  0.00     0.036 H 
ATOM     51  H32 non d ame     -31.980   9.760  29.218  0.00  0.00     0.036 H 
BRANCH  49  52
ATOM     52  C22 non d ame     -33.856  10.718  29.513  0.00  0.00     0.018 C 
ATOM     53  H33 non d ame     -33.398  11.697  29.375  0.00  0.00     0.048 H 
ATOM     54  H34 non d ame     -34.871  10.536  29.159  0.00  0.00     0.048 H 
BRANCH  52  55
ATOM     55  C23 non d ame     -33.888  10.473  31.047  0.00  0.00     0.259 C 
ATOM     56  O7  non d ame     -33.689  11.367  31.805  0.00  0.00    -0.265 OA
BRANCH  55  57
ATOM     57  O8  non d ame     -34.145   9.163  31.539  0.00  0.00    -0.317 OA
BRANCH  57  58
ATOM     58  C29 non d ame     -35.469   8.982  32.049  0.00  0.00     0.052 C 
ATOM     59  H47 non d ame     -35.346   8.717  33.100  0.00  0.00     0.082 H 
ATOM     60  H48 non d ame     -36.016   9.883  31.775  0.00  0.00     0.082 H 
BRANCH  58  61
ATOM     61  C35 non d ame     -36.107   7.776  31.310  0.00  0.00    -0.034 A 
ATOM     62  C30 non d ame     -35.298   6.767  30.796  0.00  0.00    -0.075 A 
ATOM     63  C31 non d ame     -35.871   5.684  30.132  0.00  0.00    -0.082 A 
ATOM     64  H49 non d ame     -34.216   6.825  30.914  0.00  0.00     0.084 H 
ATOM     65  C32 non d ame     -37.258   5.613  29.979  0.00  0.00    -0.083 A 
ATOM     66  H50 non d ame     -35.235   4.894  29.732  0.00  0.00     0.083 H 
ATOM     67  C33 non d ame     -38.061   6.624  30.490  0.00  0.00    -0.082 A 
ATOM     68  H51 non d ame     -37.715   4.769  29.461  0.00  0.00     0.083 H 
ATOM     69  C34 non d ame     -37.493   7.707  31.157  0.00  0.00    -0.075 A 
ATOM     70  H52 non d ame     -39.143   6.567  30.367  0.00  0.00     0.083 H 
ATOM     71  H53 non d ame     -38.130   8.497  31.557  0.00  0.00     0.084 H 
ENDBRANCH  58  61
ENDBRANCH  57  58
ENDBRANCH  55  57
ENDBRANCH  52  55
ENDBRANCH  49  52
ENDBRANCH  47  49
BRANCH  47  72
ATOM     72  C24 non d ame     -32.026   9.002  26.559  0.00  0.00    -0.039 C 
ATOM     73  H35 non d ame     -31.691   9.440  25.618  0.00  0.00     0.036 H 
ATOM     74  H36 non d ame     -31.297   8.601  27.263  0.00  0.00     0.036 H 
BRANCH  72  75
ATOM     75  C25 non d ame     -33.036   7.814  26.194  0.00  0.00    -0.001 C 
ATOM     76  C26 non d ame     -32.897   6.602  27.297  0.00  0.00    -0.035 C 
ATOM     77  C27 non d ame     -32.713   5.432  26.639  0.00  0.00     0.085 C 
ATOM     78  H38 non d ame     -31.976   6.721  27.868  0.00  0.00     0.036 H 
ATOM     79  H39 non d ame     -33.845   6.457  27.815  0.00  0.00     0.036 H 
ATOM     80  N5  non d ame     -32.387   5.778  25.206  0.00  0.00    -0.049 N 
ATOM     81  H40 non d ame     -31.840   4.972  27.102  0.00  0.00     0.075 H 
ATOM     82  H41 non d ame     -33.677   4.925  26.672  0.00  0.00     0.075 H 
ATOM     83  C28 non d ame     -32.786   7.331  25.022  0.00  0.00     0.193 C 
ATOM     84  H42 non d ame     -31.386   5.690  25.111  0.00  0.00     0.280 HD
ATOM     85  H43 non d ame     -33.001   5.218  24.631  0.00  0.00     0.280 HD
ATOM     86  H44 non d ame     -33.699   7.610  24.495  0.00  0.00     0.129 H 
ATOM     87  H37 non d ame     -34.042   8.177  25.980  0.00  0.00     0.046 H 
BRANCH  83  88
ATOM     88  O6  non d ame     -31.733   8.036  24.363  0.00  0.00    -0.369 OA
ATOM     89  H45 non d ame     -31.117   7.406  23.981  0.00  0.00     0.212 HD
ENDBRANCH  83  88
ENDBRANCH  72  75
ENDBRANCH  47  72
ENDBRANCH  45  47
ENDBRANCH   1  43
BRANCH   1  90
ATOM     90  C16 non d ame     -30.753  14.008  27.967  0.00  0.00    -0.035 C 
ATOM     91  H21 non d ame     -30.211  13.064  28.018  0.00  0.00     0.037 H 
ATOM     92  H22 non d ame     -30.206  14.947  27.880  0.00  0.00     0.037 H 
BRANCH  90  93
ATOM     93  C17 non d ame     -31.591  14.105  29.282  0.00  0.00    -0.059 C 
ATOM     94  H23 non d ame     -32.623  13.856  29.036  0.00  0.00     0.038 H 
BRANCH  93  95
ATOM     95  C18 non d ame     -31.102  13.095  30.369  0.00  0.00    -0.073 C 
ATOM     96  H24 non d ame     -31.882  12.961  31.118  0.00  0.00     0.028 H 
ATOM     97  H25 non d ame     -30.882  12.136  29.900  0.00  0.00     0.028 H 
ATOM     98  H26 non d ame     -30.202  13.481  30.845  0.00  0.00     0.028 H 
ENDBRANCH  93  95
BRANCH  93  99
ATOM     99  C19 non d ame     -31.587  15.536  29.828  0.00  0.00    -0.073 C 
ATOM    100  H27 non d ame     -32.529  15.732  30.340  0.00  0.00     0.028 H 
ATOM    101  H28 non d ame     -30.761  15.655  30.529  0.00  0.00     0.028 H 
ATOM    102  H29 non d ame     -31.468  16.239  29.004  0.00  0.00     0.028 H 
ENDBRANCH  93  99
ENDBRANCH  90  93
ENDBRANCH   1  90
TORSDOF 26
ENDMDL
MODEL 19
REMARK VINA RESULT:      -6.2      2.134      6.198
REMARK  26 active torsions:
REMARK  status: ('A' for Active; 'I' for Inactive)
REMARK    1  A    between atoms: C2_2  and  C3_3 
REMARK    2  A    between atoms: C4_6  and  C5_7 
REMARK       I    between atoms: C5_7  and  N2_9 
REMARK    3  A    between atoms: N2_9  and  C6_10 
REMARK    4  A    between atoms: C6_10  and  C7_11 
REMARK    5  A    between atoms: C6_10  and  C8_13 
REMARK       I    between atoms: C7_11  and  N3_14 
REMARK    6  A    between atoms: N3_14  and  C9_15 
REMARK    7  A    between atoms: C9_15  and  C10_16 
REMARK    8  A    between atoms: C9_15  and  C11_18 
REMARK       I    between atoms: C10_16  and  N4_21 
REMARK    9  A    between atoms: C11_18  and  C12_19 
REMARK   10  A    between atoms: C11_18  and  C13_20 
REMARK   11  A    between atoms: N4_21  and  C14_22 
REMARK   12  A    between atoms: C14_22  and  C15_23 
REMARK   13  A    between atoms: C14_22  and  C16_25 
REMARK       I    between atoms: C15_23  and  N6_40 
REMARK   14  A    between atoms: C16_25  and  C17_26 
REMARK   15  A    between atoms: C17_26  and  C18_27 
REMARK   16  A    between atoms: C17_26  and  C19_28 
REMARK   17  A    between atoms: C20_29  and  C21_30 
REMARK   18  A    between atoms: C20_29  and  C24_33 
REMARK   19  A    between atoms: C20_29  and  N6_40 
REMARK   20  A    between atoms: C21_30  and  C22_31 
REMARK   21  A    between atoms: C22_31  and  C23_32 
REMARK   22  A    between atoms: C23_32  and  O8_43 
REMARK   23  A    between atoms: C24_33  and  C25_34 
REMARK   24  A    between atoms: C28_38  and  O6_39 
REMARK   25  A    between atoms: C29_42  and  O8_43 
REMARK   26  A    between atoms: C29_42  and  C35_49 
ROOT
ATOM      1  C14 non d ame     -35.539   9.563  29.115  0.00  0.00     0.089 C 
ATOM      2  H20 non d ame     -35.119   8.691  29.618  0.00  0.00     0.087 H 
ENDROOT
BRANCH   1   3
ATOM      3  N4  non d ame     -34.524  10.605  29.123  0.00  0.00    -0.346 N 
ATOM      4  C10 non d ame     -33.100  10.285  28.744  0.00  0.00     0.241 C 
ATOM      5  O4  non d ame     -32.794   9.180  28.439  0.00  0.00    -0.271 OA
ATOM      6  H19 non d ame     -34.804  11.539  29.388  0.00  0.00     0.163 HD
BRANCH   4   7
ATOM      7  C9  non d ame     -32.064  11.378  28.752  0.00  0.00     0.092 C 
ATOM      8  H11 non d ame     -31.086  10.946  28.542  0.00  0.00     0.088 H 
BRANCH   7   9
ATOM      9  N3  non d ame     -32.354  12.335  27.681  0.00  0.00    -0.346 N 
ATOM     10  C7  non d ame     -31.648  12.248  26.426  0.00  0.00     0.240 C 
ATOM     11  O3  non d ame     -30.842  11.415  26.262  0.00  0.00    -0.271 OA
ATOM     12  H10 non d ame     -33.045  13.061  27.808  0.00  0.00     0.163 HD
BRANCH  10  13
ATOM     13  C6  non d ame     -31.959  13.272  25.290  0.00  0.00     0.086 C 
ATOM     14  H6  non d ame     -32.959  13.149  24.874  0.00  0.00     0.086 H 
BRANCH  13  15
ATOM     15  N2  non d ame     -31.898  14.616  25.838  0.00  0.00    -0.343 N 
ATOM     16  C5  non d ame     -33.100  15.209  26.429  0.00  0.00     0.273 C 
ATOM     17  O2  non d ame     -34.111  14.597  26.456  0.00  0.00    -0.266 OA
ATOM     18  H5  non d ame     -31.031  15.133  25.808  0.00  0.00     0.163 HD
BRANCH  16  19
ATOM     19  C4  non d ame     -33.050  16.630  27.013  0.00  0.00     0.154 A 
ATOM     20  C1  non d ame     -33.106  17.864  26.292  0.00  0.00    -0.017 A 
ATOM     21  C2  non d ame     -33.025  18.868  27.282  0.00  0.00     0.077 A 
ATOM     22  H1  non d ame     -33.192  18.009  25.215  0.00  0.00     0.091 H 
ATOM     23  O1  non d ame     -32.934  18.270  28.434  0.00  0.00    -0.218 OA
ATOM     24  N1  non d ame     -32.947  16.964  28.303  0.00  0.00    -0.123 NA
BRANCH  21  25
ATOM     25  C3  non d ame     -33.041  20.372  27.044  0.00  0.00    -0.029 C 
ATOM     26  H2  non d ame     -33.699  20.848  27.770  0.00  0.00     0.036 H 
ATOM     27  H3  non d ame     -32.032  20.768  27.156  0.00  0.00     0.036 H 
ATOM     28  H4  non d ame     -33.402  20.577  26.037  0.00  0.00     0.036 H 
ENDBRANCH  21  25
ENDBRANCH  16  19
ENDBRANCH  13  15
BRANCH  13  29
ATOM     29  C8  non d ame     -30.948  13.119  24.182  0.00  0.00    -0.049 C 
ATOM     30  H7  non d ame     -31.456  13.160  23.219  0.00  0.00     0.030 H 
ATOM     31  H8  non d ame     -30.219  13.927  24.242  0.00  0.00     0.030 H 
ATOM     32  H9  non d ame     -30.438  12.161  24.284  0.00  0.00     0.030 H 
ENDBRANCH  13  29
ENDBRANCH  10  13
ENDBRANCH   7   9
BRANCH   7  33
ATOM     33  C11 non d ame     -32.097  12.114  30.124  0.00  0.00    -0.033 C 
ATOM     34  H12 non d ame     -32.890  11.662  30.720  0.00  0.00     0.042 H 
BRANCH  33  35
ATOM     35  C12 non d ame     -30.758  11.924  30.903  0.00  0.00    -0.071 C 
ATOM     36  H13 non d ame     -30.374  10.919  30.727  0.00  0.00     0.028 H 
ATOM     37  H14 non d ame     -30.030  12.657  30.558  0.00  0.00     0.028 H 
ATOM     38  H15 non d ame     -30.936  12.062  31.970  0.00  0.00     0.028 H 
ENDBRANCH  33  35
BRANCH  33  39
ATOM     39  C13 non d ame     -32.434  13.628  29.939  0.00  0.00    -0.071 C 
ATOM     40  H16 non d ame     -33.100  13.750  29.084  0.00  0.00     0.028 H 
ATOM     41  H17 non d ame     -32.923  14.004  30.838  0.00  0.00     0.028 H 
ATOM     42  H18 non d ame     -31.514  14.187  29.766  0.00  0.00     0.028 H 
ENDBRANCH  33  39
ENDBRANCH   7  33
ENDBRANCH   4   7
ENDBRANCH   1   3
BRANCH   1  43
ATOM     43  C15 non d ame     -35.926   9.259  27.640  0.00  0.00     0.240 C 
ATOM     44  O5  non d ame     -36.709   9.956  27.079  0.00  0.00    -0.271 OA
ATOM     45  N6  non d ame     -35.314   8.104  26.922  0.00  0.00    -0.355 N 
ATOM     46  H46 non d ame     -34.644   7.509  27.387  0.00  0.00     0.162 HD
BRANCH  45  47
ATOM     47  C20 non d ame     -35.691   7.830  25.519  0.00  0.00     0.013 C 
ATOM     48  H30 non d ame     -36.208   8.709  25.132  0.00  0.00     0.072 H 
BRANCH  47  49
ATOM     49  C21 non d ame     -36.610   6.630  25.474  0.00  0.00    -0.038 C 
ATOM     50  H31 non d ame     -36.565   6.263  24.448  0.00  0.00     0.036 H 
ATOM     51  H32 non d ame     -36.295   5.988  26.297  0.00  0.00     0.036 H 
BRANCH  49  52
ATOM     52  C22 non d ame     -38.086   6.994  25.743  0.00  0.00     0.018 C 
ATOM     53  H33 non d ame     -38.162   8.067  25.568  0.00  0.00     0.048 H 
ATOM     54  H34 non d ame     -38.675   6.300  25.143  0.00  0.00     0.048 H 
BRANCH  52  55
ATOM     55  C23 non d ame     -38.528   6.769  27.216  0.00  0.00     0.259 C 
ATOM     56  O7  non d ame     -39.089   7.628  27.815  0.00  0.00    -0.265 OA
BRANCH  55  57
ATOM     57  O8  non d ame     -38.243   5.526  27.847  0.00  0.00    -0.317 OA
BRANCH  57  58
ATOM     58  C29 non d ame     -37.376   5.634  28.979  0.00  0.00     0.052 C 
ATOM     59  H47 non d ame     -37.230   6.702  29.138  0.00  0.00     0.082 H 
ATOM     60  H48 non d ame     -37.831   5.024  29.759  0.00  0.00     0.082 H 
BRANCH  58  61
ATOM     61  C35 non d ame     -36.010   5.003  28.598  0.00  0.00    -0.034 A 
ATOM     62  C30 non d ame     -35.937   4.068  27.570  0.00  0.00    -0.075 A 
ATOM     63  C31 non d ame     -34.710   3.501  27.227  0.00  0.00    -0.082 A 
ATOM     64  H49 non d ame     -36.841   3.780  27.033  0.00  0.00     0.084 H 
ATOM     65  C32 non d ame     -33.553   3.870  27.919  0.00  0.00    -0.083 A 
ATOM     66  H50 non d ame     -34.656   2.770  26.420  0.00  0.00     0.083 H 
ATOM     67  C33 non d ame     -33.632   4.801  28.946  0.00  0.00    -0.082 A 
ATOM     68  H51 non d ame     -32.590   3.433  27.657  0.00  0.00     0.083 H 
ATOM     69  C34 non d ame     -34.855   5.372  29.291  0.00  0.00    -0.075 A 
ATOM     70  H52 non d ame     -32.728   5.085  29.486  0.00  0.00     0.083 H 
ATOM     71  H53 non d ame     -34.908   6.103  30.098  0.00  0.00     0.084 H 
ENDBRANCH  58  61
ENDBRANCH  57  58
ENDBRANCH  55  57
ENDBRANCH  52  55
ENDBRANCH  49  52
ENDBRANCH  47  49
BRANCH  47  72
ATOM     72  C24 non d ame     -34.438   7.545  24.694  0.00  0.00    -0.039 C 
ATOM     73  H35 non d ame     -33.805   6.928  25.331  0.00  0.00     0.036 H 
ATOM     74  H36 non d ame     -34.800   7.153  23.743  0.00  0.00     0.036 H 
BRANCH  72  75
ATOM     75  C25 non d ame     -33.622   8.886  24.373  0.00  0.00    -0.001 C 
ATOM     76  C26 non d ame     -33.250   8.945  22.772  0.00  0.00    -0.035 C 
ATOM     77  C27 non d ame     -31.923   9.184  22.641  0.00  0.00     0.085 C 
ATOM     78  H38 non d ame     -33.377   7.960  22.322  0.00  0.00     0.036 H 
ATOM     79  H39 non d ame     -33.712   9.818  22.312  0.00  0.00     0.036 H 
ATOM     80  N5  non d ame     -31.300   8.968  23.999  0.00  0.00    -0.049 N 
ATOM     81  H40 non d ame     -31.556   8.420  21.956  0.00  0.00     0.075 H 
ATOM     82  H41 non d ame     -31.842  10.238  22.377  0.00  0.00     0.075 H 
ATOM     83  C28 non d ame     -32.524   8.938  25.051  0.00  0.00     0.193 C 
ATOM     84  H42 non d ame     -30.873   8.053  23.976  0.00  0.00     0.280 HD
ATOM     85  H43 non d ame     -30.734   9.784  24.187  0.00  0.00     0.280 HD
ATOM     86  H44 non d ame     -32.727   9.798  25.689  0.00  0.00     0.129 H 
ATOM     87  H37 non d ame     -34.092   9.769  24.805  0.00  0.00     0.046 H 
BRANCH  83  88
ATOM     88  O6  non d ame     -32.385   7.827  25.938  0.00  0.00    -0.369 OA
ATOM     89  H45 non d ame     -31.551   7.384  25.768  0.00  0.00     0.212 HD
ENDBRANCH  83  88
ENDBRANCH  72  75
ENDBRANCH  47  72
ENDBRANCH  45  47
ENDBRANCH   1  43
BRANCH   1  90
ATOM     90  C16 non d ame     -36.762  10.054  29.874  0.00  0.00    -0.035 C 
ATOM     91  H21 non d ame     -36.530  11.080  30.160  0.00  0.00     0.037 H 
ATOM     92  H22 non d ame     -37.609   9.849  29.219  0.00  0.00     0.037 H 
BRANCH  90  93
ATOM     93  C17 non d ame     -37.031   9.276  31.201  0.00  0.00    -0.059 C 
ATOM     94  H23 non d ame     -37.011   9.998  32.017  0.00  0.00     0.038 H 
BRANCH  93  95
ATOM     95  C18 non d ame     -38.434   8.589  31.207  0.00  0.00    -0.073 C 
ATOM     96  H24 non d ame     -38.397   7.692  31.825  0.00  0.00     0.028 H 
ATOM     97  H25 non d ame     -39.175   9.278  31.611  0.00  0.00     0.028 H 
ATOM     98  H26 non d ame     -38.709   8.316  30.188  0.00  0.00     0.028 H 
ENDBRANCH  93  95
BRANCH  93  99
ATOM     99  C19 non d ame     -35.923   8.255  31.470  0.00  0.00    -0.073 C 
ATOM    100  H27 non d ame     -36.366   7.273  31.636  0.00  0.00     0.028 H 
ATOM    101  H28 non d ame     -35.252   8.211  30.612  0.00  0.00     0.028 H 
ATOM    102  H29 non d ame     -35.360   8.554  32.354  0.00  0.00     0.028 H 
ENDBRANCH  93  99
ENDBRANCH  90  93
ENDBRANCH   1  90
TORSDOF 26
ENDMDL
MODEL 20
REMARK VINA RESULT:      -6.2      2.574     10.008
REMARK  26 active torsions:
REMARK  status: ('A' for Active; 'I' for Inactive)
REMARK    1  A    between atoms: C2_2  and  C3_3 
REMARK    2  A    between atoms: C4_6  and  C5_7 
REMARK       I    between atoms: C5_7  and  N2_9 
REMARK    3  A    between atoms: N2_9  and  C6_10 
REMARK    4  A    between atoms: C6_10  and  C7_11 
REMARK    5  A    between atoms: C6_10  and  C8_13 
REMARK       I    between atoms: C7_11  and  N3_14 
REMARK    6  A    between atoms: N3_14  and  C9_15 
REMARK    7  A    between atoms: C9_15  and  C10_16 
REMARK    8  A    between atoms: C9_15  and  C11_18 
REMARK       I    between atoms: C10_16  and  N4_21 
REMARK    9  A    between atoms: C11_18  and  C12_19 
REMARK   10  A    between atoms: C11_18  and  C13_20 
REMARK   11  A    between atoms: N4_21  and  C14_22 
REMARK   12  A    between atoms: C14_22  and  C15_23 
REMARK   13  A    between atoms: C14_22  and  C16_25 
REMARK       I    between atoms: C15_23  and  N6_40 
REMARK   14  A    between atoms: C16_25  and  C17_26 
REMARK   15  A    between atoms: C17_26  and  C18_27 
REMARK   16  A    between atoms: C17_26  and  C19_28 
REMARK   17  A    between atoms: C20_29  and  C21_30 
REMARK   18  A    between atoms: C20_29  and  C24_33 
REMARK   19  A    between atoms: C20_29  and  N6_40 
REMARK   20  A    between atoms: C21_30  and  C22_31 
REMARK   21  A    between atoms: C22_31  and  C23_32 
REMARK   22  A    between atoms: C23_32  and  O8_43 
REMARK   23  A    between atoms: C24_33  and  C25_34 
REMARK   24  A    between atoms: C28_38  and  O6_39 
REMARK   25  A    between atoms: C29_42  and  O8_43 
REMARK   26  A    between atoms: C29_42  and  C35_49 
ROOT
ATOM      1  C14 non d ame     -31.020  14.477  24.354  0.00  0.00     0.089 C 
ATOM      2  H20 non d ame     -30.015  14.395  24.770  0.00  0.00     0.087 H 
ENDROOT
BRANCH   1   3
ATOM      3  N4  non d ame     -31.500  13.128  24.097  0.00  0.00    -0.346 N 
ATOM      4  C10 non d ame     -31.337  12.050  25.139  0.00  0.00     0.241 C 
ATOM      5  O4  non d ame     -30.814  12.292  26.176  0.00  0.00    -0.271 OA
ATOM      6  H19 non d ame     -31.940  12.942  23.207  0.00  0.00     0.163 HD
BRANCH   4   7
ATOM      7  C9  non d ame     -31.845  10.660  24.858  0.00  0.00     0.092 C 
ATOM      8  H11 non d ame     -31.367   9.959  25.542  0.00  0.00     0.088 H 
BRANCH   7   9
ATOM      9  N3  non d ame     -33.287  10.604  25.117  0.00  0.00    -0.346 N 
ATOM     10  C7  non d ame     -33.772  10.126  26.389  0.00  0.00     0.240 C 
ATOM     11  O3  non d ame     -33.016   9.781  27.214  0.00  0.00    -0.271 OA
ATOM     12  H10 non d ame     -33.951  10.897  24.415  0.00  0.00     0.163 HD
BRANCH  10  13
ATOM     13  C6  non d ame     -35.307  10.066  26.658  0.00  0.00     0.086 C 
ATOM     14  H6  non d ame     -35.898  10.106  25.743  0.00  0.00     0.086 H 
BRANCH  13  15
ATOM     15  N2  non d ame     -35.624   8.802  27.302  0.00  0.00    -0.343 N 
ATOM     16  C5  non d ame     -36.939   8.194  27.090  0.00  0.00     0.273 C 
ATOM     17  O2  non d ame     -37.736   8.730  26.401  0.00  0.00    -0.266 OA
ATOM     18  H5  non d ame     -34.938   8.352  27.891  0.00  0.00     0.163 HD
BRANCH  16  19
ATOM     19  C4  non d ame     -37.287   6.857  27.764  0.00  0.00     0.154 A 
ATOM     20  C1  non d ame     -38.572   6.230  27.829  0.00  0.00    -0.017 A 
ATOM     21  C2  non d ame     -38.356   5.034  28.549  0.00  0.00     0.077 A 
ATOM     22  H1  non d ame     -39.515   6.588  27.418  0.00  0.00     0.091 H 
ATOM     23  O1  non d ame     -37.092   4.988  28.855  0.00  0.00    -0.218 OA
ATOM     24  N1  non d ame     -36.448   6.041  28.408  0.00  0.00    -0.123 NA
BRANCH  21  25
ATOM     25  C3  non d ame     -39.409   3.991  28.900  0.00  0.00    -0.029 C 
ATOM     26  H2  non d ame     -39.092   3.438  29.784  0.00  0.00     0.036 H 
ATOM     27  H3  non d ame     -40.358   4.487  29.103  0.00  0.00     0.036 H 
ATOM     28  H4  non d ame     -39.531   3.302  28.065  0.00  0.00     0.036 H 
ENDBRANCH  21  25
ENDBRANCH  16  19
ENDBRANCH  13  15
BRANCH  13  29
ATOM     29  C8  non d ame     -35.710  11.214  27.548  0.00  0.00    -0.049 C 
ATOM     30  H7  non d ame     -35.888  10.846  28.558  0.00  0.00     0.030 H 
ATOM     31  H8  non d ame     -34.911  11.955  27.568  0.00  0.00     0.030 H 
ATOM     32  H9  non d ame     -36.621  11.672  27.162  0.00  0.00     0.030 H 
ENDBRANCH  13  29
ENDBRANCH  10  13
ENDBRANCH   7   9
BRANCH   7  33
ATOM     33  C11 non d ame     -31.575  10.301  23.367  0.00  0.00    -0.033 C 
ATOM     34  H12 non d ame     -31.809  11.181  22.769  0.00  0.00     0.042 H 
BRANCH  33  35
ATOM     35  C12 non d ame     -30.071   9.958  23.129  0.00  0.00    -0.071 C 
ATOM     36  H13 non d ame     -29.556   9.895  24.088  0.00  0.00     0.028 H 
ATOM     37  H14 non d ame     -29.993   9.003  22.611  0.00  0.00     0.028 H 
ATOM     38  H15 non d ame     -29.612  10.739  22.522  0.00  0.00     0.028 H 
ENDBRANCH  33  35
BRANCH  33  39
ATOM     39  C13 non d ame     -32.502   9.135  22.896  0.00  0.00    -0.071 C 
ATOM     40  H16 non d ame     -32.038   8.618  22.056  0.00  0.00     0.028 H 
ATOM     41  H17 non d ame     -32.651   8.434  23.718  0.00  0.00     0.028 H 
ATOM     42  H18 non d ame     -33.466   9.540  22.586  0.00  0.00     0.028 H 
ENDBRANCH  33  39
ENDBRANCH   7  33
ENDBRANCH   4   7
ENDBRANCH   1   3
BRANCH   1  43
ATOM     43  C15 non d ame     -32.006  15.175  25.335  0.00  0.00     0.240 C 
ATOM     44  O5  non d ame     -33.056  15.564  24.940  0.00  0.00    -0.271 OA
ATOM     45  N6  non d ame     -31.642  15.350  26.770  0.00  0.00    -0.355 N 
ATOM     46  H46 non d ame     -30.755  15.019  27.119  0.00  0.00     0.162 HD
BRANCH  45  47
ATOM     47  C20 non d ame     -32.591  16.014  27.691  0.00  0.00     0.013 C 
ATOM     48  H30 non d ame     -32.024  16.393  28.540  0.00  0.00     0.072 H 
BRANCH  47  49
ATOM     49  C21 non d ame     -33.617  15.008  28.162  0.00  0.00    -0.038 C 
ATOM     50  H31 non d ame     -33.888  15.314  29.172  0.00  0.00     0.036 H 
ATOM     51  H32 non d ame     -34.376  14.974  27.380  0.00  0.00     0.036 H 
BRANCH  49  52
ATOM     52  C22 non d ame     -33.045  13.578  28.278  0.00  0.00     0.018 C 
ATOM     53  H33 non d ame     -33.909  12.923  28.385  0.00  0.00     0.048 H 
ATOM     54  H34 non d ame     -32.372  13.459  27.428  0.00  0.00     0.048 H 
BRANCH  52  55
ATOM     55  C23 non d ame     -32.177  13.352  29.547  0.00  0.00     0.259 C 
ATOM     56  O7  non d ame     -31.097  13.840  29.634  0.00  0.00    -0.265 OA
BRANCH  55  57
ATOM     57  O8  non d ame     -32.682  12.542  30.602  0.00  0.00    -0.317 OA
BRANCH  57  58
ATOM     58  C29 non d ame     -32.546  11.137  30.373  0.00  0.00     0.052 C 
ATOM     59  H47 non d ame     -32.587  11.009  29.291  0.00  0.00     0.082 H 
ATOM     60  H48 non d ame     -31.657  10.833  30.924  0.00  0.00     0.082 H 
BRANCH  58  61
ATOM     61  C35 non d ame     -33.777  10.428  30.999  0.00  0.00    -0.034 A 
ATOM     62  C30 non d ame     -34.199   9.198  30.505  0.00  0.00    -0.075 A 
ATOM     63  C31 non d ame     -35.305   8.562  31.066  0.00  0.00    -0.082 A 
ATOM     64  H49 non d ame     -33.663   8.732  29.677  0.00  0.00     0.084 H 
ATOM     65  C32 non d ame     -35.992   9.162  32.125  0.00  0.00    -0.083 A 
ATOM     66  H50 non d ame     -35.631   7.597  30.678  0.00  0.00     0.083 H 
ATOM     67  C33 non d ame     -35.570  10.392  32.612  0.00  0.00    -0.082 A 
ATOM     68  H51 non d ame     -36.857   8.671  32.570  0.00  0.00     0.083 H 
ATOM     69  C34 non d ame     -34.464  11.030  32.055  0.00  0.00    -0.075 A 
ATOM     70  H52 non d ame     -36.110  10.858  33.436  0.00  0.00     0.083 H 
ATOM     71  H53 non d ame     -34.138  11.995  32.444  0.00  0.00     0.084 H 
ENDBRANCH  58  61
ENDBRANCH  57  58
ENDBRANCH  55  57
ENDBRANCH  52  55
ENDBRANCH  49  52
ENDBRANCH  47  49
BRANCH  47  72
ATOM     72  C24 non d ame     -33.295  17.160  26.968  0.00  0.00    -0.039 C 
ATOM     73  H35 non d ame     -32.572  17.532  26.242  0.00  0.00     0.036 H 
ATOM     74  H36 non d ame     -34.246  16.748  26.628  0.00  0.00     0.036 H 
BRANCH  72  75
ATOM     75  C25 non d ame     -33.632  18.370  27.962  0.00  0.00    -0.001 C 
ATOM     76  C26 non d ame     -35.246  18.683  27.936  0.00  0.00    -0.035 C 
ATOM     77  C27 non d ame     -35.430  20.007  27.717  0.00  0.00     0.085 C 
ATOM     78  H38 non d ame     -35.704  18.214  27.066  0.00  0.00     0.036 H 
ATOM     79  H39 non d ame     -35.674  18.527  28.927  0.00  0.00     0.036 H 
ATOM     80  N5  non d ame     -34.103  20.568  27.266  0.00  0.00    -0.049 N 
ATOM     81  H40 non d ame     -36.141  20.069  26.893  0.00  0.00     0.075 H 
ATOM     82  H41 non d ame     -35.683  20.431  28.688  0.00  0.00     0.075 H 
ATOM     83  C28 non d ame     -33.001  19.444  27.623  0.00  0.00     0.193 C 
ATOM     84  H42 non d ame     -34.157  20.659  26.262  0.00  0.00     0.280 HD
ATOM     85  H43 non d ame     -33.929  21.383  27.838  0.00  0.00     0.280 HD
ATOM     86  H44 non d ame     -32.343  19.567  28.483  0.00  0.00     0.129 H 
ATOM     87  H37 non d ame     -33.168  18.242  28.940  0.00  0.00     0.046 H 
BRANCH  83  88
ATOM     88  O6  non d ame     -32.136  19.230  26.506  0.00  0.00    -0.369 OA
ATOM     89  H45 non d ame     -32.201  19.975  25.904  0.00  0.00     0.212 HD
ENDBRANCH  83  88
ENDBRANCH  72  75
ENDBRANCH  47  72
ENDBRANCH  45  47
ENDBRANCH   1  43
BRANCH   1  90
ATOM     90  C16 non d ame     -30.974  15.246  23.043  0.00  0.00    -0.035 C 
ATOM     91  H21 non d ame     -31.982  15.179  22.634  0.00  0.00     0.037 H 
ATOM     92  H22 non d ame     -30.551  16.219  23.294  0.00  0.00     0.037 H 
BRANCH  90  93
ATOM     93  C17 non d ame     -30.023  14.612  21.979  0.00  0.00    -0.059 C 
ATOM     94  H23 non d ame     -30.210  13.538  21.966  0.00  0.00     0.038 H 
BRANCH  93  95
ATOM     95  C18 non d ame     -30.298  15.161  20.542  0.00  0.00    -0.073 C 
ATOM     96  H24 non d ame     -29.436  15.733  20.200  0.00  0.00     0.028 H 
ATOM     97  H25 non d ame     -30.473  14.328  19.862  0.00  0.00     0.028 H 
ATOM     98  H26 non d ame     -31.177  15.805  20.561  0.00  0.00     0.028 H 
ENDBRANCH  93  95
BRANCH  93  99
ATOM     99  C19 non d ame     -28.556  14.813  22.367  0.00  0.00    -0.073 C 
ATOM    100  H27 non d ame     -28.410  14.514  23.405  0.00  0.00     0.028 H 
ATOM    101  H28 non d ame     -27.922  14.205  21.721  0.00  0.00     0.028 H 
ATOM    102  H29 non d ame     -28.290  15.864  22.251  0.00  0.00     0.028 H 
ENDBRANCH  93  99
ENDBRANCH  90  93
ENDBRANCH   1  90
TORSDOF 26
ENDMDL
