MODEL 1
REMARK VINA RESULT:      -7.2      0.000      0.000
REMARK  26 active torsions:
REMARK  status: ('A' for Active; 'I' for Inactive)
REMARK    1  A    between atoms: C2_2  and  C3_3 
REMARK    2  A    between atoms: C4_6  and  C5_7 
REMARK       I    between atoms: C5_7  and  N2_9 
REMARK    3  A    between atoms: N2_9  and  C6_10 
REMARK    4  A    between atoms: C6_10  and  C7_11 
REMARK    5  A    between atoms: C6_10  and  C8_13 
REMARK       I    between atoms: C7_11  and  N3_14 
REMARK    6  A    between atoms: N3_14  and  C9_15 
REMARK    7  A    between atoms: C9_15  and  C10_16 
REMARK    8  A    between atoms: C9_15  and  C11_18 
REMARK       I    between atoms: C10_16  and  N4_21 
REMARK    9  A    between atoms: C11_18  and  C12_19 
REMARK   10  A    between atoms: C11_18  and  C13_20 
REMARK   11  A    between atoms: N4_21  and  C14_22 
REMARK   12  A    between atoms: C14_22  and  C15_23 
REMARK   13  A    between atoms: C14_22  and  C16_25 
REMARK       I    between atoms: C15_23  and  N6_40 
REMARK   14  A    between atoms: C16_25  and  C17_26 
REMARK   15  A    between atoms: C17_26  and  C18_27 
REMARK   16  A    between atoms: C17_26  and  C19_28 
REMARK   17  A    between atoms: C20_29  and  C21_30 
REMARK   18  A    between atoms: C20_29  and  C24_33 
REMARK   19  A    between atoms: C20_29  and  N6_40 
REMARK   20  A    between atoms: C21_30  and  C22_31 
REMARK   21  A    between atoms: C22_31  and  C23_32 
REMARK   22  A    between atoms: C23_32  and  O8_43 
REMARK   23  A    between atoms: C24_33  and  C25_34 
REMARK   24  A    between atoms: C28_38  and  O6_39 
REMARK   25  A    between atoms: C29_42  and  O8_43 
REMARK   26  A    between atoms: C29_42  and  C35_49 
ROOT
ATOM      1  C14 non d ame     -30.815  14.453  23.812  0.00  0.00     0.089 C 
ATOM      2  H20 non d ame     -29.732  14.502  23.699  0.00  0.00     0.087 H 
ENDROOT
BRANCH   1   3
ATOM      3  N4  non d ame     -31.164  13.069  24.096  0.00  0.00    -0.346 N 
ATOM      4  C10 non d ame     -30.529  11.948  23.312  0.00  0.00     0.241 C 
ATOM      5  O4  non d ame     -29.742  12.185  22.456  0.00  0.00    -0.271 OA
ATOM      6  H19 non d ame     -31.837  12.888  24.827  0.00  0.00     0.163 HD
BRANCH   4   7
ATOM      7  C9  non d ame     -30.897  10.521  23.623  0.00  0.00     0.092 C 
ATOM      8  H11 non d ame     -30.334  10.187  24.495  0.00  0.00     0.088 H 
BRANCH   7   9
ATOM      9  N3  non d ame     -32.319  10.447  23.971  0.00  0.00    -0.346 N 
ATOM     10  C7  non d ame     -32.728  10.518  25.352  0.00  0.00     0.240 C 
ATOM     11  O3  non d ame     -31.925  10.633  26.197  0.00  0.00    -0.271 OA
ATOM     12  H10 non d ame     -33.023  10.346  23.253  0.00  0.00     0.163 HD
BRANCH  10  13
ATOM     13  C6  non d ame     -34.243  10.436  25.716  0.00  0.00     0.086 C 
ATOM     14  H6  non d ame     -34.413  10.286  26.782  0.00  0.00     0.086 H 
BRANCH  13  15
ATOM     15  N2  non d ame     -34.881  11.694  25.366  0.00  0.00    -0.343 N 
ATOM     16  C5  non d ame     -35.733  12.368  26.347  0.00  0.00     0.273 C 
ATOM     17  O2  non d ame     -35.901  11.889  27.415  0.00  0.00    -0.266 OA
ATOM     18  H5  non d ame     -34.733  12.095  24.450  0.00  0.00     0.163 HD
BRANCH  16  19
ATOM     19  C4  non d ame     -36.412  13.700  25.991  0.00  0.00     0.154 A 
ATOM     20  C1  non d ame     -36.548  14.280  24.690  0.00  0.00    -0.017 A 
ATOM     21  C2  non d ame     -37.242  15.492  24.904  0.00  0.00     0.077 A 
ATOM     22  H1  non d ame     -36.198  13.883  23.738  0.00  0.00     0.091 H 
ATOM     23  O1  non d ame     -37.474  15.587  26.181  0.00  0.00    -0.218 OA
ATOM     24  N1  non d ame     -36.998  14.553  26.836  0.00  0.00    -0.123 NA
BRANCH  21  25
ATOM     25  C3  non d ame     -37.645  16.501  23.836  0.00  0.00    -0.029 C 
ATOM     26  H2  non d ame     -38.694  16.766  23.964  0.00  0.00     0.036 H 
ATOM     27  H3  non d ame     -37.030  17.395  23.931  0.00  0.00     0.036 H 
ATOM     28  H4  non d ame     -37.499  16.063  22.849  0.00  0.00     0.036 H 
ENDBRANCH  21  25
ENDBRANCH  16  19
ENDBRANCH  13  15
BRANCH  13  29
ATOM     29  C8  non d ame     -34.884   9.302  24.956  0.00  0.00    -0.049 C 
ATOM     30  H7  non d ame     -35.470   9.705  24.130  0.00  0.00     0.030 H 
ATOM     31  H8  non d ame     -34.110   8.643  24.566  0.00  0.00     0.030 H 
ATOM     32  H9  non d ame     -35.537   8.741  25.625  0.00  0.00     0.030 H 
ENDBRANCH  13  29
ENDBRANCH  10  13
ENDBRANCH   7   9
BRANCH   7  33
ATOM     33  C11 non d ame     -30.624   9.631  22.375  0.00  0.00    -0.033 C 
ATOM     34  H12 non d ame     -30.549  10.291  21.511  0.00  0.00     0.042 H 
BRANCH  33  35
ATOM     35  C12 non d ame     -29.267   8.872  22.504  0.00  0.00    -0.071 C 
ATOM     36  H13 non d ame     -29.415   7.819  22.262  0.00  0.00     0.028 H 
ATOM     37  H14 non d ame     -28.542   9.304  21.815  0.00  0.00     0.028 H 
ATOM     38  H15 non d ame     -28.897   8.960  23.525  0.00  0.00     0.028 H 
ENDBRANCH  33  35
BRANCH  33  39
ATOM     39  C13 non d ame     -31.806   8.640  22.125  0.00  0.00    -0.071 C 
ATOM     40  H16 non d ame     -32.364   8.500  23.051  0.00  0.00     0.028 H 
ATOM     41  H17 non d ame     -32.467   9.049  21.360  0.00  0.00     0.028 H 
ATOM     42  H18 non d ame     -31.412   7.682  21.788  0.00  0.00     0.028 H 
ENDBRANCH  33  39
ENDBRANCH   7  33
ENDBRANCH   4   7
ENDBRANCH   1   3
BRANCH   1  43
ATOM     43  C15 non d ame     -31.325  15.342  24.983  0.00  0.00     0.240 C 
ATOM     44  O5  non d ame     -30.790  16.378  25.214  0.00  0.00    -0.271 OA
ATOM     45  N6  non d ame     -32.485  14.905  25.811  0.00  0.00    -0.355 N 
ATOM     46  H46 non d ame     -32.950  14.029  25.621  0.00  0.00     0.162 HD
BRANCH  45  47
ATOM     47  C20 non d ame     -32.958  15.762  26.919  0.00  0.00     0.013 C 
ATOM     48  H30 non d ame     -32.125  16.388  27.239  0.00  0.00     0.072 H 
BRANCH  47  49
ATOM     49  C21 non d ame     -33.418  14.889  28.065  0.00  0.00    -0.038 C 
ATOM     50  H31 non d ame     -34.282  15.396  28.494  0.00  0.00     0.036 H 
ATOM     51  H32 non d ame     -33.524  13.888  27.647  0.00  0.00     0.036 H 
BRANCH  49  52
ATOM     52  C22 non d ame     -32.370  14.781  29.194  0.00  0.00     0.018 C 
ATOM     53  H33 non d ame     -31.929  15.774  29.283  0.00  0.00     0.048 H 
ATOM     54  H34 non d ame     -32.894  14.339  30.042  0.00  0.00     0.048 H 
BRANCH  52  55
ATOM     55  C23 non d ame     -31.194  13.819  28.868  0.00  0.00     0.259 C 
ATOM     56  O7  non d ame     -30.322  14.158  28.135  0.00  0.00    -0.265 OA
BRANCH  55  57
ATOM     57  O8  non d ame     -31.177  12.519  29.446  0.00  0.00    -0.317 OA
BRANCH  57  58
ATOM     58  C29 non d ame     -31.872  12.427  30.693  0.00  0.00     0.052 C 
ATOM     59  H47 non d ame     -31.126  12.117  31.424  0.00  0.00     0.082 H 
ATOM     60  H48 non d ame     -32.390  13.379  30.813  0.00  0.00     0.082 H 
BRANCH  58  61
ATOM     61  C35 non d ame     -32.934  11.303  30.568  0.00  0.00    -0.034 A 
ATOM     62  C30 non d ame     -32.928  10.458  29.462  0.00  0.00    -0.075 A 
ATOM     63  C31 non d ame     -33.882   9.448  29.349  0.00  0.00    -0.082 A 
ATOM     64  H49 non d ame     -32.175  10.588  28.684  0.00  0.00     0.084 H 
ATOM     65  C32 non d ame     -34.847   9.286  30.346  0.00  0.00    -0.083 A 
ATOM     66  H50 non d ame     -33.873   8.787  28.482  0.00  0.00     0.083 H 
ATOM     67  C33 non d ame     -34.852  10.133  31.446  0.00  0.00    -0.082 A 
ATOM     68  H51 non d ame     -35.597   8.498  30.266  0.00  0.00     0.083 H 
ATOM     69  C34 non d ame     -33.899  11.143  31.564  0.00  0.00    -0.075 A 
ATOM     70  H52 non d ame     -35.608  10.005  32.221  0.00  0.00     0.083 H 
ATOM     71  H53 non d ame     -33.909  11.803  32.431  0.00  0.00     0.084 H 
ENDBRANCH  58  61
ENDBRANCH  57  58
ENDBRANCH  55  57
ENDBRANCH  52  55
ENDBRANCH  49  52
ENDBRANCH  47  49
BRANCH  47  72
ATOM     72  C24 non d ame     -34.121  16.630  26.441  0.00  0.00    -0.039 C 
ATOM     73  H35 non d ame     -34.385  16.244  25.456  0.00  0.00     0.036 H 
ATOM     74  H36 non d ame     -34.852  16.605  27.249  0.00  0.00     0.036 H 
BRANCH  72  75
ATOM     75  C25 non d ame     -33.680  18.158  26.248  0.00  0.00    -0.001 C 
ATOM     76  C26 non d ame     -32.558  18.564  27.380  0.00  0.00    -0.035 C 
ATOM     77  C27 non d ame     -32.955  19.702  27.998  0.00  0.00     0.085 C 
ATOM     78  H38 non d ame     -32.554  17.827  28.183  0.00  0.00     0.036 H 
ATOM     79  H39 non d ame     -31.624  18.849  26.896  0.00  0.00     0.036 H 
ATOM     80  N5  non d ame     -34.399  19.930  27.621  0.00  0.00    -0.049 N 
ATOM     81  H40 non d ame     -32.895  19.490  29.066  0.00  0.00     0.075 H 
ATOM     82  H41 non d ame     -32.346  20.495  27.566  0.00  0.00     0.075 H 
ATOM     83  C28 non d ame     -34.689  18.954  26.368  0.00  0.00     0.193 C 
ATOM     84  H42 non d ame     -34.952  19.618  28.406  0.00  0.00     0.280 HD
ATOM     85  H43 non d ame     -34.464  20.887  27.305  0.00  0.00     0.280 HD
ATOM     86  H44 non d ame     -34.746  19.355  25.356  0.00  0.00     0.129 H 
ATOM     87  H37 non d ame     -33.444  18.391  25.210  0.00  0.00     0.046 H 
BRANCH  83  88
ATOM     88  O6  non d ame     -35.914  18.246  26.568  0.00  0.00    -0.369 OA
ATOM     89  H45 non d ame     -36.409  18.658  27.280  0.00  0.00     0.212 HD
ENDBRANCH  83  88
ENDBRANCH  72  75
ENDBRANCH  47  72
ENDBRANCH  45  47
ENDBRANCH   1  43
BRANCH   1  90
ATOM     90  C16 non d ame     -31.488  14.879  22.517  0.00  0.00    -0.035 C 
ATOM     91  H21 non d ame     -31.724  13.951  21.996  0.00  0.00     0.037 H 
ATOM     92  H22 non d ame     -32.289  15.555  22.817  0.00  0.00     0.037 H 
BRANCH  90  93
ATOM     93  C17 non d ame     -30.555  15.693  21.565  0.00  0.00    -0.059 C 
ATOM     94  H23 non d ame     -30.838  16.743  21.644  0.00  0.00     0.038 H 
BRANCH  93  95
ATOM     95  C18 non d ame     -29.051  15.573  21.969  0.00  0.00    -0.073 C 
ATOM     96  H24 non d ame     -28.972  15.469  23.051  0.00  0.00     0.028 H 
ATOM     97  H25 non d ame     -28.614  14.698  21.488  0.00  0.00     0.028 H 
ATOM     98  H26 non d ame     -28.517  16.468  21.650  0.00  0.00     0.028 H 
ENDBRANCH  93  95
BRANCH  93  99
ATOM     99  C19 non d ame     -30.763  15.274  20.107  0.00  0.00    -0.073 C 
ATOM    100  H27 non d ame     -30.946  16.160  19.497  0.00  0.00     0.028 H 
ATOM    101  H28 non d ame     -29.871  14.762  19.745  0.00  0.00     0.028 H 
ATOM    102  H29 non d ame     -31.619  14.603  20.040  0.00  0.00     0.028 H 
ENDBRANCH  93  99
ENDBRANCH  90  93
ENDBRANCH   1  90
TORSDOF 26
ENDMDL
MODEL 2
REMARK VINA RESULT:      -7.1      1.399      2.161
REMARK  26 active torsions:
REMARK  status: ('A' for Active; 'I' for Inactive)
REMARK    1  A    between atoms: C2_2  and  C3_3 
REMARK    2  A    between atoms: C4_6  and  C5_7 
REMARK       I    between atoms: C5_7  and  N2_9 
REMARK    3  A    between atoms: N2_9  and  C6_10 
REMARK    4  A    between atoms: C6_10  and  C7_11 
REMARK    5  A    between atoms: C6_10  and  C8_13 
REMARK       I    between atoms: C7_11  and  N3_14 
REMARK    6  A    between atoms: N3_14  and  C9_15 
REMARK    7  A    between atoms: C9_15  and  C10_16 
REMARK    8  A    between atoms: C9_15  and  C11_18 
REMARK       I    between atoms: C10_16  and  N4_21 
REMARK    9  A    between atoms: C11_18  and  C12_19 
REMARK   10  A    between atoms: C11_18  and  C13_20 
REMARK   11  A    between atoms: N4_21  and  C14_22 
REMARK   12  A    between atoms: C14_22  and  C15_23 
REMARK   13  A    between atoms: C14_22  and  C16_25 
REMARK       I    between atoms: C15_23  and  N6_40 
REMARK   14  A    between atoms: C16_25  and  C17_26 
REMARK   15  A    between atoms: C17_26  and  C18_27 
REMARK   16  A    between atoms: C17_26  and  C19_28 
REMARK   17  A    between atoms: C20_29  and  C21_30 
REMARK   18  A    between atoms: C20_29  and  C24_33 
REMARK   19  A    between atoms: C20_29  and  N6_40 
REMARK   20  A    between atoms: C21_30  and  C22_31 
REMARK   21  A    between atoms: C22_31  and  C23_32 
REMARK   22  A    between atoms: C23_32  and  O8_43 
REMARK   23  A    between atoms: C24_33  and  C25_34 
REMARK   24  A    between atoms: C28_38  and  O6_39 
REMARK   25  A    between atoms: C29_42  and  O8_43 
REMARK   26  A    between atoms: C29_42  and  C35_49 
ROOT
ATOM      1  C14 non d ame     -31.224  14.104  24.406  0.00  0.00     0.089 C 
ATOM      2  H20 non d ame     -30.231  13.671  24.534  0.00  0.00     0.087 H 
ENDROOT
BRANCH   1   3
ATOM      3  N4  non d ame     -32.196  13.053  24.666  0.00  0.00    -0.346 N 
ATOM      4  C10 non d ame     -31.852  11.906  25.583  0.00  0.00     0.241 C 
ATOM      5  O4  non d ame     -30.784  11.849  26.098  0.00  0.00    -0.271 OA
ATOM      6  H19 non d ame     -33.098  13.118  24.215  0.00  0.00     0.163 HD
BRANCH   4   7
ATOM      7  C9  non d ame     -32.873  10.830  25.845  0.00  0.00     0.092 C 
ATOM      8  H11 non d ame     -33.007  10.717  26.920  0.00  0.00     0.088 H 
BRANCH   7   9
ATOM      9  N3  non d ame     -34.166  11.237  25.287  0.00  0.00    -0.346 N 
ATOM     10  C7  non d ame     -35.173  11.810  26.147  0.00  0.00     0.240 C 
ATOM     11  O3  non d ame     -34.959  11.951  27.289  0.00  0.00    -0.271 OA
ATOM     12  H10 non d ame     -34.366  11.120  24.304  0.00  0.00     0.163 HD
BRANCH  10  13
ATOM     13  C6  non d ame     -36.549  12.239  25.549  0.00  0.00     0.086 C 
ATOM     14  H6  non d ame     -37.387  11.990  26.199  0.00  0.00     0.086 H 
BRANCH  13  15
ATOM     15  N2  non d ame     -36.563  13.683  25.386  0.00  0.00    -0.343 N 
ATOM     16  C5  non d ame     -37.526  14.485  26.144  0.00  0.00     0.273 C 
ATOM     17  O2  non d ame     -38.287  13.958  26.880  0.00  0.00    -0.266 OA
ATOM     18  H5  non d ame     -35.911  14.124  24.753  0.00  0.00     0.163 HD
BRANCH  16  19
ATOM     19  C4  non d ame     -37.551  16.013  25.983  0.00  0.00     0.154 A 
ATOM     20  C1  non d ame     -37.207  16.765  24.815  0.00  0.00    -0.017 A 
ATOM     21  C2  non d ame     -37.397  18.116  25.184  0.00  0.00     0.077 A 
ATOM     22  H1  non d ame     -36.871  16.389  23.849  0.00  0.00     0.091 H 
ATOM     23  O1  non d ame     -37.805  18.126  26.419  0.00  0.00    -0.218 OA
ATOM     24  N1  non d ame     -37.902  16.911  26.908  0.00  0.00    -0.123 NA
BRANCH  21  25
ATOM     25  C3  non d ame     -37.169  19.333  24.298  0.00  0.00    -0.029 C 
ATOM     26  H2  non d ame     -38.035  19.481  23.653  0.00  0.00     0.036 H 
ATOM     27  H3  non d ame     -37.026  20.215  24.922  0.00  0.00     0.036 H 
ATOM     28  H4  non d ame     -36.282  19.175  23.684  0.00  0.00     0.036 H 
ENDBRANCH  21  25
ENDBRANCH  16  19
ENDBRANCH  13  15
BRANCH  13  29
ATOM     29  C8  non d ame     -36.751  11.567  24.214  0.00  0.00    -0.049 C 
ATOM     30  H7  non d ame     -36.944  12.322  23.453  0.00  0.00     0.030 H 
ATOM     31  H8  non d ame     -35.854  11.006  23.951  0.00  0.00     0.030 H 
ATOM     32  H9  non d ame     -37.600  10.886  24.275  0.00  0.00     0.030 H 
ENDBRANCH  13  29
ENDBRANCH  10  13
ENDBRANCH   7   9
BRANCH   7  33
ATOM     33  C11 non d ame     -32.414   9.504  25.169  0.00  0.00    -0.033 C 
ATOM     34  H12 non d ame     -31.342   9.404  25.337  0.00  0.00     0.042 H 
BRANCH  33  35
ATOM     35  C12 non d ame     -33.109   8.266  25.817  0.00  0.00    -0.071 C 
ATOM     36  H13 non d ame     -32.473   7.389  25.698  0.00  0.00     0.028 H 
ATOM     37  H14 non d ame     -33.273   8.455  26.877  0.00  0.00     0.028 H 
ATOM     38  H15 non d ame     -34.066   8.089  25.326  0.00  0.00     0.028 H 
ENDBRANCH  33  35
BRANCH  33  39
ATOM     39  C13 non d ame     -32.659   9.549  23.626  0.00  0.00    -0.071 C 
ATOM     40  H16 non d ame     -32.300  10.498  23.229  0.00  0.00     0.028 H 
ATOM     41  H17 non d ame     -32.122   8.728  23.149  0.00  0.00     0.028 H 
ATOM     42  H18 non d ame     -33.725   9.450  23.425  0.00  0.00     0.028 H 
ENDBRANCH  33  39
ENDBRANCH   7  33
ENDBRANCH   4   7
ENDBRANCH   1   3
BRANCH   1  43
ATOM     43  C15 non d ame     -31.485  15.276  25.395  0.00  0.00     0.240 C 
ATOM     44  O5  non d ame     -30.887  16.296  25.274  0.00  0.00    -0.271 OA
ATOM     45  N6  non d ame     -32.488  15.130  26.488  0.00  0.00    -0.355 N 
ATOM     46  H46 non d ame     -33.006  14.270  26.597  0.00  0.00     0.162 HD
BRANCH  45  47
ATOM     47  C20 non d ame     -32.727  16.254  27.419  0.00  0.00     0.013 C 
ATOM     48  H30 non d ame     -31.997  17.033  27.198  0.00  0.00     0.072 H 
BRANCH  47  49
ATOM     49  C21 non d ame     -32.552  15.771  28.841  0.00  0.00    -0.038 C 
ATOM     50  H31 non d ame     -31.548  16.076  29.135  0.00  0.00     0.036 H 
ATOM     51  H32 non d ame     -33.418  16.145  29.387  0.00  0.00     0.036 H 
BRANCH  49  52
ATOM     52  C22 non d ame     -32.593  14.232  28.960  0.00  0.00     0.018 C 
ATOM     53  H33 non d ame     -33.078  14.022  29.913  0.00  0.00     0.048 H 
ATOM     54  H34 non d ame     -33.040  13.875  28.031  0.00  0.00     0.048 H 
BRANCH  52  55
ATOM     55  C23 non d ame     -31.189  13.572  29.040  0.00  0.00     0.259 C 
ATOM     56  O7  non d ame     -30.238  14.121  28.585  0.00  0.00    -0.265 OA
BRANCH  55  57
ATOM     57  O8  non d ame     -31.052  12.296  29.652  0.00  0.00    -0.317 OA
BRANCH  57  58
ATOM     58  C29 non d ame     -31.779  12.156  30.876  0.00  0.00     0.052 C 
ATOM     59  H47 non d ame     -31.073  11.736  31.592  0.00  0.00     0.082 H 
ATOM     60  H48 non d ame     -32.230  13.130  31.064  0.00  0.00     0.082 H 
BRANCH  58  61
ATOM     61  C35 non d ame     -32.915  11.125  30.643  0.00  0.00    -0.034 A 
ATOM     62  C30 non d ame     -33.972  11.038  31.544  0.00  0.00    -0.075 A 
ATOM     63  C31 non d ame     -34.993  10.112  31.335  0.00  0.00    -0.082 A 
ATOM     64  H49 non d ame     -34.000  11.695  32.414  0.00  0.00     0.084 H 
ATOM     65  C32 non d ame     -34.953   9.269  30.222  0.00  0.00    -0.083 A 
ATOM     66  H50 non d ame     -35.821  10.047  32.042  0.00  0.00     0.083 H 
ATOM     67  C33 non d ame     -33.895   9.357  29.327  0.00  0.00    -0.082 A 
ATOM     68  H51 non d ame     -35.748   8.542  30.051  0.00  0.00     0.083 H 
ATOM     69  C34 non d ame     -32.874  10.283  29.531  0.00  0.00    -0.075 A 
ATOM     70  H52 non d ame     -33.866   8.696  28.461  0.00  0.00     0.083 H 
ATOM     71  H53 non d ame     -32.047  10.347  28.823  0.00  0.00     0.084 H 
ENDBRANCH  58  61
ENDBRANCH  57  58
ENDBRANCH  55  57
ENDBRANCH  52  55
ENDBRANCH  49  52
ENDBRANCH  47  49
BRANCH  47  72
ATOM     72  C24 non d ame     -34.145  16.788  27.232  0.00  0.00    -0.039 C 
ATOM     73  H35 non d ame     -34.554  16.236  26.384  0.00  0.00     0.036 H 
ATOM     74  H36 non d ame     -34.617  16.708  28.211  0.00  0.00     0.036 H 
BRANCH  72  75
ATOM     75  C25 non d ame     -34.147  18.339  26.830  0.00  0.00    -0.001 C 
ATOM     76  C26 non d ame     -32.616  18.935  26.893  0.00  0.00    -0.035 C 
ATOM     77  C27 non d ame     -32.616  20.061  27.645  0.00  0.00     0.085 C 
ATOM     78  H38 non d ame     -31.973  18.255  27.452  0.00  0.00     0.036 H 
ATOM     79  H39 non d ame     -32.311  19.287  25.907  0.00  0.00     0.036 H 
ATOM     80  N5  non d ame     -33.940  20.108  28.369  0.00  0.00    -0.049 N 
ATOM     81  H40 non d ame     -31.817  19.925  28.373  0.00  0.00     0.075 H 
ATOM     82  H41 non d ame     -32.571  20.886  26.934  0.00  0.00     0.075 H 
ATOM     83  C28 non d ame     -34.888  19.028  27.632  0.00  0.00     0.193 C 
ATOM     84  H42 non d ame     -33.762  19.790  29.311  0.00  0.00     0.280 HD
ATOM     85  H43 non d ame     -34.320  21.030  28.211  0.00  0.00     0.280 HD
ATOM     86  H44 non d ame     -35.670  19.355  26.947  0.00  0.00     0.129 H 
ATOM     87  H37 non d ame     -34.716  18.529  25.920  0.00  0.00     0.046 H 
BRANCH  83  88
ATOM     88  O6  non d ame     -35.544  18.207  28.600  0.00  0.00    -0.369 OA
ATOM     89  H45 non d ame     -35.031  18.195  29.411  0.00  0.00     0.212 HD
ENDBRANCH  83  88
ENDBRANCH  72  75
ENDBRANCH  47  72
ENDBRANCH  45  47
ENDBRANCH   1  43
BRANCH   1  90
ATOM     90  C16 non d ame     -31.392  14.593  22.977  0.00  0.00    -0.035 C 
ATOM     91  H21 non d ame     -32.042  13.863  22.496  0.00  0.00     0.037 H 
ATOM     92  H22 non d ame     -31.710  15.632  23.063  0.00  0.00     0.037 H 
BRANCH  90  93
ATOM     93  C17 non d ame     -30.062  14.605  22.158  0.00  0.00    -0.059 C 
ATOM     94  H23 non d ame     -29.354  15.242  22.686  0.00  0.00     0.038 H 
BRANCH  93  95
ATOM     95  C18 non d ame     -29.429  13.181  22.042  0.00  0.00    -0.073 C 
ATOM     96  H24 non d ame     -28.379  13.226  22.330  0.00  0.00     0.028 H 
ATOM     97  H25 non d ame     -29.957  12.494  22.702  0.00  0.00     0.028 H 
ATOM     98  H26 non d ame     -29.508  12.831  21.013  0.00  0.00     0.028 H 
ENDBRANCH  93  95
BRANCH  93  99
ATOM     99  C19 non d ame     -30.279  15.219  20.772  0.00  0.00    -0.073 C 
ATOM    100  H27 non d ame     -29.697  16.137  20.686  0.00  0.00     0.028 H 
ATOM    101  H28 non d ame     -29.958  14.512  20.007  0.00  0.00     0.028 H 
ATOM    102  H29 non d ame     -31.336  15.444  20.636  0.00  0.00     0.028 H 
ENDBRANCH  93  99
ENDBRANCH  90  93
ENDBRANCH   1  90
TORSDOF 26
ENDMDL
MODEL 3
REMARK VINA RESULT:      -7.1      3.403      6.537
REMARK  26 active torsions:
REMARK  status: ('A' for Active; 'I' for Inactive)
REMARK    1  A    between atoms: C2_2  and  C3_3 
REMARK    2  A    between atoms: C4_6  and  C5_7 
REMARK       I    between atoms: C5_7  and  N2_9 
REMARK    3  A    between atoms: N2_9  and  C6_10 
REMARK    4  A    between atoms: C6_10  and  C7_11 
REMARK    5  A    between atoms: C6_10  and  C8_13 
REMARK       I    between atoms: C7_11  and  N3_14 
REMARK    6  A    between atoms: N3_14  and  C9_15 
REMARK    7  A    between atoms: C9_15  and  C10_16 
REMARK    8  A    between atoms: C9_15  and  C11_18 
REMARK       I    between atoms: C10_16  and  N4_21 
REMARK    9  A    between atoms: C11_18  and  C12_19 
REMARK   10  A    between atoms: C11_18  and  C13_20 
REMARK   11  A    between atoms: N4_21  and  C14_22 
REMARK   12  A    between atoms: C14_22  and  C15_23 
REMARK   13  A    between atoms: C14_22  and  C16_25 
REMARK       I    between atoms: C15_23  and  N6_40 
REMARK   14  A    between atoms: C16_25  and  C17_26 
REMARK   15  A    between atoms: C17_26  and  C18_27 
REMARK   16  A    between atoms: C17_26  and  C19_28 
REMARK   17  A    between atoms: C20_29  and  C21_30 
REMARK   18  A    between atoms: C20_29  and  C24_33 
REMARK   19  A    between atoms: C20_29  and  N6_40 
REMARK   20  A    between atoms: C21_30  and  C22_31 
REMARK   21  A    between atoms: C22_31  and  C23_32 
REMARK   22  A    between atoms: C23_32  and  O8_43 
REMARK   23  A    between atoms: C24_33  and  C25_34 
REMARK   24  A    between atoms: C28_38  and  O6_39 
REMARK   25  A    between atoms: C29_42  and  O8_43 
REMARK   26  A    between atoms: C29_42  and  C35_49 
ROOT
ATOM      1  C14 non d ame     -32.682  10.416  25.786  0.00  0.00     0.089 C 
ATOM      2  H20 non d ame     -33.560  10.488  25.144  0.00  0.00     0.087 H 
ENDROOT
BRANCH   1   3
ATOM      3  N4  non d ame     -32.169   9.058  25.677  0.00  0.00    -0.346 N 
ATOM      4  C10 non d ame     -32.967   7.998  24.960  0.00  0.00     0.241 C 
ATOM      5  O4  non d ame     -34.021   8.261  24.482  0.00  0.00    -0.271 OA
ATOM      6  H19 non d ame     -31.272   8.854  26.094  0.00  0.00     0.163 HD
BRANCH   4   7
ATOM      7  C9  non d ame     -32.419   6.599  24.852  0.00  0.00     0.092 C 
ATOM      8  H11 non d ame     -31.353   6.613  25.080  0.00  0.00     0.088 H 
BRANCH   7   9
ATOM      9  N3  non d ame     -33.065   5.742  25.851  0.00  0.00    -0.346 N 
ATOM     10  C7  non d ame     -32.685   5.842  27.239  0.00  0.00     0.240 C 
ATOM     11  O3  non d ame     -31.861   6.605  27.569  0.00  0.00    -0.271 OA
ATOM     12  H10 non d ame     -33.776   5.078  25.581  0.00  0.00     0.163 HD
BRANCH  10  13
ATOM     13  C6  non d ame     -33.374   4.925  28.297  0.00  0.00     0.086 C 
ATOM     14  H6  non d ame     -32.761   4.774  29.186  0.00  0.00     0.086 H 
BRANCH  13  15
ATOM     15  N2  non d ame     -34.603   5.560  28.742  0.00  0.00    -0.343 N 
ATOM     16  C5  non d ame     -34.952   5.539  30.164  0.00  0.00     0.273 C 
ATOM     17  O2  non d ame     -34.238   5.007  30.942  0.00  0.00    -0.266 OA
ATOM     18  H5  non d ame     -35.209   6.010  28.070  0.00  0.00     0.163 HD
BRANCH  16  19
ATOM     19  C4  non d ame     -36.248   6.207  30.649  0.00  0.00     0.154 A 
ATOM     20  C1  non d ame     -36.533   7.609  30.696  0.00  0.00    -0.017 A 
ATOM     21  C2  non d ame     -37.845   7.696  31.214  0.00  0.00     0.077 A 
ATOM     22  H1  non d ame     -35.887   8.436  30.400  0.00  0.00     0.091 H 
ATOM     23  O1  non d ame     -38.256   6.481  31.434  0.00  0.00    -0.218 OA
ATOM     24  N1  non d ame     -37.341   5.595  31.112  0.00  0.00    -0.123 NA
BRANCH  21  25
ATOM     25  C3  non d ame     -38.631   8.975  31.466  0.00  0.00    -0.029 C 
ATOM     26  H2  non d ame     -39.277   9.180  30.613  0.00  0.00     0.036 H 
ATOM     27  H3  non d ame     -39.240   8.856  32.362  0.00  0.00     0.036 H 
ATOM     28  H4  non d ame     -37.939   9.806  31.606  0.00  0.00     0.036 H 
ENDBRANCH  21  25
ENDBRANCH  16  19
ENDBRANCH  13  15
BRANCH  13  29
ATOM     29  C8  non d ame     -33.678   3.583  27.681  0.00  0.00    -0.049 C 
ATOM     30  H7  non d ame     -34.659   3.245  28.015  0.00  0.00     0.030 H 
ATOM     31  H8  non d ame     -33.675   3.673  26.596  0.00  0.00     0.030 H 
ATOM     32  H9  non d ame     -32.921   2.862  27.989  0.00  0.00     0.030 H 
ENDBRANCH  13  29
ENDBRANCH  10  13
ENDBRANCH   7   9
BRANCH   7  33
ATOM     33  C11 non d ame     -32.706   6.038  23.428  0.00  0.00    -0.033 C 
ATOM     34  H12 non d ame     -33.528   6.617  23.007  0.00  0.00     0.042 H 
BRANCH  33  35
ATOM     35  C12 non d ame     -31.475   6.219  22.487  0.00  0.00    -0.071 C 
ATOM     36  H13 non d ame     -31.762   6.817  21.623  0.00  0.00     0.028 H 
ATOM     37  H14 non d ame     -30.675   6.723  23.029  0.00  0.00     0.028 H 
ATOM     38  H15 non d ame     -31.127   5.241  22.153  0.00  0.00     0.028 H 
ENDBRANCH  33  35
BRANCH  33  39
ATOM     39  C13 non d ame     -33.154   4.543  23.496  0.00  0.00    -0.071 C 
ATOM     40  H16 non d ame     -32.908   4.134  24.476  0.00  0.00     0.028 H 
ATOM     41  H17 non d ame     -34.230   4.478  23.334  0.00  0.00     0.028 H 
ATOM     42  H18 non d ame     -32.636   3.974  22.724  0.00  0.00     0.028 H 
ENDBRANCH  33  39
ENDBRANCH   7  33
ENDBRANCH   4   7
ENDBRANCH   1   3
BRANCH   1  43
ATOM     43  C15 non d ame     -31.559  11.404  25.359  0.00  0.00     0.240 C 
ATOM     44  O5  non d ame     -30.447  11.010  25.217  0.00  0.00    -0.271 OA
ATOM     45  N6  non d ame     -31.873  12.841  25.118  0.00  0.00    -0.355 N 
ATOM     46  H46 non d ame     -32.815  13.187  25.230  0.00  0.00     0.162 HD
BRANCH  45  47
ATOM     47  C20 non d ame     -30.795  13.769  24.710  0.00  0.00     0.013 C 
ATOM     48  H30 non d ame     -29.852  13.372  25.086  0.00  0.00     0.072 H 
BRANCH  47  49
ATOM     49  C21 non d ame     -31.057  15.133  25.308  0.00  0.00    -0.038 C 
ATOM     50  H31 non d ame     -30.518  15.148  26.255  0.00  0.00     0.036 H 
ATOM     51  H32 non d ame     -30.806  15.849  24.526  0.00  0.00     0.036 H 
BRANCH  49  52
ATOM     52  C22 non d ame     -32.546  15.362  25.649  0.00  0.00     0.018 C 
ATOM     53  H33 non d ame     -32.981  15.832  24.768  0.00  0.00     0.048 H 
ATOM     54  H34 non d ame     -32.921  14.399  25.995  0.00  0.00     0.048 H 
BRANCH  52  55
ATOM     55  C23 non d ame     -32.774  16.356  26.821  0.00  0.00     0.259 C 
ATOM     56  O7  non d ame     -32.868  17.522  26.613  0.00  0.00    -0.265 OA
BRANCH  55  57
ATOM     57  O8  non d ame     -32.857  15.859  28.151  0.00  0.00    -0.317 OA
BRANCH  57  58
ATOM     58  C29 non d ame     -33.472  14.571  28.253  0.00  0.00     0.052 C 
ATOM     59  H47 non d ame     -34.370  14.721  28.854  0.00  0.00     0.082 H 
ATOM     60  H48 non d ame     -33.555  14.202  27.232  0.00  0.00     0.082 H 
BRANCH  58  61
ATOM     61  C35 non d ame     -32.508  13.640  29.036  0.00  0.00    -0.034 A 
ATOM     62  C30 non d ame     -31.165  13.569  28.677  0.00  0.00    -0.075 A 
ATOM     63  C31 non d ame     -30.299  12.732  29.379  0.00  0.00    -0.082 A 
ATOM     64  H49 non d ame     -30.792  14.168  27.846  0.00  0.00     0.084 H 
ATOM     65  C32 non d ame     -30.780  11.963  30.442  0.00  0.00    -0.083 A 
ATOM     66  H50 non d ame     -29.247  12.680  29.097  0.00  0.00     0.083 H 
ATOM     67  C33 non d ame     -32.121  12.036  30.794  0.00  0.00    -0.082 A 
ATOM     68  H51 non d ame     -30.109  11.307  30.997  0.00  0.00     0.083 H 
ATOM     69  C34 non d ame     -32.990  12.872  30.097  0.00  0.00    -0.075 A 
ATOM     70  H52 non d ame     -32.494  11.432  31.623  0.00  0.00     0.083 H 
ATOM     71  H53 non d ame     -34.042  12.924  30.379  0.00  0.00     0.084 H 
ENDBRANCH  58  61
ENDBRANCH  57  58
ENDBRANCH  55  57
ENDBRANCH  52  55
ENDBRANCH  49  52
ENDBRANCH  47  49
BRANCH  47  72
ATOM     72  C24 non d ame     -30.756  13.878  23.188  0.00  0.00    -0.039 C 
ATOM     73  H35 non d ame     -30.084  13.085  22.857  0.00  0.00     0.036 H 
ATOM     74  H36 non d ame     -31.799  13.876  22.870  0.00  0.00     0.036 H 
BRANCH  72  75
ATOM     75  C25 non d ame     -30.118  15.267  22.709  0.00  0.00    -0.001 C 
ATOM     76  C26 non d ame     -31.250  16.161  21.920  0.00  0.00    -0.035 C 
ATOM     77  C27 non d ame     -30.741  16.558  20.729  0.00  0.00     0.085 C 
ATOM     78  H38 non d ame     -32.094  15.532  21.639  0.00  0.00     0.036 H 
ATOM     79  H39 non d ame     -31.422  17.099  22.449  0.00  0.00     0.036 H 
ATOM     80  N5  non d ame     -29.490  15.746  20.492  0.00  0.00    -0.049 N 
ATOM     81  H40 non d ame     -31.490  16.283  19.987  0.00  0.00     0.075 H 
ATOM     82  H41 non d ame     -30.465  17.603  20.864  0.00  0.00     0.075 H 
ATOM     83  C28 non d ame     -29.121  15.074  21.912  0.00  0.00     0.193 C 
ATOM     84  H42 non d ame     -29.744  15.012  19.845  0.00  0.00     0.280 HD
ATOM     85  H43 non d ame     -28.764  16.405  20.249  0.00  0.00     0.280 HD
ATOM     86  H44 non d ame     -28.304  15.470  22.517  0.00  0.00     0.129 H 
ATOM     87  H37 non d ame     -29.562  15.762  23.506  0.00  0.00     0.046 H 
BRANCH  83  88
ATOM     88  O6  non d ame     -28.829  13.686  21.740  0.00  0.00    -0.369 OA
ATOM     89  H45 non d ame     -29.621  13.169  21.909  0.00  0.00     0.212 HD
ENDBRANCH  83  88
ENDBRANCH  72  75
ENDBRANCH  47  72
ENDBRANCH  45  47
ENDBRANCH   1  43
BRANCH   1  90
ATOM     90  C16 non d ame     -33.076  10.683  27.230  0.00  0.00    -0.035 C 
ATOM     91  H21 non d ame     -32.168  10.523  27.811  0.00  0.00     0.037 H 
ATOM     92  H22 non d ame     -33.553  11.663  27.223  0.00  0.00     0.037 H 
BRANCH  90  93
ATOM     93  C17 non d ame     -34.137   9.680  27.786  0.00  0.00    -0.059 C 
ATOM     94  H23 non d ame     -34.186   8.836  27.098  0.00  0.00     0.038 H 
BRANCH  93  95
ATOM     95  C18 non d ame     -33.744   9.126  29.193  0.00  0.00    -0.073 C 
ATOM     96  H24 non d ame     -34.004   9.858  29.957  0.00  0.00     0.028 H 
ATOM     97  H25 non d ame     -34.283   8.198  29.382  0.00  0.00     0.028 H 
ATOM     98  H26 non d ame     -32.672   8.936  29.222  0.00  0.00     0.028 H 
ENDBRANCH  93  95
BRANCH  93  99
ATOM     99  C19 non d ame     -35.527  10.320  27.821  0.00  0.00    -0.073 C 
ATOM    100  H27 non d ame     -35.857  10.417  28.856  0.00  0.00     0.028 H 
ATOM    101  H28 non d ame     -35.486  11.306  27.359  0.00  0.00     0.028 H 
ATOM    102  H29 non d ame     -36.230   9.692  27.273  0.00  0.00     0.028 H 
ENDBRANCH  93  99
ENDBRANCH  90  93
ENDBRANCH   1  90
TORSDOF 26
ENDMDL
MODEL 4
REMARK VINA RESULT:      -6.9      2.771      7.326
REMARK  26 active torsions:
REMARK  status: ('A' for Active; 'I' for Inactive)
REMARK    1  A    between atoms: C2_2  and  C3_3 
REMARK    2  A    between atoms: C4_6  and  C5_7 
REMARK       I    between atoms: C5_7  and  N2_9 
REMARK    3  A    between atoms: N2_9  and  C6_10 
REMARK    4  A    between atoms: C6_10  and  C7_11 
REMARK    5  A    between atoms: C6_10  and  C8_13 
REMARK       I    between atoms: C7_11  and  N3_14 
REMARK    6  A    between atoms: N3_14  and  C9_15 
REMARK    7  A    between atoms: C9_15  and  C10_16 
REMARK    8  A    between atoms: C9_15  and  C11_18 
REMARK       I    between atoms: C10_16  and  N4_21 
REMARK    9  A    between atoms: C11_18  and  C12_19 
REMARK   10  A    between atoms: C11_18  and  C13_20 
REMARK   11  A    between atoms: N4_21  and  C14_22 
REMARK   12  A    between atoms: C14_22  and  C15_23 
REMARK   13  A    between atoms: C14_22  and  C16_25 
REMARK       I    between atoms: C15_23  and  N6_40 
REMARK   14  A    between atoms: C16_25  and  C17_26 
REMARK   15  A    between atoms: C17_26  and  C18_27 
REMARK   16  A    between atoms: C17_26  and  C19_28 
REMARK   17  A    between atoms: C20_29  and  C21_30 
REMARK   18  A    between atoms: C20_29  and  C24_33 
REMARK   19  A    between atoms: C20_29  and  N6_40 
REMARK   20  A    between atoms: C21_30  and  C22_31 
REMARK   21  A    between atoms: C22_31  and  C23_32 
REMARK   22  A    between atoms: C23_32  and  O8_43 
REMARK   23  A    between atoms: C24_33  and  C25_34 
REMARK   24  A    between atoms: C28_38  and  O6_39 
REMARK   25  A    between atoms: C29_42  and  O8_43 
REMARK   26  A    between atoms: C29_42  and  C35_49 
ROOT
ATOM      1  C14 non d ame     -35.318  14.178  26.296  0.00  0.00     0.089 C 
ATOM      2  H20 non d ame     -35.739  14.672  27.172  0.00  0.00     0.087 H 
ENDROOT
BRANCH   1   3
ATOM      3  N4  non d ame     -34.250  15.025  25.786  0.00  0.00    -0.346 N 
ATOM      4  C10 non d ame     -33.577  16.029  26.688  0.00  0.00     0.241 C 
ATOM      5  O4  non d ame     -33.915  16.139  27.821  0.00  0.00    -0.271 OA
ATOM      6  H19 non d ame     -33.979  14.917  24.819  0.00  0.00     0.163 HD
BRANCH   4   7
ATOM      7  C9  non d ame     -32.470  16.893  26.145  0.00  0.00     0.092 C 
ATOM      8  H11 non d ame     -31.633  16.885  26.844  0.00  0.00     0.088 H 
BRANCH   7   9
ATOM      9  N3  non d ame     -31.985  16.330  24.881  0.00  0.00    -0.346 N 
ATOM     10  C7  non d ame     -31.209  15.114  24.885  0.00  0.00     0.240 C 
ATOM     11  O3  non d ame     -30.965  14.576  25.895  0.00  0.00    -0.271 OA
ATOM     12  H10 non d ame     -32.186  16.784  24.002  0.00  0.00     0.163 HD
BRANCH  10  13
ATOM     13  C6  non d ame     -30.693  14.521  23.537  0.00  0.00     0.086 C 
ATOM     14  H6  non d ame     -29.623  14.666  23.395  0.00  0.00     0.086 H 
BRANCH  13  15
ATOM     15  N2  non d ame     -30.922  13.086  23.535  0.00  0.00    -0.343 N 
ATOM     16  C5  non d ame     -30.081  12.223  22.703  0.00  0.00     0.273 C 
ATOM     17  O2  non d ame     -29.225  12.693  22.036  0.00  0.00    -0.266 OA
ATOM     18  H5  non d ame     -31.658  12.693  24.105  0.00  0.00     0.163 HD
BRANCH  16  19
ATOM     19  C4  non d ame     -30.311  10.703  22.692  0.00  0.00     0.154 A 
ATOM     20  C1  non d ame     -31.354   9.982  23.355  0.00  0.00    -0.017 A 
ATOM     21  C2  non d ame     -31.121   8.626  23.031  0.00  0.00     0.077 A 
ATOM     22  H1  non d ame     -32.156  10.380  23.976  0.00  0.00     0.091 H 
ATOM     23  O1  non d ame     -30.067   8.586  22.270  0.00  0.00    -0.218 OA
ATOM     24  N1  non d ame     -29.576   9.785  22.058  0.00  0.00    -0.123 NA
BRANCH  21  25
ATOM     25  C3  non d ame     -31.951   7.435  23.489  0.00  0.00    -0.029 C 
ATOM     26  H2  non d ame     -32.764   7.781  24.126  0.00  0.00     0.036 H 
ATOM     27  H3  non d ame     -32.364   6.925  22.618  0.00  0.00     0.036 H 
ATOM     28  H4  non d ame     -31.320   6.745  24.048  0.00  0.00     0.036 H 
ENDBRANCH  21  25
ENDBRANCH  16  19
ENDBRANCH  13  15
BRANCH  13  29
ATOM     29  C8  non d ame     -31.429  15.163  22.388  0.00  0.00    -0.049 C 
ATOM     30  H7  non d ame     -31.723  14.397  21.671  0.00  0.00     0.030 H 
ATOM     31  H8  non d ame     -32.318  15.669  22.764  0.00  0.00     0.030 H 
ATOM     32  H9  non d ame     -30.777  15.888  21.899  0.00  0.00     0.030 H 
ENDBRANCH  13  29
ENDBRANCH  10  13
ENDBRANCH   7   9
BRANCH   7  33
ATOM     33  C11 non d ame     -33.010  18.332  25.895  0.00  0.00    -0.033 C 
ATOM     34  H12 non d ame     -32.605  18.674  24.943  0.00  0.00     0.042 H 
BRANCH  33  35
ATOM     35  C12 non d ame     -34.565  18.342  25.775  0.00  0.00    -0.071 C 
ATOM     36  H13 non d ame     -34.883  19.242  25.248  0.00  0.00     0.028 H 
ATOM     37  H14 non d ame     -34.893  17.462  25.223  0.00  0.00     0.028 H 
ATOM     38  H15 non d ame     -35.007  18.331  26.772  0.00  0.00     0.028 H 
ENDBRANCH  33  35
BRANCH  33  39
ATOM     39  C13 non d ame     -32.521  19.314  27.008  0.00  0.00    -0.071 C 
ATOM     40  H16 non d ame     -33.380  19.692  27.562  0.00  0.00     0.028 H 
ATOM     41  H17 non d ame     -31.852  18.787  27.690  0.00  0.00     0.028 H 
ATOM     42  H18 non d ame     -31.988  20.147  26.550  0.00  0.00     0.028 H 
ENDBRANCH  33  39
ENDBRANCH   7  33
ENDBRANCH   4   7
ENDBRANCH   1   3
BRANCH   1  43
ATOM     43  C15 non d ame     -34.723  12.782  26.638  0.00  0.00     0.240 C 
ATOM     44  O5  non d ame     -34.072  12.203  25.830  0.00  0.00    -0.271 OA
ATOM     45  N6  non d ame     -34.957  12.172  27.978  0.00  0.00    -0.355 N 
ATOM     46  H46 non d ame     -35.504  12.656  28.674  0.00  0.00     0.162 HD
BRANCH  45  47
ATOM     47  C20 non d ame     -34.383  10.845  28.289  0.00  0.00     0.013 C 
ATOM     48  H30 non d ame     -34.314  10.282  27.358  0.00  0.00     0.072 H 
BRANCH  47  49
ATOM     49  C21 non d ame     -35.288  10.124  29.262  0.00  0.00    -0.038 C 
ATOM     50  H31 non d ame     -35.222  10.683  30.196  0.00  0.00     0.036 H 
ATOM     51  H32 non d ame     -36.247  10.024  28.753  0.00  0.00     0.036 H 
BRANCH  49  52
ATOM     52  C22 non d ame     -34.809   8.690  29.577  0.00  0.00     0.018 C 
ATOM     53  H33 non d ame     -35.516   8.027  29.081  0.00  0.00     0.048 H 
ATOM     54  H34 non d ame     -33.754   8.665  29.304  0.00  0.00     0.048 H 
BRANCH  52  55
ATOM     55  C23 non d ame     -34.870   8.327  31.087  0.00  0.00     0.259 C 
ATOM     56  O7  non d ame     -34.345   9.022  31.896  0.00  0.00    -0.265 OA
BRANCH  55  57
ATOM     57  O8  non d ame     -35.550   7.146  31.493  0.00  0.00    -0.317 OA
BRANCH  57  58
ATOM     58  C29 non d ame     -35.733   6.190  30.444  0.00  0.00     0.052 C 
ATOM     59  H47 non d ame     -36.626   5.625  30.713  0.00  0.00     0.082 H 
ATOM     60  H48 non d ame     -35.708   6.762  29.517  0.00  0.00     0.082 H 
BRANCH  58  61
ATOM     61  C35 non d ame     -34.518   5.225  30.458  0.00  0.00    -0.034 A 
ATOM     62  C30 non d ame     -33.903   4.862  29.265  0.00  0.00    -0.075 A 
ATOM     63  C31 non d ame     -32.811   3.995  29.277  0.00  0.00    -0.082 A 
ATOM     64  H49 non d ame     -34.276   5.256  28.319  0.00  0.00     0.084 H 
ATOM     65  C32 non d ame     -32.337   3.488  30.490  0.00  0.00    -0.083 A 
ATOM     66  H50 non d ame     -32.330   3.713  28.340  0.00  0.00     0.083 H 
ATOM     67  C33 non d ame     -32.956   3.851  31.678  0.00  0.00    -0.082 A 
ATOM     68  H51 non d ame     -31.483   2.810  30.509  0.00  0.00     0.083 H 
ATOM     69  C34 non d ame     -34.045   4.719  31.671  0.00  0.00    -0.075 A 
ATOM     70  H52 non d ame     -32.584   3.452  32.623  0.00  0.00     0.083 H 
ATOM     71  H53 non d ame     -34.526   5.000  32.608  0.00  0.00     0.084 H 
ENDBRANCH  58  61
ENDBRANCH  57  58
ENDBRANCH  55  57
ENDBRANCH  52  55
ENDBRANCH  49  52
ENDBRANCH  47  49
BRANCH  47  72
ATOM     72  C24 non d ame     -32.998  11.013  28.909  0.00  0.00    -0.039 C 
ATOM     73  H35 non d ame     -32.886  10.179  29.602  0.00  0.00     0.036 H 
ATOM     74  H36 non d ame     -32.313  11.117  28.068  0.00  0.00     0.036 H 
BRANCH  72  75
ATOM     75  C25 non d ame     -32.895  12.360  29.772  0.00  0.00    -0.001 C 
ATOM     76  C26 non d ame     -31.870  13.417  29.039  0.00  0.00    -0.035 C 
ATOM     77  C27 non d ame     -30.957  13.839  29.946  0.00  0.00     0.085 C 
ATOM     78  H38 non d ame     -31.267  12.898  28.294  0.00  0.00     0.036 H 
ATOM     79  H39 non d ame     -32.403  14.329  28.770  0.00  0.00     0.036 H 
ATOM     80  N5  non d ame     -31.064  12.922  31.140  0.00  0.00    -0.049 N 
ATOM     81  H40 non d ame     -29.987  13.694  29.472  0.00  0.00     0.075 H 
ATOM     82  H41 non d ame     -31.277  14.839  30.237  0.00  0.00     0.075 H 
ATOM     83  C28 non d ame     -32.454  12.120  30.961  0.00  0.00     0.193 C 
ATOM     84  H42 non d ame     -30.301  12.264  31.065  0.00  0.00     0.280 HD
ATOM     85  H43 non d ame     -31.139  13.518  31.953  0.00  0.00     0.280 HD
ATOM     86  H44 non d ame     -33.328  12.389  31.554  0.00  0.00     0.129 H 
ATOM     87  H37 non d ame     -33.874  12.740  30.063  0.00  0.00     0.046 H 
BRANCH  83  88
ATOM     88  O6  non d ame     -32.251  10.725  31.190  0.00  0.00    -0.369 OA
ATOM     89  H45 non d ame     -33.101  10.281  31.237  0.00  0.00     0.212 HD
ENDBRANCH  83  88
ENDBRANCH  72  75
ENDBRANCH  47  72
ENDBRANCH  45  47
ENDBRANCH   1  43
BRANCH   1  90
ATOM     90  C16 non d ame     -36.387  14.029  25.225  0.00  0.00    -0.035 C 
ATOM     91  H21 non d ame     -35.871  14.185  24.278  0.00  0.00     0.037 H 
ATOM     92  H22 non d ame     -36.871  13.074  25.432  0.00  0.00     0.037 H 
BRANCH  90  93
ATOM     93  C17 non d ame     -37.506  15.116  25.301  0.00  0.00    -0.059 C 
ATOM     94  H23 non d ame     -38.467  14.606  25.244  0.00  0.00     0.038 H 
BRANCH  93  95
ATOM     95  C18 non d ame     -37.466  15.909  26.647  0.00  0.00    -0.073 C 
ATOM     96  H24 non d ame     -38.484  16.116  26.977  0.00  0.00     0.028 H 
ATOM     97  H25 non d ame     -36.954  15.316  27.404  0.00  0.00     0.028 H 
ATOM     98  H26 non d ame     -36.934  16.848  26.500  0.00  0.00     0.028 H 
ENDBRANCH  93  95
BRANCH  93  99
ATOM     99  C19 non d ame     -37.424  16.069  24.106  0.00  0.00    -0.073 C 
ATOM    100  H27 non d ame     -36.949  17.000  24.414  0.00  0.00     0.028 H 
ATOM    101  H28 non d ame     -36.837  15.607  23.312  0.00  0.00     0.028 H 
ATOM    102  H29 non d ame     -38.429  16.278  23.738  0.00  0.00     0.028 H 
ENDBRANCH  93  99
ENDBRANCH  90  93
ENDBRANCH   1  90
TORSDOF 26
ENDMDL
MODEL 5
REMARK VINA RESULT:      -6.9      3.017      7.003
REMARK  26 active torsions:
REMARK  status: ('A' for Active; 'I' for Inactive)
REMARK    1  A    between atoms: C2_2  and  C3_3 
REMARK    2  A    between atoms: C4_6  and  C5_7 
REMARK       I    between atoms: C5_7  and  N2_9 
REMARK    3  A    between atoms: N2_9  and  C6_10 
REMARK    4  A    between atoms: C6_10  and  C7_11 
REMARK    5  A    between atoms: C6_10  and  C8_13 
REMARK       I    between atoms: C7_11  and  N3_14 
REMARK    6  A    between atoms: N3_14  and  C9_15 
REMARK    7  A    between atoms: C9_15  and  C10_16 
REMARK    8  A    between atoms: C9_15  and  C11_18 
REMARK       I    between atoms: C10_16  and  N4_21 
REMARK    9  A    between atoms: C11_18  and  C12_19 
REMARK   10  A    between atoms: C11_18  and  C13_20 
REMARK   11  A    between atoms: N4_21  and  C14_22 
REMARK   12  A    between atoms: C14_22  and  C15_23 
REMARK   13  A    between atoms: C14_22  and  C16_25 
REMARK       I    between atoms: C15_23  and  N6_40 
REMARK   14  A    between atoms: C16_25  and  C17_26 
REMARK   15  A    between atoms: C17_26  and  C18_27 
REMARK   16  A    between atoms: C17_26  and  C19_28 
REMARK   17  A    between atoms: C20_29  and  C21_30 
REMARK   18  A    between atoms: C20_29  and  C24_33 
REMARK   19  A    between atoms: C20_29  and  N6_40 
REMARK   20  A    between atoms: C21_30  and  C22_31 
REMARK   21  A    between atoms: C22_31  and  C23_32 
REMARK   22  A    between atoms: C23_32  and  O8_43 
REMARK   23  A    between atoms: C24_33  and  C25_34 
REMARK   24  A    between atoms: C28_38  and  O6_39 
REMARK   25  A    between atoms: C29_42  and  O8_43 
REMARK   26  A    between atoms: C29_42  and  C35_49 
ROOT
ATOM      1  C14 non d ame     -31.239  14.146  24.327  0.00  0.00     0.089 C 
ATOM      2  H20 non d ame     -30.227  14.079  24.726  0.00  0.00     0.087 H 
ENDROOT
BRANCH   1   3
ATOM      3  N4  non d ame     -31.772  12.794  24.251  0.00  0.00    -0.346 N 
ATOM      4  C10 non d ame     -31.578  11.834  25.398  0.00  0.00     0.241 C 
ATOM      5  O4  non d ame     -30.988  12.172  26.371  0.00  0.00    -0.271 OA
ATOM      6  H19 non d ame     -32.269  12.525  23.414  0.00  0.00     0.163 HD
BRANCH   4   7
ATOM      7  C9  non d ame     -32.141  10.440  25.305  0.00  0.00     0.092 C 
ATOM      8  H11 non d ame     -33.026  10.452  24.670  0.00  0.00     0.088 H 
BRANCH   7   9
ATOM      9  N3  non d ame     -31.160   9.559  24.665  0.00  0.00    -0.346 N 
ATOM     10  C7  non d ame     -31.360   9.126  23.304  0.00  0.00     0.240 C 
ATOM     11  O3  non d ame     -32.306   9.476  22.710  0.00  0.00    -0.271 OA
ATOM     12  H10 non d ame     -30.340   9.247  25.166  0.00  0.00     0.163 HD
BRANCH  10  13
ATOM     13  C6  non d ame     -30.314   8.185  22.629  0.00  0.00     0.086 C 
ATOM     14  H6  non d ame     -29.949   7.409  23.302  0.00  0.00     0.086 H 
BRANCH  13  15
ATOM     15  N2  non d ame     -30.946   7.503  21.512  0.00  0.00    -0.343 N 
ATOM     16  C5  non d ame     -31.641   6.234  21.741  0.00  0.00     0.273 C 
ATOM     17  O2  non d ame     -31.685   5.770  22.827  0.00  0.00    -0.266 OA
ATOM     18  H5  non d ame     -30.901   7.905  20.587  0.00  0.00     0.163 HD
BRANCH  16  19
ATOM     19  C4  non d ame     -32.314   5.503  20.569  0.00  0.00     0.154 A 
ATOM     20  C1  non d ame     -32.305   4.096  20.308  0.00  0.00    -0.017 A 
ATOM     21  C2  non d ame     -33.060   3.941  19.124  0.00  0.00     0.077 A 
ATOM     22  H1  non d ame     -31.824   3.308  20.888  0.00  0.00     0.091 H 
ATOM     23  O1  non d ame     -33.454   5.126  18.758  0.00  0.00    -0.218 OA
ATOM     24  N1  non d ame     -33.031   6.053  19.585  0.00  0.00    -0.123 NA
BRANCH  21  25
ATOM     25  C3  non d ame     -33.359   2.629  18.411  0.00  0.00    -0.029 C 
ATOM     26  H2  non d ame     -34.111   2.797  17.640  0.00  0.00     0.036 H 
ATOM     27  H3  non d ame     -32.447   2.250  17.951  0.00  0.00     0.036 H 
ATOM     28  H4  non d ame     -33.733   1.901  19.130  0.00  0.00     0.036 H 
ENDBRANCH  21  25
ENDBRANCH  16  19
ENDBRANCH  13  15
BRANCH  13  29
ATOM     29  C8  non d ame     -29.143   8.999  22.142  0.00  0.00    -0.049 C 
ATOM     30  H7  non d ame     -28.332   8.939  22.869  0.00  0.00     0.030 H 
ATOM     31  H8  non d ame     -28.801   8.607  21.185  0.00  0.00     0.030 H 
ATOM     32  H9  non d ame     -29.447  10.039  22.022  0.00  0.00     0.030 H 
ENDBRANCH  13  29
ENDBRANCH  10  13
ENDBRANCH   7   9
BRANCH   7  33
ATOM     33  C11 non d ame     -32.454   9.911  26.736  0.00  0.00    -0.033 C 
ATOM     34  H12 non d ame     -31.691  10.306  27.407  0.00  0.00     0.042 H 
BRANCH  33  35
ATOM     35  C12 non d ame     -33.837  10.428  27.242  0.00  0.00    -0.071 C 
ATOM     36  H13 non d ame     -34.076  11.370  26.749  0.00  0.00     0.028 H 
ATOM     37  H14 non d ame     -34.606   9.692  27.012  0.00  0.00     0.028 H 
ATOM     38  H15 non d ame     -33.794  10.583  28.320  0.00  0.00     0.028 H 
ENDBRANCH  33  35
BRANCH  33  39
ATOM     39  C13 non d ame     -32.380   8.351  26.784  0.00  0.00    -0.071 C 
ATOM     40  H16 non d ame     -31.987   7.977  25.838  0.00  0.00     0.028 H 
ATOM     41  H17 non d ame     -31.723   8.043  27.598  0.00  0.00     0.028 H 
ATOM     42  H18 non d ame     -33.378   7.945  26.950  0.00  0.00     0.028 H 
ENDBRANCH  33  39
ENDBRANCH   7  33
ENDBRANCH   4   7
ENDBRANCH   1   3
BRANCH   1  43
ATOM     43  C15 non d ame     -32.173  14.996  25.235  0.00  0.00     0.240 C 
ATOM     44  O5  non d ame     -33.216  15.381  24.815  0.00  0.00    -0.271 OA
ATOM     45  N6  non d ame     -31.771  15.324  26.633  0.00  0.00    -0.355 N 
ATOM     46  H46 non d ame     -30.889  14.999  27.002  0.00  0.00     0.162 HD
BRANCH  45  47
ATOM     47  C20 non d ame     -32.670  16.132  27.484  0.00  0.00     0.013 C 
ATOM     48  H30 non d ame     -33.654  16.146  27.014  0.00  0.00     0.072 H 
BRANCH  47  49
ATOM     49  C21 non d ame     -32.128  17.539  27.590  0.00  0.00    -0.038 C 
ATOM     50  H31 non d ame     -32.408  17.889  28.584  0.00  0.00     0.036 H 
ATOM     51  H32 non d ame     -31.076  17.470  27.313  0.00  0.00     0.036 H 
BRANCH  49  52
ATOM     52  C22 non d ame     -32.782  18.511  26.585  0.00  0.00     0.018 C 
ATOM     53  H33 non d ame     -31.958  18.982  26.050  0.00  0.00     0.048 H 
ATOM     54  H34 non d ame     -33.519  17.921  26.041  0.00  0.00     0.048 H 
BRANCH  52  55
ATOM     55  C23 non d ame     -33.572  19.669  27.257  0.00  0.00     0.259 C 
ATOM     56  O7  non d ame     -33.415  20.792  26.903  0.00  0.00    -0.265 OA
BRANCH  55  57
ATOM     57  O8  non d ame     -34.479  19.373  28.312  0.00  0.00    -0.317 OA
BRANCH  57  58
ATOM     58  C29 non d ame     -35.856  19.417  27.927  0.00  0.00     0.052 C 
ATOM     59  H47 non d ame     -36.424  19.345  28.854  0.00  0.00     0.082 H 
ATOM     60  H48 non d ame     -35.956  20.298  27.293  0.00  0.00     0.082 H 
BRANCH  58  61
ATOM     61  C35 non d ame     -36.154  18.159  27.069  0.00  0.00    -0.034 A 
ATOM     62  C30 non d ame     -36.442  18.292  25.714  0.00  0.00    -0.075 A 
ATOM     63  C31 non d ame     -36.710  17.162  24.943  0.00  0.00    -0.082 A 
ATOM     64  H49 non d ame     -36.459  19.281  25.256  0.00  0.00     0.084 H 
ATOM     65  C32 non d ame     -36.692  15.894  25.533  0.00  0.00    -0.083 A 
ATOM     66  H50 non d ame     -36.934  17.269  23.882  0.00  0.00     0.083 H 
ATOM     67  C33 non d ame     -36.407  15.767  26.885  0.00  0.00    -0.082 A 
ATOM     68  H51 non d ame     -36.900  15.006  24.937  0.00  0.00     0.083 H 
ATOM     69  C34 non d ame     -36.136  16.894  27.659  0.00  0.00    -0.075 A 
ATOM     70  H52 non d ame     -36.396  14.777  27.343  0.00  0.00     0.083 H 
ATOM     71  H53 non d ame     -35.912  16.786  28.721  0.00  0.00     0.084 H 
ENDBRANCH  58  61
ENDBRANCH  57  58
ENDBRANCH  55  57
ENDBRANCH  52  55
ENDBRANCH  49  52
ENDBRANCH  47  49
BRANCH  47  72
ATOM     72  C24 non d ame     -32.757  15.512  28.877  0.00  0.00    -0.039 C 
ATOM     73  H35 non d ame     -32.477  16.309  29.567  0.00  0.00     0.036 H 
ATOM     74  H36 non d ame     -33.751  15.066  28.935  0.00  0.00     0.036 H 
BRANCH  72  75
ATOM     75  C25 non d ame     -31.696  14.327  29.066  0.00  0.00    -0.001 C 
ATOM     76  C26 non d ame     -32.469  12.951  29.528  0.00  0.00    -0.035 C 
ATOM     77  C27 non d ame     -31.857  12.455  30.630  0.00  0.00     0.085 C 
ATOM     78  H38 non d ame     -33.474  13.186  29.878  0.00  0.00     0.036 H 
ATOM     79  H39 non d ame     -32.321  12.171  28.781  0.00  0.00     0.036 H 
ATOM     80  N5  non d ame     -30.945  13.538  31.153  0.00  0.00    -0.049 N 
ATOM     81  H40 non d ame     -32.655  12.281  31.352  0.00  0.00     0.075 H 
ATOM     82  H41 non d ame     -31.251  11.622  30.276  0.00  0.00     0.075 H 
ATOM     83  C28 non d ame     -30.819  14.625  29.966  0.00  0.00     0.193 C 
ATOM     84  H42 non d ame     -31.427  13.967  31.931  0.00  0.00     0.280 HD
ATOM     85  H43 non d ame     -30.042  13.108  31.294  0.00  0.00     0.280 HD
ATOM     86  H44 non d ame     -29.917  14.674  29.355  0.00  0.00     0.129 H 
ATOM     87  H37 non d ame     -31.008  14.251  28.224  0.00  0.00     0.046 H 
BRANCH  83  88
ATOM     88  O6  non d ame     -31.003  15.944  30.483  0.00  0.00    -0.369 OA
ATOM     89  H45 non d ame     -30.735  16.587  29.822  0.00  0.00     0.212 HD
ENDBRANCH  83  88
ENDBRANCH  72  75
ENDBRANCH  47  72
ENDBRANCH  45  47
ENDBRANCH   1  43
BRANCH   1  90
ATOM     90  C16 non d ame     -31.203  14.744  22.929  0.00  0.00    -0.035 C 
ATOM     91  H21 non d ame     -31.766  14.051  22.304  0.00  0.00     0.037 H 
ATOM     92  H22 non d ame     -31.545  15.773  23.046  0.00  0.00     0.037 H 
BRANCH  90  93
ATOM     93  C17 non d ame     -29.768  14.822  22.318  0.00  0.00    -0.059 C 
ATOM     94  H23 non d ame     -29.106  15.232  23.081  0.00  0.00     0.038 H 
BRANCH  93  95
ATOM     95  C18 non d ame     -29.220  13.415  21.917  0.00  0.00    -0.073 C 
ATOM     96  H24 non d ame     -30.035  12.806  21.528  0.00  0.00     0.028 H 
ATOM     97  H25 non d ame     -28.454  13.528  21.151  0.00  0.00     0.028 H 
ATOM     98  H26 non d ame     -28.790  12.930  22.793  0.00  0.00     0.028 H 
ENDBRANCH  93  95
BRANCH  93  99
ATOM     99  C19 non d ame     -29.734  15.780  21.125  0.00  0.00    -0.073 C 
ATOM    100  H27 non d ame     -29.631  15.208  20.202  0.00  0.00     0.028 H 
ATOM    101  H28 non d ame     -30.659  16.356  21.094  0.00  0.00     0.028 H 
ATOM    102  H29 non d ame     -28.887  16.459  21.228  0.00  0.00     0.028 H 
ENDBRANCH  93  99
ENDBRANCH  90  93
ENDBRANCH   1  90
TORSDOF 26
ENDMDL
MODEL 6
REMARK VINA RESULT:      -6.9      2.455      7.898
REMARK  26 active torsions:
REMARK  status: ('A' for Active; 'I' for Inactive)
REMARK    1  A    between atoms: C2_2  and  C3_3 
REMARK    2  A    between atoms: C4_6  and  C5_7 
REMARK       I    between atoms: C5_7  and  N2_9 
REMARK    3  A    between atoms: N2_9  and  C6_10 
REMARK    4  A    between atoms: C6_10  and  C7_11 
REMARK    5  A    between atoms: C6_10  and  C8_13 
REMARK       I    between atoms: C7_11  and  N3_14 
REMARK    6  A    between atoms: N3_14  and  C9_15 
REMARK    7  A    between atoms: C9_15  and  C10_16 
REMARK    8  A    between atoms: C9_15  and  C11_18 
REMARK       I    between atoms: C10_16  and  N4_21 
REMARK    9  A    between atoms: C11_18  and  C12_19 
REMARK   10  A    between atoms: C11_18  and  C13_20 
REMARK   11  A    between atoms: N4_21  and  C14_22 
REMARK   12  A    between atoms: C14_22  and  C15_23 
REMARK   13  A    between atoms: C14_22  and  C16_25 
REMARK       I    between atoms: C15_23  and  N6_40 
REMARK   14  A    between atoms: C16_25  and  C17_26 
REMARK   15  A    between atoms: C17_26  and  C18_27 
REMARK   16  A    between atoms: C17_26  and  C19_28 
REMARK   17  A    between atoms: C20_29  and  C21_30 
REMARK   18  A    between atoms: C20_29  and  C24_33 
REMARK   19  A    between atoms: C20_29  and  N6_40 
REMARK   20  A    between atoms: C21_30  and  C22_31 
REMARK   21  A    between atoms: C22_31  and  C23_32 
REMARK   22  A    between atoms: C23_32  and  O8_43 
REMARK   23  A    between atoms: C24_33  and  C25_34 
REMARK   24  A    between atoms: C28_38  and  O6_39 
REMARK   25  A    between atoms: C29_42  and  O8_43 
REMARK   26  A    between atoms: C29_42  and  C35_49 
ROOT
ATOM      1  C14 non d ame     -36.503  16.019  26.507  0.00  0.00     0.089 C 
ATOM      2  H20 non d ame     -37.092  16.580  27.233  0.00  0.00     0.087 H 
ENDROOT
BRANCH   1   3
ATOM      3  N4  non d ame     -35.100  16.197  26.850  0.00  0.00    -0.346 N 
ATOM      4  C10 non d ame     -34.693  17.207  27.893  0.00  0.00     0.241 C 
ATOM      5  O4  non d ame     -35.513  17.868  28.441  0.00  0.00    -0.271 OA
ATOM      6  H19 non d ame     -34.418  15.627  26.371  0.00  0.00     0.163 HD
BRANCH   4   7
ATOM      7  C9  non d ame     -33.237  17.374  28.240  0.00  0.00     0.092 C 
ATOM      8  H11 non d ame     -33.153  17.906  29.188  0.00  0.00     0.088 H 
BRANCH   7   9
ATOM      9  N3  non d ame     -32.625  16.056  28.428  0.00  0.00    -0.346 N 
ATOM     10  C7  non d ame     -31.730  15.828  29.536  0.00  0.00     0.240 C 
ATOM     11  O3  non d ame     -31.490  16.695  30.285  0.00  0.00    -0.271 OA
ATOM     12  H10 non d ame     -32.820  15.299  27.789  0.00  0.00     0.163 HD
BRANCH  10  13
ATOM     13  C6  non d ame     -31.078  14.424  29.728  0.00  0.00     0.086 C 
ATOM     14  H6  non d ame     -30.449  14.369  30.616  0.00  0.00     0.086 H 
BRANCH  13  15
ATOM     15  N2  non d ame     -32.130  13.436  29.903  0.00  0.00    -0.343 N 
ATOM     16  C5  non d ame     -31.839  12.190  30.616  0.00  0.00     0.273 C 
ATOM     17  O2  non d ame     -30.755  11.991  31.042  0.00  0.00    -0.266 OA
ATOM     18  H5  non d ame     -33.054  13.614  29.533  0.00  0.00     0.163 HD
BRANCH  16  19
ATOM     19  C4  non d ame     -32.942  11.138  30.810  0.00  0.00     0.154 A 
ATOM     20  C1  non d ame     -33.319  10.102  29.897  0.00  0.00    -0.017 A 
ATOM     21  C2  non d ame     -34.372   9.415  30.542  0.00  0.00     0.077 A 
ATOM     22  H1  non d ame     -32.894   9.883  28.918  0.00  0.00     0.091 H 
ATOM     23  O1  non d ame     -34.568   9.996  31.689  0.00  0.00    -0.218 OA
ATOM     24  N1  non d ame     -33.746  11.004  31.868  0.00  0.00    -0.123 NA
BRANCH  21  25
ATOM     25  C3  non d ame     -35.135   8.216  29.994  0.00  0.00    -0.029 C 
ATOM     26  H2  non d ame     -35.452   8.423  28.972  0.00  0.00     0.036 H 
ATOM     27  H3  non d ame     -34.488   7.340  30.002  0.00  0.00     0.036 H 
ATOM     28  H4  non d ame     -36.010   8.028  30.615  0.00  0.00     0.036 H 
ENDBRANCH  21  25
ENDBRANCH  16  19
ENDBRANCH  13  15
BRANCH  13  29
ATOM     29  C8  non d ame     -30.246  14.082  28.519  0.00  0.00    -0.049 C 
ATOM     30  H7  non d ame     -29.931  15.001  28.023  0.00  0.00     0.030 H 
ATOM     31  H8  non d ame     -29.367  13.519  28.830  0.00  0.00     0.030 H 
ATOM     32  H9  non d ame     -30.837  13.482  27.828  0.00  0.00     0.030 H 
ENDBRANCH  13  29
ENDBRANCH  10  13
ENDBRANCH   7   9
BRANCH   7  33
ATOM     33  C11 non d ame     -32.511  18.121  27.083  0.00  0.00    -0.033 C 
ATOM     34  H12 non d ame     -31.460  18.210  27.358  0.00  0.00     0.042 H 
BRANCH  33  35
ATOM     35  C12 non d ame     -32.579  17.309  25.752  0.00  0.00    -0.071 C 
ATOM     36  H13 non d ame     -31.591  17.280  25.292  0.00  0.00     0.028 H 
ATOM     37  H14 non d ame     -32.913  16.293  25.962  0.00  0.00     0.028 H 
ATOM     38  H15 non d ame     -33.282  17.788  25.070  0.00  0.00     0.028 H 
ENDBRANCH  33  35
BRANCH  33  39
ATOM     39  C13 non d ame     -33.087  19.562  26.898  0.00  0.00    -0.071 C 
ATOM     40  H16 non d ame     -32.484  20.269  27.468  0.00  0.00     0.028 H 
ATOM     41  H17 non d ame     -33.062  19.830  25.842  0.00  0.00     0.028 H 
ATOM     42  H18 non d ame     -34.116  19.590  27.255  0.00  0.00     0.028 H 
ENDBRANCH  33  39
ENDBRANCH   7  33
ENDBRANCH   4   7
ENDBRANCH   1   3
BRANCH   1  43
ATOM     43  C15 non d ame     -36.830  14.498  26.533  0.00  0.00     0.240 C 
ATOM     44  O5  non d ame     -37.894  14.129  26.915  0.00  0.00    -0.271 OA
ATOM     45  N6  non d ame     -35.821  13.502  26.074  0.00  0.00    -0.355 N 
ATOM     46  H46 non d ame     -34.916  13.804  25.743  0.00  0.00     0.162 HD
BRANCH  45  47
ATOM     47  C20 non d ame     -36.148  12.060  26.104  0.00  0.00     0.013 C 
ATOM     48  H30 non d ame     -37.060  11.935  26.687  0.00  0.00     0.072 H 
BRANCH  47  49
ATOM     49  C21 non d ame     -35.012  11.304  26.755  0.00  0.00    -0.038 C 
ATOM     50  H31 non d ame     -34.787  11.843  27.675  0.00  0.00     0.036 H 
ATOM     51  H32 non d ame     -35.337  10.264  26.796  0.00  0.00     0.036 H 
BRANCH  49  52
ATOM     52  C22 non d ame     -33.718  11.323  25.911  0.00  0.00     0.018 C 
ATOM     53  H33 non d ame     -33.188  10.406  26.163  0.00  0.00     0.048 H 
ATOM     54  H34 non d ame     -34.038  11.505  24.885  0.00  0.00     0.048 H 
BRANCH  52  55
ATOM     55  C23 non d ame     -32.753  12.487  26.271  0.00  0.00     0.259 C 
ATOM     56  O7  non d ame     -33.129  13.399  26.934  0.00  0.00    -0.265 OA
BRANCH  55  57
ATOM     57  O8  non d ame     -31.416  12.458  25.789  0.00  0.00    -0.317 OA
BRANCH  57  58
ATOM     58  C29 non d ame     -31.297  12.044  24.425  0.00  0.00     0.052 C 
ATOM     59  H47 non d ame     -30.615  11.193  24.433  0.00  0.00     0.082 H 
ATOM     60  H48 non d ame     -32.318  11.920  24.065  0.00  0.00     0.082 H 
BRANCH  58  61
ATOM     61  C35 non d ame     -30.633  13.199  23.629  0.00  0.00    -0.034 A 
ATOM     62  C30 non d ame     -29.870  12.918  22.501  0.00  0.00    -0.075 A 
ATOM     63  C31 non d ame     -29.273  13.956  21.786  0.00  0.00    -0.082 A 
ATOM     64  H49 non d ame     -29.739  11.886  22.176  0.00  0.00     0.084 H 
ATOM     65  C32 non d ame     -29.439  15.279  22.206  0.00  0.00    -0.083 A 
ATOM     66  H50 non d ame     -28.676  13.733  20.901  0.00  0.00     0.083 H 
ATOM     67  C33 non d ame     -30.199  15.553  23.335  0.00  0.00    -0.082 A 
ATOM     68  H51 non d ame     -28.977  16.096  21.652  0.00  0.00     0.083 H 
ATOM     69  C34 non d ame     -30.800  14.520  24.051  0.00  0.00    -0.075 A 
ATOM     70  H52 non d ame     -30.326  16.586  23.661  0.00  0.00     0.083 H 
ATOM     71  H53 non d ame     -31.396  14.743  24.936  0.00  0.00     0.084 H 
ENDBRANCH  58  61
ENDBRANCH  57  58
ENDBRANCH  55  57
ENDBRANCH  52  55
ENDBRANCH  49  52
ENDBRANCH  47  49
BRANCH  47  72
ATOM     72  C24 non d ame     -36.353  11.547  24.680  0.00  0.00    -0.039 C 
ATOM     73  H35 non d ame     -35.745  12.196  24.048  0.00  0.00     0.036 H 
ATOM     74  H36 non d ame     -36.144  10.478  24.724  0.00  0.00     0.036 H 
BRANCH  72  75
ATOM     75  C25 non d ame     -37.873  11.714  24.204  0.00  0.00    -0.001 C 
ATOM     76  C26 non d ame     -38.389  10.328  23.485  0.00  0.00    -0.035 C 
ATOM     77  C27 non d ame     -38.929  10.635  22.281  0.00  0.00     0.085 C 
ATOM     78  H38 non d ame     -37.536   9.700  23.229  0.00  0.00     0.036 H 
ATOM     79  H39 non d ame     -39.228   9.908  24.040  0.00  0.00     0.036 H 
ATOM     80  N5  non d ame     -38.534  12.059  21.971  0.00  0.00    -0.049 N 
ATOM     81  H40 non d ame     -38.446   9.968  21.567  0.00  0.00     0.075 H 
ATOM     82  H41 non d ame     -40.008  10.590  22.426  0.00  0.00     0.075 H 
ATOM     83  C28 non d ame     -37.995  12.683  23.359  0.00  0.00     0.193 C 
ATOM     84  H42 non d ame     -37.763  12.007  21.321  0.00  0.00     0.280 HD
ATOM     85  H43 non d ame     -39.383  12.540  21.710  0.00  0.00     0.280 HD
ATOM     86  H44 non d ame     -38.615  13.370  23.935  0.00  0.00     0.129 H 
ATOM     87  H37 non d ame     -38.507  12.133  24.985  0.00  0.00     0.046 H 
BRANCH  83  88
ATOM     88  O6  non d ame     -36.761  13.369  23.145  0.00  0.00    -0.369 OA
ATOM     89  H45 non d ame     -36.940  14.273  22.873  0.00  0.00     0.212 HD
ENDBRANCH  83  88
ENDBRANCH  72  75
ENDBRANCH  47  72
ENDBRANCH  45  47
ENDBRANCH   1  43
BRANCH   1  90
ATOM     90  C16 non d ame     -36.746  16.570  25.111  0.00  0.00    -0.035 C 
ATOM     91  H21 non d ame     -35.756  16.685  24.669  0.00  0.00     0.037 H 
ATOM     92  H22 non d ame     -37.470  15.894  24.656  0.00  0.00     0.037 H 
BRANCH  90  93
ATOM     93  C17 non d ame     -37.400  17.988  25.102  0.00  0.00    -0.059 C 
ATOM     94  H23 non d ame     -38.003  18.069  24.198  0.00  0.00     0.038 H 
BRANCH  93  95
ATOM     95  C18 non d ame     -38.345  18.209  26.326  0.00  0.00    -0.073 C 
ATOM     96  H24 non d ame     -38.802  19.196  26.259  0.00  0.00     0.028 H 
ATOM     97  H25 non d ame     -39.125  17.448  26.325  0.00  0.00     0.028 H 
ATOM     98  H26 non d ame     -37.768  18.137  27.248  0.00  0.00     0.028 H 
ENDBRANCH  93  95
BRANCH  93  99
ATOM     99  C19 non d ame     -36.331  19.082  25.035  0.00  0.00    -0.073 C 
ATOM    100  H27 non d ame     -36.183  19.508  26.028  0.00  0.00     0.028 H 
ATOM    101  H28 non d ame     -35.393  18.654  24.680  0.00  0.00     0.028 H 
ATOM    102  H29 non d ame     -36.654  19.865  24.348  0.00  0.00     0.028 H 
ENDBRANCH  93  99
ENDBRANCH  90  93
ENDBRANCH   1  90
TORSDOF 26
ENDMDL
MODEL 7
REMARK VINA RESULT:      -6.9      2.592      6.196
REMARK  26 active torsions:
REMARK  status: ('A' for Active; 'I' for Inactive)
REMARK    1  A    between atoms: C2_2  and  C3_3 
REMARK    2  A    between atoms: C4_6  and  C5_7 
REMARK       I    between atoms: C5_7  and  N2_9 
REMARK    3  A    between atoms: N2_9  and  C6_10 
REMARK    4  A    between atoms: C6_10  and  C7_11 
REMARK    5  A    between atoms: C6_10  and  C8_13 
REMARK       I    between atoms: C7_11  and  N3_14 
REMARK    6  A    between atoms: N3_14  and  C9_15 
REMARK    7  A    between atoms: C9_15  and  C10_16 
REMARK    8  A    between atoms: C9_15  and  C11_18 
REMARK       I    between atoms: C10_16  and  N4_21 
REMARK    9  A    between atoms: C11_18  and  C12_19 
REMARK   10  A    between atoms: C11_18  and  C13_20 
REMARK   11  A    between atoms: N4_21  and  C14_22 
REMARK   12  A    between atoms: C14_22  and  C15_23 
REMARK   13  A    between atoms: C14_22  and  C16_25 
REMARK       I    between atoms: C15_23  and  N6_40 
REMARK   14  A    between atoms: C16_25  and  C17_26 
REMARK   15  A    between atoms: C17_26  and  C18_27 
REMARK   16  A    between atoms: C17_26  and  C19_28 
REMARK   17  A    between atoms: C20_29  and  C21_30 
REMARK   18  A    between atoms: C20_29  and  C24_33 
REMARK   19  A    between atoms: C20_29  and  N6_40 
REMARK   20  A    between atoms: C21_30  and  C22_31 
REMARK   21  A    between atoms: C22_31  and  C23_32 
REMARK   22  A    between atoms: C23_32  and  O8_43 
REMARK   23  A    between atoms: C24_33  and  C25_34 
REMARK   24  A    between atoms: C28_38  and  O6_39 
REMARK   25  A    between atoms: C29_42  and  O8_43 
REMARK   26  A    between atoms: C29_42  and  C35_49 
ROOT
ATOM      1  C14 non d ame     -31.147  13.915  24.623  0.00  0.00     0.089 C 
ATOM      2  H20 non d ame     -30.202  13.835  25.162  0.00  0.00     0.087 H 
ENDROOT
BRANCH   1   3
ATOM      3  N4  non d ame     -31.512  12.578  24.178  0.00  0.00    -0.346 N 
ATOM      4  C10 non d ame     -31.290  11.389  25.078  0.00  0.00     0.241 C 
ATOM      5  O4  non d ame     -30.814  11.532  26.156  0.00  0.00    -0.271 OA
ATOM      6  H19 non d ame     -31.914  12.477  23.257  0.00  0.00     0.163 HD
BRANCH   4   7
ATOM      7  C9  non d ame     -31.679  10.013  24.604  0.00  0.00     0.092 C 
ATOM      8  H11 non d ame     -31.006   9.278  25.046  0.00  0.00     0.088 H 
BRANCH   7   9
ATOM      9  N3  non d ame     -33.032   9.699  25.071  0.00  0.00    -0.346 N 
ATOM     10  C7  non d ame     -33.241   8.610  25.994  0.00  0.00     0.240 C 
ATOM     11  O3  non d ame     -32.332   7.977  26.370  0.00  0.00    -0.271 OA
ATOM     12  H10 non d ame     -33.827  10.235  24.753  0.00  0.00     0.163 HD
BRANCH  10  13
ATOM     13  C6  non d ame     -34.685   8.279  26.485  0.00  0.00     0.086 C 
ATOM     14  H6  non d ame     -34.868   7.207  26.562  0.00  0.00     0.086 H 
BRANCH  13  15
ATOM     15  N2  non d ame     -34.867   8.829  27.818  0.00  0.00    -0.343 N 
ATOM     16  C5  non d ame     -34.677   7.967  28.986  0.00  0.00     0.273 C 
ATOM     17  O2  non d ame     -34.380   6.832  28.844  0.00  0.00    -0.266 OA
ATOM     18  H5  non d ame     -35.124   9.800  27.930  0.00  0.00     0.163 HD
BRANCH  16  19
ATOM     19  C4  non d ame     -34.865   8.536  30.401  0.00  0.00     0.154 A 
ATOM     20  C1  non d ame     -35.110   9.900  30.759  0.00  0.00    -0.017 A 
ATOM     21  C2  non d ame     -35.206   9.894  32.169  0.00  0.00     0.077 A 
ATOM     22  H1  non d ame     -35.204  10.762  30.098  0.00  0.00     0.091 H 
ATOM     23  O1  non d ame     -35.036   8.666  32.564  0.00  0.00    -0.218 OA
ATOM     24  N1  non d ame     -34.835   7.856  31.550  0.00  0.00    -0.123 NA
BRANCH  21  25
ATOM     25  C3  non d ame     -35.462  11.102  33.060  0.00  0.00    -0.029 C 
ATOM     26  H2  non d ame     -34.510  11.539  33.363  0.00  0.00     0.036 H 
ATOM     27  H3  non d ame     -36.043  11.842  32.510  0.00  0.00     0.036 H 
ATOM     28  H4  non d ame     -36.016  10.790  33.945  0.00  0.00     0.036 H 
ENDBRANCH  21  25
ENDBRANCH  16  19
ENDBRANCH  13  15
BRANCH  13  29
ATOM     29  C8  non d ame     -35.691   8.878  25.536  0.00  0.00    -0.049 C 
ATOM     30  H7  non d ame     -36.432   9.443  26.102  0.00  0.00     0.030 H 
ATOM     31  H8  non d ame     -35.182   9.543  24.839  0.00  0.00     0.030 H 
ATOM     32  H9  non d ame     -36.188   8.081  24.982  0.00  0.00     0.030 H 
ENDBRANCH  13  29
ENDBRANCH  10  13
ENDBRANCH   7   9
BRANCH   7  33
ATOM     33  C11 non d ame     -31.648   9.973  23.048  0.00  0.00    -0.033 C 
ATOM     34  H12 non d ame     -32.036  10.926  22.687  0.00  0.00     0.042 H 
BRANCH  33  35
ATOM     35  C12 non d ame     -30.189   9.828  22.512  0.00  0.00    -0.071 C 
ATOM     36  H13 non d ame     -30.006  10.584  21.748  0.00  0.00     0.028 H 
ATOM     37  H14 non d ame     -29.485   9.963  23.333  0.00  0.00     0.028 H 
ATOM     38  H15 non d ame     -30.058   8.837  22.079  0.00  0.00     0.028 H 
ENDBRANCH  33  35
BRANCH  33  39
ATOM     39  C13 non d ame     -32.568   8.837  22.498  0.00  0.00    -0.071 C 
ATOM     40  H16 non d ame     -33.594   9.200  22.432  0.00  0.00     0.028 H 
ATOM     41  H17 non d ame     -32.224   8.536  21.508  0.00  0.00     0.028 H 
ATOM     42  H18 non d ame     -32.528   7.980  23.171  0.00  0.00     0.028 H 
ENDBRANCH  33  39
ENDBRANCH   7  33
ENDBRANCH   4   7
ENDBRANCH   1   3
BRANCH   1  43
ATOM     43  C15 non d ame     -32.291  14.467  25.522  0.00  0.00     0.240 C 
ATOM     44  O5  non d ame     -33.408  14.099  25.350  0.00  0.00    -0.271 OA
ATOM     45  N6  non d ame     -31.991  15.447  26.605  0.00  0.00    -0.355 N 
ATOM     46  H46 non d ame     -31.045  15.762  26.764  0.00  0.00     0.162 HD
BRANCH  45  47
ATOM     47  C20 non d ame     -33.089  15.961  27.452  0.00  0.00     0.013 C 
ATOM     48  H30 non d ame     -34.033  15.689  26.980  0.00  0.00     0.072 H 
BRANCH  47  49
ATOM     49  C21 non d ame     -32.978  17.465  27.555  0.00  0.00    -0.038 C 
ATOM     50  H31 non d ame     -33.945  17.808  27.925  0.00  0.00     0.036 H 
ATOM     51  H32 non d ame     -32.074  17.654  28.135  0.00  0.00     0.036 H 
BRANCH  49  52
ATOM     52  C22 non d ame     -32.769  18.146  26.185  0.00  0.00     0.018 C 
ATOM     53  H33 non d ame     -31.703  18.365  26.124  0.00  0.00     0.048 H 
ATOM     54  H34 non d ame     -33.232  17.485  25.453  0.00  0.00     0.048 H 
BRANCH  52  55
ATOM     55  C23 non d ame     -33.495  19.513  26.048  0.00  0.00     0.259 C 
ATOM     56  O7  non d ame     -33.114  20.462  26.654  0.00  0.00    -0.265 OA
BRANCH  55  57
ATOM     57  O8  non d ame     -34.630  19.617  25.198  0.00  0.00    -0.317 OA
BRANCH  57  58
ATOM     58  C29 non d ame     -35.722  18.774  25.579  0.00  0.00     0.052 C 
ATOM     59  H47 non d ame     -36.415  18.790  24.738  0.00  0.00     0.082 H 
ATOM     60  H48 non d ame     -35.271  17.833  25.896  0.00  0.00     0.082 H 
BRANCH  58  61
ATOM     61  C35 non d ame     -36.421  19.420  26.804  0.00  0.00    -0.034 A 
ATOM     62  C30 non d ame     -37.010  20.675  26.688  0.00  0.00    -0.075 A 
ATOM     63  C31 non d ame     -37.638  21.256  27.789  0.00  0.00    -0.082 A 
ATOM     64  H49 non d ame     -36.980  21.204  25.735  0.00  0.00     0.084 H 
ATOM     65  C32 non d ame     -37.673  20.578  29.011  0.00  0.00    -0.083 A 
ATOM     66  H50 non d ame     -38.101  22.239  27.694  0.00  0.00     0.083 H 
ATOM     67  C33 non d ame     -37.081  19.328  29.123  0.00  0.00    -0.082 A 
ATOM     68  H51 non d ame     -38.163  21.025  29.876  0.00  0.00     0.083 H 
ATOM     69  C34 non d ame     -36.454  18.743  28.025  0.00  0.00    -0.075 A 
ATOM     70  H52 non d ame     -37.108  18.803  30.078  0.00  0.00     0.083 H 
ATOM     71  H53 non d ame     -35.992  17.760  28.120  0.00  0.00     0.084 H 
ENDBRANCH  58  61
ENDBRANCH  57  58
ENDBRANCH  55  57
ENDBRANCH  52  55
ENDBRANCH  49  52
ENDBRANCH  47  49
BRANCH  47  72
ATOM     72  C24 non d ame     -32.997  15.346  28.847  0.00  0.00    -0.039 C 
ATOM     73  H35 non d ame     -32.897  16.190  29.530  0.00  0.00     0.036 H 
ATOM     74  H36 non d ame     -33.855  14.679  28.927  0.00  0.00     0.036 H 
BRANCH  72  75
ATOM     75  C25 non d ame     -31.682  14.446  29.012  0.00  0.00    -0.001 C 
ATOM     76  C26 non d ame     -32.100  12.918  29.454  0.00  0.00    -0.035 C 
ATOM     77  C27 non d ame     -31.379  12.567  30.545  0.00  0.00     0.085 C 
ATOM     78  H38 non d ame     -33.129  12.902  29.812  0.00  0.00     0.036 H 
ATOM     79  H39 non d ame     -31.776  12.207  28.694  0.00  0.00     0.036 H 
ATOM     80  N5  non d ame     -30.748  13.828  31.083  0.00  0.00    -0.049 N 
ATOM     81  H40 non d ame     -32.106  12.197  31.268  0.00  0.00     0.075 H 
ATOM     82  H41 non d ame     -30.594  11.907  30.175  0.00  0.00     0.075 H 
ATOM     83  C28 non d ame     -30.893  14.931  29.912  0.00  0.00     0.193 C 
ATOM     84  H42 non d ame     -31.311  14.118  31.869  0.00  0.00     0.280 HD
ATOM     85  H43 non d ame     -29.767  13.624  31.212  0.00  0.00     0.280 HD
ATOM     86  H44 non d ame     -30.035  15.203  29.298  0.00  0.00     0.129 H 
ATOM     87  H37 non d ame     -31.002  14.549  28.166  0.00  0.00     0.046 H 
BRANCH  83  88
ATOM     88  O6  non d ame     -31.383  16.160  30.452  0.00  0.00    -0.369 OA
ATOM     89  H45 non d ame     -31.011  16.296  31.326  0.00  0.00     0.212 HD
ENDBRANCH  83  88
ENDBRANCH  72  75
ENDBRANCH  47  72
ENDBRANCH  45  47
ENDBRANCH   1  43
BRANCH   1  90
ATOM     90  C16 non d ame     -30.974  14.812  23.408  0.00  0.00    -0.035 C 
ATOM     91  H21 non d ame     -31.944  14.818  22.913  0.00  0.00     0.037 H 
ATOM     92  H22 non d ame     -30.553  15.741  23.794  0.00  0.00     0.037 H 
BRANCH  90  93
ATOM     93  C17 non d ame     -29.950  14.263  22.365  0.00  0.00    -0.059 C 
ATOM     94  H23 non d ame     -29.966  13.175  22.427  0.00  0.00     0.038 H 
BRANCH  93  95
ATOM     95  C18 non d ame     -30.327  14.662  20.902  0.00  0.00    -0.073 C 
ATOM     96  H24 non d ame     -29.791  14.024  20.201  0.00  0.00     0.028 H 
ATOM     97  H25 non d ame     -31.400  14.539  20.757  0.00  0.00     0.028 H 
ATOM     98  H26 non d ame     -30.054  15.703  20.728  0.00  0.00     0.028 H 
ENDBRANCH  93  95
BRANCH  93  99
ATOM     99  C19 non d ame     -28.528  14.716  22.704  0.00  0.00    -0.073 C 
ATOM    100  H27 non d ame     -28.523  15.791  22.888  0.00  0.00     0.028 H 
ATOM    101  H28 non d ame     -28.181  14.193  23.595  0.00  0.00     0.028 H 
ATOM    102  H29 non d ame     -27.865  14.488  21.869  0.00  0.00     0.028 H 
ENDBRANCH  93  99
ENDBRANCH  90  93
ENDBRANCH   1  90
TORSDOF 26
ENDMDL
MODEL 8
REMARK VINA RESULT:      -6.8      2.507      6.797
REMARK  26 active torsions:
REMARK  status: ('A' for Active; 'I' for Inactive)
REMARK    1  A    between atoms: C2_2  and  C3_3 
REMARK    2  A    between atoms: C4_6  and  C5_7 
REMARK       I    between atoms: C5_7  and  N2_9 
REMARK    3  A    between atoms: N2_9  and  C6_10 
REMARK    4  A    between atoms: C6_10  and  C7_11 
REMARK    5  A    between atoms: C6_10  and  C8_13 
REMARK       I    between atoms: C7_11  and  N3_14 
REMARK    6  A    between atoms: N3_14  and  C9_15 
REMARK    7  A    between atoms: C9_15  and  C10_16 
REMARK    8  A    between atoms: C9_15  and  C11_18 
REMARK       I    between atoms: C10_16  and  N4_21 
REMARK    9  A    between atoms: C11_18  and  C12_19 
REMARK   10  A    between atoms: C11_18  and  C13_20 
REMARK   11  A    between atoms: N4_21  and  C14_22 
REMARK   12  A    between atoms: C14_22  and  C15_23 
REMARK   13  A    between atoms: C14_22  and  C16_25 
REMARK       I    between atoms: C15_23  and  N6_40 
REMARK   14  A    between atoms: C16_25  and  C17_26 
REMARK   15  A    between atoms: C17_26  and  C18_27 
REMARK   16  A    between atoms: C17_26  and  C19_28 
REMARK   17  A    between atoms: C20_29  and  C21_30 
REMARK   18  A    between atoms: C20_29  and  C24_33 
REMARK   19  A    between atoms: C20_29  and  N6_40 
REMARK   20  A    between atoms: C21_30  and  C22_31 
REMARK   21  A    between atoms: C22_31  and  C23_32 
REMARK   22  A    between atoms: C23_32  and  O8_43 
REMARK   23  A    between atoms: C24_33  and  C25_34 
REMARK   24  A    between atoms: C28_38  and  O6_39 
REMARK   25  A    between atoms: C29_42  and  O8_43 
REMARK   26  A    between atoms: C29_42  and  C35_49 
ROOT
ATOM      1  C14 non d ame     -32.341   9.405  24.540  0.00  0.00     0.089 C 
ATOM      2  H20 non d ame     -31.903   8.518  25.000  0.00  0.00     0.087 H 
ENDROOT
BRANCH   1   3
ATOM      3  N4  non d ame     -33.664   9.591  25.117  0.00  0.00    -0.346 N 
ATOM      4  C10 non d ame     -34.380   8.435  25.767  0.00  0.00     0.241 C 
ATOM      5  O4  non d ame     -33.874   7.362  25.812  0.00  0.00    -0.271 OA
ATOM      6  H19 non d ame     -34.079  10.511  25.067  0.00  0.00     0.163 HD
BRANCH   4   7
ATOM      7  C9  non d ame     -35.747   8.647  26.365  0.00  0.00     0.092 C 
ATOM      8  H11 non d ame     -36.182   7.680  26.617  0.00  0.00     0.088 H 
BRANCH   7   9
ATOM      9  N3  non d ame     -35.622   9.405  27.614  0.00  0.00    -0.346 N 
ATOM     10  C7  non d ame     -36.254   8.920  28.816  0.00  0.00     0.240 C 
ATOM     11  O3  non d ame     -36.868   7.924  28.797  0.00  0.00    -0.271 OA
ATOM     12  H10 non d ame     -35.097  10.267  27.646  0.00  0.00     0.163 HD
BRANCH  10  13
ATOM     13  C6  non d ame     -36.121   9.733  30.142  0.00  0.00     0.086 C 
ATOM     14  H6  non d ame     -35.841   9.110  30.992  0.00  0.00     0.086 H 
BRANCH  13  15
ATOM     15  N2  non d ame     -35.066  10.720  29.985  0.00  0.00    -0.343 N 
ATOM     16  C5  non d ame     -33.790  10.529  30.678  0.00  0.00     0.273 C 
ATOM     17  O2  non d ame     -33.623   9.579  31.362  0.00  0.00    -0.266 OA
ATOM     18  H5  non d ame     -35.217  11.530  29.401  0.00  0.00     0.163 HD
BRANCH  16  19
ATOM     19  C4  non d ame     -32.665  11.564  30.521  0.00  0.00     0.154 A 
ATOM     20  C1  non d ame     -32.767  12.872  29.949  0.00  0.00    -0.017 A 
ATOM     21  C2  non d ame     -31.465  13.412  30.042  0.00  0.00     0.077 A 
ATOM     22  H1  non d ame     -33.651  13.355  29.531  0.00  0.00     0.091 H 
ATOM     23  O1  non d ame     -30.712  12.512  30.604  0.00  0.00    -0.218 OA
ATOM     24  N1  non d ame     -31.389  11.425  30.892  0.00  0.00    -0.123 NA
BRANCH  21  25
ATOM     25  C3  non d ame     -31.026  14.792  29.572  0.00  0.00    -0.029 C 
ATOM     26  H2  non d ame     -31.905  15.396  29.348  0.00  0.00     0.036 H 
ATOM     27  H3  non d ame     -30.445  15.275  30.357  0.00  0.00     0.036 H 
ATOM     28  H4  non d ame     -30.415  14.694  28.676  0.00  0.00     0.036 H 
ENDBRANCH  21  25
ENDBRANCH  16  19
ENDBRANCH  13  15
BRANCH  13  29
ATOM     29  C8  non d ame     -37.428  10.418  30.448  0.00  0.00    -0.049 C 
ATOM     30  H7  non d ame     -37.231  11.384  30.914  0.00  0.00     0.030 H 
ATOM     31  H8  non d ame     -37.985  10.567  29.524  0.00  0.00     0.030 H 
ATOM     32  H9  non d ame     -38.012   9.799  31.129  0.00  0.00     0.030 H 
ENDBRANCH  13  29
ENDBRANCH  10  13
ENDBRANCH   7   9
BRANCH   7  33
ATOM     33  C11 non d ame     -36.632   9.445  25.364  0.00  0.00    -0.033 C 
ATOM     34  H12 non d ame     -36.075   9.536  24.432  0.00  0.00     0.042 H 
BRANCH  33  35
ATOM     35  C12 non d ame     -37.957   8.683  25.045  0.00  0.00    -0.071 C 
ATOM     36  H13 non d ame     -38.293   8.943  24.041  0.00  0.00     0.028 H 
ATOM     37  H14 non d ame     -37.782   7.610  25.103  0.00  0.00     0.028 H 
ATOM     38  H15 non d ame     -38.722   8.967  25.768  0.00  0.00     0.028 H 
ENDBRANCH  33  35
BRANCH  33  39
ATOM     39  C13 non d ame     -36.921  10.885  25.897  0.00  0.00    -0.071 C 
ATOM     40  H16 non d ame     -37.998  11.049  25.936  0.00  0.00     0.028 H 
ATOM     41  H17 non d ame     -36.500  10.993  26.897  0.00  0.00     0.028 H 
ATOM     42  H18 non d ame     -36.465  11.617  25.230  0.00  0.00     0.028 H 
ENDBRANCH  33  39
ENDBRANCH   7  33
ENDBRANCH   4   7
ENDBRANCH   1   3
BRANCH   1  43
ATOM     43  C15 non d ame     -31.498  10.684  24.810  0.00  0.00     0.240 C 
ATOM     44  O5  non d ame     -30.812  10.746  25.779  0.00  0.00    -0.271 OA
ATOM     45  N6  non d ame     -31.539  11.829  23.856  0.00  0.00    -0.355 N 
ATOM     46  H46 non d ame     -32.114  11.786  23.028  0.00  0.00     0.162 HD
BRANCH  45  47
ATOM     47  C20 non d ame     -30.731  13.037  24.127  0.00  0.00     0.013 C 
ATOM     48  H30 non d ame     -30.004  12.789  24.900  0.00  0.00     0.072 H 
BRANCH  47  49
ATOM     49  C21 non d ame     -31.637  14.148  24.607  0.00  0.00    -0.038 C 
ATOM     50  H31 non d ame     -31.062  15.067  24.495  0.00  0.00     0.036 H 
ATOM     51  H32 non d ame     -32.573  14.019  24.063  0.00  0.00     0.036 H 
BRANCH  49  52
ATOM     52  C22 non d ame     -31.984  14.031  26.107  0.00  0.00     0.018 C 
ATOM     53  H33 non d ame     -31.425  13.171  26.474  0.00  0.00     0.048 H 
ATOM     54  H34 non d ame     -31.804  15.020  26.530  0.00  0.00     0.048 H 
BRANCH  52  55
ATOM     55  C23 non d ame     -33.481  13.716  26.381  0.00  0.00     0.259 C 
ATOM     56  O7  non d ame     -33.853  12.591  26.473  0.00  0.00    -0.265 OA
BRANCH  55  57
ATOM     57  O8  non d ame     -34.407  14.788  26.509  0.00  0.00    -0.317 OA
BRANCH  57  58
ATOM     58  C29 non d ame     -34.221  15.581  27.685  0.00  0.00     0.052 C 
ATOM     59  H47 non d ame     -35.206  15.662  28.145  0.00  0.00     0.082 H 
ATOM     60  H48 non d ame     -33.402  15.113  28.230  0.00  0.00     0.082 H 
BRANCH  58  61
ATOM     61  C35 non d ame     -33.769  16.997  27.240  0.00  0.00    -0.034 A 
ATOM     62  C30 non d ame     -34.247  17.540  26.052  0.00  0.00    -0.075 A 
ATOM     63  C31 non d ame     -33.840  18.813  25.652  0.00  0.00    -0.082 A 
ATOM     64  H49 non d ame     -34.939  16.969  25.433  0.00  0.00     0.084 H 
ATOM     65  C32 non d ame     -32.951  19.542  26.446  0.00  0.00    -0.083 A 
ATOM     66  H50 non d ame     -34.218  19.236  24.721  0.00  0.00     0.083 H 
ATOM     67  C33 non d ame     -32.474  18.995  27.629  0.00  0.00    -0.082 A 
ATOM     68  H51 non d ame     -32.628  20.538  26.141  0.00  0.00     0.083 H 
ATOM     69  C34 non d ame     -32.879  17.725  28.033  0.00  0.00    -0.075 A 
ATOM     70  H52 non d ame     -31.778  19.566  28.245  0.00  0.00     0.083 H 
ATOM     71  H53 non d ame     -32.501  17.302  28.965  0.00  0.00     0.084 H 
ENDBRANCH  58  61
ENDBRANCH  57  58
ENDBRANCH  55  57
ENDBRANCH  52  55
ENDBRANCH  49  52
ENDBRANCH  47  49
BRANCH  47  72
ATOM     72  C24 non d ame     -30.017  13.478  22.850  0.00  0.00    -0.039 C 
ATOM     73  H35 non d ame     -28.957  13.301  23.035  0.00  0.00     0.036 H 
ATOM     74  H36 non d ame     -30.524  12.954  22.039  0.00  0.00     0.036 H 
BRANCH  72  75
ATOM     75  C25 non d ame     -30.194  15.047  22.584  0.00  0.00    -0.001 C 
ATOM     76  C26 non d ame     -31.092  15.287  21.227  0.00  0.00    -0.035 C 
ATOM     77  C27 non d ame     -30.431  16.144  20.412  0.00  0.00     0.085 C 
ATOM     78  H38 non d ame     -31.141  14.368  20.644  0.00  0.00     0.036 H 
ATOM     79  H39 non d ame     -32.007  15.825  21.474  0.00  0.00     0.036 H 
ATOM     80  N5  non d ame     -29.021  16.255  20.939  0.00  0.00    -0.049 N 
ATOM     81  H40 non d ame     -30.409  15.660  19.436  0.00  0.00     0.075 H 
ATOM     82  H41 non d ame     -30.932  17.104  20.533  0.00  0.00     0.075 H 
ATOM     83  C28 non d ame     -29.051  15.627  22.426  0.00  0.00     0.193 C 
ATOM     84  H42 non d ame     -28.449  15.665  20.352  0.00  0.00     0.280 HD
ATOM     85  H43 non d ame     -28.820  17.242  21.011  0.00  0.00     0.280 HD
ATOM     86  H44 non d ame     -29.036  16.276  23.302  0.00  0.00     0.129 H 
ATOM     87  H37 non d ame     -30.498  15.587  23.481  0.00  0.00     0.046 H 
BRANCH  83  88
ATOM     88  O6  non d ame     -27.960  14.722  22.601  0.00  0.00    -0.369 OA
ATOM     89  H45 non d ame     -27.192  15.205  22.917  0.00  0.00     0.212 HD
ENDBRANCH  83  88
ENDBRANCH  72  75
ENDBRANCH  47  72
ENDBRANCH  45  47
ENDBRANCH   1  43
BRANCH   1  90
ATOM     90  C16 non d ame     -32.479   9.191  23.041  0.00  0.00    -0.035 C 
ATOM     91  H21 non d ame     -33.471   8.762  22.901  0.00  0.00     0.037 H 
ATOM     92  H22 non d ame     -32.232  10.152  22.588  0.00  0.00     0.037 H 
BRANCH  90  93
ATOM     93  C17 non d ame     -31.465   8.155  22.459  0.00  0.00    -0.059 C 
ATOM     94  H23 non d ame     -31.915   7.717  21.568  0.00  0.00     0.038 H 
BRANCH  93  95
ATOM     95  C18 non d ame     -30.118   8.823  22.034  0.00  0.00    -0.073 C 
ATOM     96  H24 non d ame     -29.814   9.542  22.794  0.00  0.00     0.028 H 
ATOM     97  H25 non d ame     -29.350   8.058  21.931  0.00  0.00     0.028 H 
ATOM     98  H26 non d ame     -30.252   9.336  21.082  0.00  0.00     0.028 H 
ENDBRANCH  93  95
BRANCH  93  99
ATOM     99  C19 non d ame     -31.219   7.015  23.451  0.00  0.00    -0.073 C 
ATOM    100  H27 non d ame     -32.166   6.532  23.693  0.00  0.00     0.028 H 
ATOM    101  H28 non d ame     -30.543   6.285  23.006  0.00  0.00     0.028 H 
ATOM    102  H29 non d ame     -30.772   7.416  24.361  0.00  0.00     0.028 H 
ENDBRANCH  93  99
ENDBRANCH  90  93
ENDBRANCH   1  90
TORSDOF 26
ENDMDL
MODEL 9
REMARK VINA RESULT:      -6.7      3.592      8.113
REMARK  26 active torsions:
REMARK  status: ('A' for Active; 'I' for Inactive)
REMARK    1  A    between atoms: C2_2  and  C3_3 
REMARK    2  A    between atoms: C4_6  and  C5_7 
REMARK       I    between atoms: C5_7  and  N2_9 
REMARK    3  A    between atoms: N2_9  and  C6_10 
REMARK    4  A    between atoms: C6_10  and  C7_11 
REMARK    5  A    between atoms: C6_10  and  C8_13 
REMARK       I    between atoms: C7_11  and  N3_14 
REMARK    6  A    between atoms: N3_14  and  C9_15 
REMARK    7  A    between atoms: C9_15  and  C10_16 
REMARK    8  A    between atoms: C9_15  and  C11_18 
REMARK       I    between atoms: C10_16  and  N4_21 
REMARK    9  A    between atoms: C11_18  and  C12_19 
REMARK   10  A    between atoms: C11_18  and  C13_20 
REMARK   11  A    between atoms: N4_21  and  C14_22 
REMARK   12  A    between atoms: C14_22  and  C15_23 
REMARK   13  A    between atoms: C14_22  and  C16_25 
REMARK       I    between atoms: C15_23  and  N6_40 
REMARK   14  A    between atoms: C16_25  and  C17_26 
REMARK   15  A    between atoms: C17_26  and  C18_27 
REMARK   16  A    between atoms: C17_26  and  C19_28 
REMARK   17  A    between atoms: C20_29  and  C21_30 
REMARK   18  A    between atoms: C20_29  and  C24_33 
REMARK   19  A    between atoms: C20_29  and  N6_40 
REMARK   20  A    between atoms: C21_30  and  C22_31 
REMARK   21  A    between atoms: C22_31  and  C23_32 
REMARK   22  A    between atoms: C23_32  and  O8_43 
REMARK   23  A    between atoms: C24_33  and  C25_34 
REMARK   24  A    between atoms: C28_38  and  O6_39 
REMARK   25  A    between atoms: C29_42  and  O8_43 
REMARK   26  A    between atoms: C29_42  and  C35_49 
ROOT
ATOM      1  C14 non d ame     -32.642   9.882  25.438  0.00  0.00     0.089 C 
ATOM      2  H20 non d ame     -32.223   8.895  25.636  0.00  0.00     0.087 H 
ENDROOT
BRANCH   1   3
ATOM      3  N4  non d ame     -33.403  10.279  26.614  0.00  0.00    -0.346 N 
ATOM      4  C10 non d ame     -33.289   9.493  27.896  0.00  0.00     0.241 C 
ATOM      5  O4  non d ame     -32.581   8.542  27.956  0.00  0.00    -0.271 OA
ATOM      6  H19 non d ame     -34.001  11.089  26.541  0.00  0.00     0.163 HD
BRANCH   4   7
ATOM      7  C9  non d ame     -34.080   9.921  29.104  0.00  0.00     0.092 C 
ATOM      8  H11 non d ame     -34.792  10.693  28.811  0.00  0.00     0.088 H 
BRANCH   7   9
ATOM      9  N3  non d ame     -34.856   8.784  29.609  0.00  0.00    -0.346 N 
ATOM     10  C7  non d ame     -36.265   8.936  29.876  0.00  0.00     0.240 C 
ATOM     11  O3  non d ame     -36.790   9.965  29.691  0.00  0.00    -0.271 OA
ATOM     12  H10 non d ame     -34.416   7.890  29.775  0.00  0.00     0.163 HD
BRANCH  10  13
ATOM     13  C6  non d ame     -37.085   7.723  30.416  0.00  0.00     0.086 C 
ATOM     14  H6  non d ame     -37.458   7.078  29.620  0.00  0.00     0.086 H 
BRANCH  13  15
ATOM     15  N2  non d ame     -36.220   6.901  31.246  0.00  0.00    -0.343 N 
ATOM     16  C5  non d ame     -35.491   5.784  30.642  0.00  0.00     0.273 C 
ATOM     17  O2  non d ame     -35.609   5.552  29.489  0.00  0.00    -0.266 OA
ATOM     18  H5  non d ame     -36.127   7.104  32.231  0.00  0.00     0.163 HD
BRANCH  16  19
ATOM     19  C4  non d ame     -34.572   4.907  31.507  0.00  0.00     0.154 A 
ATOM     20  C1  non d ame     -33.404   4.197  31.083  0.00  0.00    -0.017 A 
ATOM     21  C2  non d ame     -32.927   3.554  32.247  0.00  0.00     0.077 A 
ATOM     22  H1  non d ame     -32.971   4.154  30.083  0.00  0.00     0.091 H 
ATOM     23  O1  non d ame     -33.732   3.867  33.220  0.00  0.00    -0.218 OA
ATOM     24  N1  non d ame     -34.699   4.655  32.813  0.00  0.00    -0.123 NA
BRANCH  21  25
ATOM     25  C3  non d ame     -31.697   2.661  32.343  0.00  0.00    -0.029 C 
ATOM     26  H2  non d ame     -31.791   2.004  33.208  0.00  0.00     0.036 H 
ATOM     27  H3  non d ame     -31.613   2.060  31.438  0.00  0.00     0.036 H 
ATOM     28  H4  non d ame     -30.806   3.280  32.452  0.00  0.00     0.036 H 
ENDBRANCH  21  25
ENDBRANCH  16  19
ENDBRANCH  13  15
BRANCH  13  29
ATOM     29  C8  non d ame     -38.254   8.224  31.226  0.00  0.00    -0.049 C 
ATOM     30  H7  non d ame     -39.169   7.745  30.877  0.00  0.00     0.030 H 
ATOM     31  H8  non d ame     -38.096   7.984  32.277  0.00  0.00     0.030 H 
ATOM     32  H9  non d ame     -38.342   9.304  31.108  0.00  0.00     0.030 H 
ENDBRANCH  13  29
ENDBRANCH  10  13
ENDBRANCH   7   9
BRANCH   7  33
ATOM     33  C11 non d ame     -33.105  10.414  30.213  0.00  0.00    -0.033 C 
ATOM     34  H12 non d ame     -32.533   9.551  30.555  0.00  0.00     0.042 H 
BRANCH  33  35
ATOM     35  C12 non d ame     -32.090  11.459  29.655  0.00  0.00    -0.071 C 
ATOM     36  H13 non d ame     -31.549  11.026  28.813  0.00  0.00     0.028 H 
ATOM     37  H14 non d ame     -32.627  12.347  29.324  0.00  0.00     0.028 H 
ATOM     38  H15 non d ame     -31.382  11.732  30.438  0.00  0.00     0.028 H 
ENDBRANCH  33  35
BRANCH  33  39
ATOM     39  C13 non d ame     -33.892  10.987  31.436  0.00  0.00    -0.071 C 
ATOM     40  H16 non d ame     -33.782  12.071  31.463  0.00  0.00     0.028 H 
ATOM     41  H17 non d ame     -34.948  10.730  31.340  0.00  0.00     0.028 H 
ATOM     42  H18 non d ame     -33.497  10.557  32.356  0.00  0.00     0.028 H 
ENDBRANCH  33  39
ENDBRANCH   7  33
ENDBRANCH   4   7
ENDBRANCH   1   3
BRANCH   1  43
ATOM     43  C15 non d ame     -31.537  10.947  25.181  0.00  0.00     0.240 C 
ATOM     44  O5  non d ame     -30.391  10.641  25.260  0.00  0.00    -0.271 OA
ATOM     45  N6  non d ame     -31.908  12.346  24.826  0.00  0.00    -0.355 N 
ATOM     46  H46 non d ame     -32.878  12.617  24.751  0.00  0.00     0.162 HD
BRANCH  45  47
ATOM     47  C20 non d ame     -30.846  13.347  24.583  0.00  0.00     0.013 C 
ATOM     48  H30 non d ame     -29.908  12.938  24.957  0.00  0.00     0.072 H 
BRANCH  47  49
ATOM     49  C21 non d ame     -31.184  14.623  25.319  0.00  0.00    -0.038 C 
ATOM     50  H31 non d ame     -30.308  15.263  25.217  0.00  0.00     0.036 H 
ATOM     51  H32 non d ame     -32.146  14.947  24.921  0.00  0.00     0.036 H 
BRANCH  49  52
ATOM     52  C22 non d ame     -31.390  14.405  26.834  0.00  0.00     0.018 C 
ATOM     53  H33 non d ame     -30.948  13.434  27.055  0.00  0.00     0.048 H 
ATOM     54  H34 non d ame     -31.004  15.303  27.317  0.00  0.00     0.048 H 
BRANCH  52  55
ATOM     55  C23 non d ame     -32.883  14.300  27.254  0.00  0.00     0.259 C 
ATOM     56  O7  non d ame     -33.493  13.298  27.067  0.00  0.00    -0.265 OA
BRANCH  55  57
ATOM     57  O8  non d ame     -33.517  15.422  27.856  0.00  0.00    -0.317 OA
BRANCH  57  58
ATOM     58  C29 non d ame     -32.608  16.389  28.389  0.00  0.00     0.052 C 
ATOM     59  H47 non d ame     -32.922  16.552  29.420  0.00  0.00     0.082 H 
ATOM     60  H48 non d ame     -31.611  16.004  28.178  0.00  0.00     0.082 H 
BRANCH  58  61
ATOM     61  C35 non d ame     -32.800  17.712  27.601  0.00  0.00    -0.034 A 
ATOM     62  C30 non d ame     -33.136  17.677  26.251  0.00  0.00    -0.075 A 
ATOM     63  C31 non d ame     -33.308  18.865  25.543  0.00  0.00    -0.082 A 
ATOM     64  H49 non d ame     -33.264  16.718  25.748  0.00  0.00     0.084 H 
ATOM     65  C32 non d ame     -33.140  20.093  26.189  0.00  0.00    -0.083 A 
ATOM     66  H50 non d ame     -33.573  18.834  24.486  0.00  0.00     0.083 H 
ATOM     67  C33 non d ame     -32.802  20.123  27.535  0.00  0.00    -0.082 A 
ATOM     68  H51 non d ame     -33.273  21.027  25.643  0.00  0.00     0.083 H 
ATOM     69  C34 non d ame     -32.631  18.938  28.247  0.00  0.00    -0.075 A 
ATOM     70  H52 non d ame     -32.669  21.083  28.036  0.00  0.00     0.083 H 
ATOM     71  H53 non d ame     -32.366  18.970  29.304  0.00  0.00     0.084 H 
ENDBRANCH  58  61
ENDBRANCH  57  58
ENDBRANCH  55  57
ENDBRANCH  52  55
ENDBRANCH  49  52
ENDBRANCH  47  49
BRANCH  47  72
ATOM     72  C24 non d ame     -30.740  13.634  23.087  0.00  0.00    -0.039 C 
ATOM     73  H35 non d ame     -30.012  12.918  22.705  0.00  0.00     0.036 H 
ATOM     74  H36 non d ame     -31.765  13.619  22.715  0.00  0.00     0.036 H 
BRANCH  72  75
ATOM     75  C25 non d ame     -30.156  15.098  22.804  0.00  0.00    -0.001 C 
ATOM     76  C26 non d ame     -31.284  16.012  22.031  0.00  0.00    -0.035 C 
ATOM     77  C27 non d ame     -30.719  16.561  20.928  0.00  0.00     0.085 C 
ATOM     78  H38 non d ame     -32.067  15.373  21.624  0.00  0.00     0.036 H 
ATOM     79  H39 non d ame     -31.546  16.877  22.640  0.00  0.00     0.036 H 
ATOM     80  N5  non d ame     -29.409  15.846  20.701  0.00  0.00    -0.049 N 
ATOM     81  H40 non d ame     -31.398  16.329  20.108  0.00  0.00     0.075 H 
ATOM     82  H41 non d ame     -30.516  17.598  21.191  0.00  0.00     0.075 H 
ATOM     83  C28 non d ame     -29.097  15.045  22.067  0.00  0.00     0.193 C 
ATOM     84  H42 non d ame     -29.573  15.174  19.965  0.00  0.00     0.280 HD
ATOM     85  H43 non d ame     -28.709  16.564  20.582  0.00  0.00     0.280 HD
ATOM     86  H44 non d ame     -28.349  15.416  22.768  0.00  0.00     0.129 H 
ATOM     87  H37 non d ame     -29.686  15.533  23.687  0.00  0.00     0.046 H 
BRANCH  83  88
ATOM     88  O6  non d ame     -28.712  13.701  21.773  0.00  0.00    -0.369 OA
ATOM     89  H45 non d ame     -27.823  13.694  21.409  0.00  0.00     0.212 HD
ENDBRANCH  83  88
ENDBRANCH  72  75
ENDBRANCH  47  72
ENDBRANCH  45  47
ENDBRANCH   1  43
BRANCH   1  90
ATOM     90  C16 non d ame     -33.576   9.815  24.241  0.00  0.00    -0.035 C 
ATOM     91  H21 non d ame     -34.475   9.318  24.605  0.00  0.00     0.037 H 
ATOM     92  H22 non d ame     -33.633  10.836  23.862  0.00  0.00     0.037 H 
BRANCH  90  93
ATOM     93  C17 non d ame     -33.031   8.939  23.069  0.00  0.00    -0.059 C 
ATOM     94  H23 non d ame     -32.395   9.572  22.451  0.00  0.00     0.038 H 
BRANCH  93  95
ATOM     95  C18 non d ame     -32.163   7.745  23.580  0.00  0.00    -0.073 C 
ATOM     96  H24 non d ame     -31.462   8.102  24.334  0.00  0.00     0.028 H 
ATOM     97  H25 non d ame     -32.810   6.986  24.019  0.00  0.00     0.028 H 
ATOM     98  H26 non d ame     -31.611   7.313  22.745  0.00  0.00     0.028 H 
ENDBRANCH  93  95
BRANCH  93  99
ATOM     99  C19 non d ame     -34.175   8.440  22.182  0.00  0.00    -0.073 C 
ATOM    100  H27 non d ame     -34.402   9.190  21.425  0.00  0.00     0.028 H 
ATOM    101  H28 non d ame     -33.879   7.510  21.695  0.00  0.00     0.028 H 
ATOM    102  H29 non d ame     -35.059   8.262  22.795  0.00  0.00     0.028 H 
ENDBRANCH  93  99
ENDBRANCH  90  93
ENDBRANCH   1  90
TORSDOF 26
ENDMDL
MODEL 10
REMARK VINA RESULT:      -6.7      3.412      7.073
REMARK  26 active torsions:
REMARK  status: ('A' for Active; 'I' for Inactive)
REMARK    1  A    between atoms: C2_2  and  C3_3 
REMARK    2  A    between atoms: C4_6  and  C5_7 
REMARK       I    between atoms: C5_7  and  N2_9 
REMARK    3  A    between atoms: N2_9  and  C6_10 
REMARK    4  A    between atoms: C6_10  and  C7_11 
REMARK    5  A    between atoms: C6_10  and  C8_13 
REMARK       I    between atoms: C7_11  and  N3_14 
REMARK    6  A    between atoms: N3_14  and  C9_15 
REMARK    7  A    between atoms: C9_15  and  C10_16 
REMARK    8  A    between atoms: C9_15  and  C11_18 
REMARK       I    between atoms: C10_16  and  N4_21 
REMARK    9  A    between atoms: C11_18  and  C12_19 
REMARK   10  A    between atoms: C11_18  and  C13_20 
REMARK   11  A    between atoms: N4_21  and  C14_22 
REMARK   12  A    between atoms: C14_22  and  C15_23 
REMARK   13  A    between atoms: C14_22  and  C16_25 
REMARK       I    between atoms: C15_23  and  N6_40 
REMARK   14  A    between atoms: C16_25  and  C17_26 
REMARK   15  A    between atoms: C17_26  and  C18_27 
REMARK   16  A    between atoms: C17_26  and  C19_28 
REMARK   17  A    between atoms: C20_29  and  C21_30 
REMARK   18  A    between atoms: C20_29  and  C24_33 
REMARK   19  A    between atoms: C20_29  and  N6_40 
REMARK   20  A    between atoms: C21_30  and  C22_31 
REMARK   21  A    between atoms: C22_31  and  C23_32 
REMARK   22  A    between atoms: C23_32  and  O8_43 
REMARK   23  A    between atoms: C24_33  and  C25_34 
REMARK   24  A    between atoms: C28_38  and  O6_39 
REMARK   25  A    between atoms: C29_42  and  O8_43 
REMARK   26  A    between atoms: C29_42  and  C35_49 
ROOT
ATOM      1  C14 non d ame     -33.145  10.403  25.787  0.00  0.00     0.089 C 
ATOM      2  H20 non d ame     -33.890  10.444  24.992  0.00  0.00     0.087 H 
ENDROOT
BRANCH   1   3
ATOM      3  N4  non d ame     -32.537   9.081  25.750  0.00  0.00    -0.346 N 
ATOM      4  C10 non d ame     -33.141   7.989  24.904  0.00  0.00     0.241 C 
ATOM      5  O4  non d ame     -34.119   8.197  24.264  0.00  0.00    -0.271 OA
ATOM      6  H19 non d ame     -31.707   8.924  26.304  0.00  0.00     0.163 HD
BRANCH   4   7
ATOM      7  C9  non d ame     -32.496   6.628  24.873  0.00  0.00     0.092 C 
ATOM      8  H11 non d ame     -31.447   6.722  25.156  0.00  0.00     0.088 H 
BRANCH   7   9
ATOM      9  N3  non d ame     -33.136   5.760  25.866  0.00  0.00    -0.346 N 
ATOM     10  C7  non d ame     -32.720   5.816  27.246  0.00  0.00     0.240 C 
ATOM     11  O3  non d ame     -31.871   6.551  27.574  0.00  0.00    -0.271 OA
ATOM     12  H10 non d ame     -33.869   5.120  25.597  0.00  0.00     0.163 HD
BRANCH  10  13
ATOM     13  C6  non d ame     -33.404   4.887  28.297  0.00  0.00     0.086 C 
ATOM     14  H6  non d ame     -32.790   4.731  29.184  0.00  0.00     0.086 H 
BRANCH  13  15
ATOM     15  N2  non d ame     -34.635   5.513  28.749  0.00  0.00    -0.343 N 
ATOM     16  C5  non d ame     -34.969   5.503  30.175  0.00  0.00     0.273 C 
ATOM     17  O2  non d ame     -34.241   4.987  30.950  0.00  0.00    -0.266 OA
ATOM     18  H5  non d ame     -35.253   5.949  28.079  0.00  0.00     0.163 HD
BRANCH  16  19
ATOM     19  C4  non d ame     -36.267   6.162  30.667  0.00  0.00     0.154 A 
ATOM     20  C1  non d ame     -36.565   7.561  30.706  0.00  0.00    -0.017 A 
ATOM     21  C2  non d ame     -37.873   7.639  31.235  0.00  0.00     0.077 A 
ATOM     22  H1  non d ame     -35.931   8.392  30.397  0.00  0.00     0.091 H 
ATOM     23  O1  non d ame     -38.270   6.423  31.468  0.00  0.00    -0.218 OA
ATOM     24  N1  non d ame     -37.350   5.543  31.145  0.00  0.00    -0.123 NA
BRANCH  21  25
ATOM     25  C3  non d ame     -38.669   8.913  31.486  0.00  0.00    -0.029 C 
ATOM     26  H2  non d ame     -38.042   9.780  31.283  0.00  0.00     0.036 H 
ATOM     27  H3  non d ame     -39.538   8.932  30.828  0.00  0.00     0.036 H 
ATOM     28  H4  non d ame     -38.999   8.937  32.524  0.00  0.00     0.036 H 
ENDBRANCH  21  25
ENDBRANCH  16  19
ENDBRANCH  13  15
BRANCH  13  29
ATOM     29  C8  non d ame     -33.704   3.549  27.671  0.00  0.00    -0.049 C 
ATOM     30  H7  non d ame     -32.822   3.191  27.139  0.00  0.00     0.030 H 
ATOM     31  H8  non d ame     -33.972   2.836  28.450  0.00  0.00     0.030 H 
ATOM     32  H9  non d ame     -34.533   3.653  26.971  0.00  0.00     0.030 H 
ENDBRANCH  13  29
ENDBRANCH  10  13
ENDBRANCH   7   9
BRANCH   7  33
ATOM     33  C11 non d ame     -32.667   6.005  23.456  0.00  0.00    -0.033 C 
ATOM     34  H12 non d ame     -33.483   6.533  22.962  0.00  0.00     0.042 H 
BRANCH  33  35
ATOM     35  C12 non d ame     -31.385   6.205  22.589  0.00  0.00    -0.071 C 
ATOM     36  H13 non d ame     -30.575   5.596  22.991  0.00  0.00     0.028 H 
ATOM     37  H14 non d ame     -31.591   5.904  21.562  0.00  0.00     0.028 H 
ATOM     38  H15 non d ame     -31.093   7.255  22.609  0.00  0.00     0.028 H 
ENDBRANCH  33  35
BRANCH  33  39
ATOM     39  C13 non d ame     -33.056   4.495  23.553  0.00  0.00    -0.071 C 
ATOM     40  H16 non d ame     -32.978   4.165  24.589  0.00  0.00     0.028 H 
ATOM     41  H17 non d ame     -34.080   4.361  23.204  0.00  0.00     0.028 H 
ATOM     42  H18 non d ame     -32.381   3.906  22.931  0.00  0.00     0.028 H 
ENDBRANCH  33  39
ENDBRANCH   7  33
ENDBRANCH   4   7
ENDBRANCH   1   3
BRANCH   1  43
ATOM     43  C15 non d ame     -32.027  11.468  25.599  0.00  0.00     0.240 C 
ATOM     44  O5  non d ame     -30.885  11.147  25.680  0.00  0.00    -0.271 OA
ATOM     45  N6  non d ame     -32.379  12.887  25.309  0.00  0.00    -0.355 N 
ATOM     46  H46 non d ame     -33.345  13.171  25.233  0.00  0.00     0.162 HD
BRANCH  45  47
ATOM     47  C20 non d ame     -31.304  13.887  25.131  0.00  0.00     0.013 C 
ATOM     48  H30 non d ame     -30.379  13.351  24.919  0.00  0.00     0.072 H 
BRANCH  47  49
ATOM     49  C21 non d ame     -31.155  14.692  26.402  0.00  0.00    -0.038 C 
ATOM     50  H31 non d ame     -30.160  14.461  26.782  0.00  0.00     0.036 H 
ATOM     51  H32 non d ame     -31.412  15.717  26.133  0.00  0.00     0.036 H 
BRANCH  49  52
ATOM     52  C22 non d ame     -32.152  14.266  27.501  0.00  0.00     0.018 C 
ATOM     53  H33 non d ame     -33.137  14.548  27.132  0.00  0.00     0.048 H 
ATOM     54  H34 non d ame     -31.929  13.220  27.714  0.00  0.00     0.048 H 
BRANCH  52  55
ATOM     55  C23 non d ame     -31.966  15.025  28.844  0.00  0.00     0.259 C 
ATOM     56  O7  non d ame     -31.117  14.698  29.609  0.00  0.00    -0.265 OA
BRANCH  55  57
ATOM     57  O8  non d ame     -32.830  16.111  29.157  0.00  0.00    -0.317 OA
BRANCH  57  58
ATOM     58  C29 non d ame     -33.865  16.327  28.193  0.00  0.00     0.052 C 
ATOM     59  H47 non d ame     -33.751  15.533  27.455  0.00  0.00     0.082 H 
ATOM     60  H48 non d ame     -34.789  16.411  28.765  0.00  0.00     0.082 H 
BRANCH  58  61
ATOM     61  C35 non d ame     -33.594  17.688  27.497  0.00  0.00    -0.034 A 
ATOM     62  C30 non d ame     -34.237  18.000  26.304  0.00  0.00    -0.075 A 
ATOM     63  C31 non d ame     -33.994  19.222  25.678  0.00  0.00    -0.082 A 
ATOM     64  H49 non d ame     -34.932  17.288  25.859  0.00  0.00     0.084 H 
ATOM     65  C32 non d ame     -33.100  20.132  26.249  0.00  0.00    -0.083 A 
ATOM     66  H50 non d ame     -34.501  19.464  24.744  0.00  0.00     0.083 H 
ATOM     67  C33 non d ame     -32.458  19.815  27.438  0.00  0.00    -0.082 A 
ATOM     68  H51 non d ame     -32.904  21.090  25.767  0.00  0.00     0.083 H 
ATOM     69  C34 non d ame     -32.700  18.596  28.068  0.00  0.00    -0.075 A 
ATOM     70  H52 non d ame     -31.760  20.526  27.880  0.00  0.00     0.083 H 
ATOM     71  H53 non d ame     -32.193  18.354  29.002  0.00  0.00     0.084 H 
ENDBRANCH  58  61
ENDBRANCH  57  58
ENDBRANCH  55  57
ENDBRANCH  52  55
ENDBRANCH  49  52
ENDBRANCH  47  49
BRANCH  47  72
ATOM     72  C24 non d ame     -31.653  14.821  23.974  0.00  0.00    -0.039 C 
ATOM     73  H35 non d ame     -32.701  14.622  23.747  0.00  0.00     0.036 H 
ATOM     74  H36 non d ame     -31.346  15.815  24.300  0.00  0.00     0.036 H 
BRANCH  72  75
ATOM     75  C25 non d ame     -30.810  14.475  22.657  0.00  0.00    -0.001 C 
ATOM     76  C26 non d ame     -29.304  13.964  23.075  0.00  0.00    -0.035 C 
ATOM     77  C27 non d ame     -28.391  14.679  22.374  0.00  0.00     0.085 C 
ATOM     78  H38 non d ame     -29.094  14.229  24.110  0.00  0.00     0.036 H 
ATOM     79  H39 non d ame     -29.146  12.942  22.730  0.00  0.00     0.036 H 
ATOM     80  N5  non d ame     -29.122  15.849  21.762  0.00  0.00    -0.049 N 
ATOM     81  H40 non d ame     -27.681  15.049  23.113  0.00  0.00     0.075 H 
ATOM     82  H41 non d ame     -28.052  14.016  21.577  0.00  0.00     0.075 H 
ATOM     83  C28 non d ame     -30.694  15.507  21.891  0.00  0.00     0.193 C 
ATOM     84  H42 non d ame     -28.918  16.649  22.344  0.00  0.00     0.280 HD
ATOM     85  H43 non d ame     -28.874  15.861  20.783  0.00  0.00     0.280 HD
ATOM     86  H44 non d ame     -31.261  15.174  21.021  0.00  0.00     0.129 H 
ATOM     87  H37 non d ame     -31.370  13.850  21.961  0.00  0.00     0.046 H 
BRANCH  83  88
ATOM     88  O6  non d ame     -31.405  16.638  22.399  0.00  0.00    -0.369 OA
ATOM     89  H45 non d ame     -31.231  17.402  21.843  0.00  0.00     0.212 HD
ENDBRANCH  83  88
ENDBRANCH  72  75
ENDBRANCH  47  72
ENDBRANCH  45  47
ENDBRANCH   1  43
BRANCH   1  90
ATOM     90  C16 non d ame     -33.818  10.602  27.136  0.00  0.00    -0.035 C 
ATOM     91  H21 non d ame     -33.854  11.681  27.284  0.00  0.00     0.037 H 
ATOM     92  H22 non d ame     -34.743  10.028  27.084  0.00  0.00     0.037 H 
BRANCH  90  93
ATOM     93  C17 non d ame     -33.004  10.019  28.334  0.00  0.00    -0.059 C 
ATOM     94  H23 non d ame     -32.139   9.498  27.924  0.00  0.00     0.038 H 
BRANCH  93  95
ATOM     95  C18 non d ame     -32.477  11.139  29.288  0.00  0.00    -0.073 C 
ATOM     96  H24 non d ame     -32.845  12.107  28.950  0.00  0.00     0.028 H 
ATOM     97  H25 non d ame     -32.832  10.950  30.301  0.00  0.00     0.028 H 
ATOM     98  H26 non d ame     -31.388  11.141  29.279  0.00  0.00     0.028 H 
ENDBRANCH  93  95
BRANCH  93  99
ATOM     99  C19 non d ame     -33.831   8.989  29.108  0.00  0.00    -0.073 C 
ATOM    100  H27 non d ame     -34.890   9.238  29.027  0.00  0.00     0.028 H 
ATOM    101  H28 non d ame     -33.659   7.997  28.691  0.00  0.00     0.028 H 
ATOM    102  H29 non d ame     -33.534   8.998  30.156  0.00  0.00     0.028 H 
ENDBRANCH  93  99
ENDBRANCH  90  93
ENDBRANCH   1  90
TORSDOF 26
ENDMDL
MODEL 11
REMARK VINA RESULT:      -6.7      2.027      5.540
REMARK  26 active torsions:
REMARK  status: ('A' for Active; 'I' for Inactive)
REMARK    1  A    between atoms: C2_2  and  C3_3 
REMARK    2  A    between atoms: C4_6  and  C5_7 
REMARK       I    between atoms: C5_7  and  N2_9 
REMARK    3  A    between atoms: N2_9  and  C6_10 
REMARK    4  A    between atoms: C6_10  and  C7_11 
REMARK    5  A    between atoms: C6_10  and  C8_13 
REMARK       I    between atoms: C7_11  and  N3_14 
REMARK    6  A    between atoms: N3_14  and  C9_15 
REMARK    7  A    between atoms: C9_15  and  C10_16 
REMARK    8  A    between atoms: C9_15  and  C11_18 
REMARK       I    between atoms: C10_16  and  N4_21 
REMARK    9  A    between atoms: C11_18  and  C12_19 
REMARK   10  A    between atoms: C11_18  and  C13_20 
REMARK   11  A    between atoms: N4_21  and  C14_22 
REMARK   12  A    between atoms: C14_22  and  C15_23 
REMARK   13  A    between atoms: C14_22  and  C16_25 
REMARK       I    between atoms: C15_23  and  N6_40 
REMARK   14  A    between atoms: C16_25  and  C17_26 
REMARK   15  A    between atoms: C17_26  and  C18_27 
REMARK   16  A    between atoms: C17_26  and  C19_28 
REMARK   17  A    between atoms: C20_29  and  C21_30 
REMARK   18  A    between atoms: C20_29  and  C24_33 
REMARK   19  A    between atoms: C20_29  and  N6_40 
REMARK   20  A    between atoms: C21_30  and  C22_31 
REMARK   21  A    between atoms: C22_31  and  C23_32 
REMARK   22  A    between atoms: C23_32  and  O8_43 
REMARK   23  A    between atoms: C24_33  and  C25_34 
REMARK   24  A    between atoms: C28_38  and  O6_39 
REMARK   25  A    between atoms: C29_42  and  O8_43 
REMARK   26  A    between atoms: C29_42  and  C35_49 
ROOT
ATOM      1  C14 non d ame     -31.223  14.467  24.139  0.00  0.00     0.089 C 
ATOM      2  H20 non d ame     -30.237  14.490  24.604  0.00  0.00     0.087 H 
ENDROOT
BRANCH   1   3
ATOM      3  N4  non d ame     -31.559  13.072  23.895  0.00  0.00    -0.346 N 
ATOM      4  C10 non d ame     -31.360  12.040  24.976  0.00  0.00     0.241 C 
ATOM      5  O4  non d ame     -30.924  12.356  26.034  0.00  0.00    -0.271 OA
ATOM      6  H19 non d ame     -31.927  12.824  22.987  0.00  0.00     0.163 HD
BRANCH   4   7
ATOM      7  C9  non d ame     -31.719  10.602  24.708  0.00  0.00     0.092 C 
ATOM      8  H11 non d ame     -31.213   9.965  25.433  0.00  0.00     0.088 H 
BRANCH   7   9
ATOM      9  N3  non d ame     -33.160  10.414  24.898  0.00  0.00    -0.346 N 
ATOM     10  C7  non d ame     -33.641   9.469  25.876  0.00  0.00     0.240 C 
ATOM     11  O3  non d ame     -32.882   8.851  26.517  0.00  0.00    -0.271 OA
ATOM     12  H10 non d ame     -33.827  10.940  24.351  0.00  0.00     0.163 HD
BRANCH  10  13
ATOM     13  C6  non d ame     -35.176   9.271  26.072  0.00  0.00     0.086 C 
ATOM     14  H6  non d ame     -35.432   8.928  27.074  0.00  0.00     0.086 H 
BRANCH  13  15
ATOM     15  N2  non d ame     -35.843  10.549  25.887  0.00  0.00    -0.343 N 
ATOM     16  C5  non d ame     -36.001  11.452  27.030  0.00  0.00     0.273 C 
ATOM     17  O2  non d ame     -35.590  11.140  28.093  0.00  0.00    -0.266 OA
ATOM     18  H5  non d ame     -36.194  10.807  24.976  0.00  0.00     0.163 HD
BRANCH  16  19
ATOM     19  C4  non d ame     -36.703  12.807  26.849  0.00  0.00     0.154 A 
ATOM     20  C1  non d ame     -36.099  14.052  26.485  0.00  0.00    -0.017 A 
ATOM     21  C2  non d ame     -37.165  14.979  26.454  0.00  0.00     0.077 A 
ATOM     22  H1  non d ame     -35.048  14.253  26.276  0.00  0.00     0.091 H 
ATOM     23  O1  non d ame     -38.250  14.331  26.763  0.00  0.00    -0.218 OA
ATOM     24  N1  non d ame     -38.006  13.062  26.999  0.00  0.00    -0.123 NA
BRANCH  21  25
ATOM     25  C3  non d ame     -37.063  16.461  26.118  0.00  0.00    -0.029 C 
ATOM     26  H2  non d ame     -37.393  17.050  26.972  0.00  0.00     0.036 H 
ATOM     27  H3  non d ame     -36.028  16.709  25.884  0.00  0.00     0.036 H 
ATOM     28  H4  non d ame     -37.693  16.683  25.257  0.00  0.00     0.036 H 
ENDBRANCH  21  25
ENDBRANCH  16  19
ENDBRANCH  13  15
BRANCH  13  29
ATOM     29  C8  non d ame     -35.689   8.271  25.067  0.00  0.00    -0.049 C 
ATOM     30  H7  non d ame     -35.765   7.291  25.537  0.00  0.00     0.030 H 
ATOM     31  H8  non d ame     -36.672   8.582  24.715  0.00  0.00     0.030 H 
ATOM     32  H9  non d ame     -35.000   8.217  24.224  0.00  0.00     0.030 H 
ENDBRANCH  13  29
ENDBRANCH  10  13
ENDBRANCH   7   9
BRANCH   7  33
ATOM     33  C11 non d ame     -31.340  10.238  23.242  0.00  0.00    -0.033 C 
ATOM     34  H12 non d ame     -31.534  11.115  22.625  0.00  0.00     0.042 H 
BRANCH  33  35
ATOM     35  C12 non d ame     -29.822   9.900  23.115  0.00  0.00    -0.071 C 
ATOM     36  H13 non d ame     -29.695   8.821  23.034  0.00  0.00     0.028 H 
ATOM     37  H14 non d ame     -29.416  10.382  22.225  0.00  0.00     0.028 H 
ATOM     38  H15 non d ame     -29.294  10.263  23.997  0.00  0.00     0.028 H 
ENDBRANCH  33  35
BRANCH  33  39
ATOM     39  C13 non d ame     -32.227   9.067  22.710  0.00  0.00    -0.071 C 
ATOM     40  H16 non d ame     -32.465   9.239  21.660  0.00  0.00     0.028 H 
ATOM     41  H17 non d ame     -31.685   8.126  22.811  0.00  0.00     0.028 H 
ATOM     42  H18 non d ame     -33.149   9.017  23.289  0.00  0.00     0.028 H 
ENDBRANCH  33  39
ENDBRANCH   7  33
ENDBRANCH   4   7
ENDBRANCH   1   3
BRANCH   1  43
ATOM     43  C15 non d ame     -32.318  15.088  25.052  0.00  0.00     0.240 C 
ATOM     44  O5  non d ame     -33.401  15.305  24.613  0.00  0.00    -0.271 OA
ATOM     45  N6  non d ame     -32.019  15.405  26.478  0.00  0.00    -0.355 N 
ATOM     46  H46 non d ame     -31.104  15.221  26.863  0.00  0.00     0.162 HD
BRANCH  45  47
ATOM     47  C20 non d ame     -33.071  15.995  27.334  0.00  0.00     0.013 C 
ATOM     48  H30 non d ame     -34.037  15.771  26.880  0.00  0.00     0.072 H 
BRANCH  47  49
ATOM     49  C21 non d ame     -32.871  17.491  27.413  0.00  0.00    -0.038 C 
ATOM     50  H31 non d ame     -33.046  17.757  28.456  0.00  0.00     0.036 H 
ATOM     51  H32 non d ame     -31.899  17.682  26.957  0.00  0.00     0.036 H 
BRANCH  49  52
ATOM     52  C22 non d ame     -33.906  18.279  26.581  0.00  0.00     0.018 C 
ATOM     53  H33 non d ame     -33.326  18.901  25.901  0.00  0.00     0.048 H 
ATOM     54  H34 non d ame     -34.596  17.533  26.185  0.00  0.00     0.048 H 
BRANCH  52  55
ATOM     55  C23 non d ame     -34.772  19.258  27.423  0.00  0.00     0.259 C 
ATOM     56  O7  non d ame     -35.172  18.939  28.495  0.00  0.00    -0.265 OA
BRANCH  55  57
ATOM     57  O8  non d ame     -35.093  20.537  26.891  0.00  0.00    -0.317 OA
BRANCH  57  58
ATOM     58  C29 non d ame     -36.439  20.950  27.141  0.00  0.00     0.052 C 
ATOM     59  H47 non d ame     -36.709  20.513  28.102  0.00  0.00     0.082 H 
ATOM     60  H48 non d ame     -36.444  22.033  27.014  0.00  0.00     0.082 H 
BRANCH  58  61
ATOM     61  C35 non d ame     -37.343  20.325  26.045  0.00  0.00    -0.034 A 
ATOM     62  C30 non d ame     -38.605  19.841  26.376  0.00  0.00    -0.075 A 
ATOM     63  C31 non d ame     -39.417  19.278  25.392  0.00  0.00    -0.082 A 
ATOM     64  H49 non d ame     -38.958  19.902  27.405  0.00  0.00     0.084 H 
ATOM     65  C32 non d ame     -38.961  19.198  24.073  0.00  0.00    -0.083 A 
ATOM     66  H50 non d ame     -40.406  18.901  25.654  0.00  0.00     0.083 H 
ATOM     67  C33 non d ame     -37.700  19.679  23.749  0.00  0.00    -0.082 A 
ATOM     68  H51 non d ame     -39.590  18.760  23.298  0.00  0.00     0.083 H 
ATOM     69  C34 non d ame     -36.886  20.244  24.728  0.00  0.00    -0.075 A 
ATOM     70  H52 non d ame     -37.347  19.613  22.719  0.00  0.00     0.083 H 
ATOM     71  H53 non d ame     -35.897  20.621  24.465  0.00  0.00     0.084 H 
ENDBRANCH  58  61
ENDBRANCH  57  58
ENDBRANCH  55  57
ENDBRANCH  52  55
ENDBRANCH  49  52
ENDBRANCH  47  49
BRANCH  47  72
ATOM     72  C24 non d ame     -32.992  15.394  28.736  0.00  0.00    -0.039 C 
ATOM     73  H35 non d ame     -32.902  16.246  29.411  0.00  0.00     0.036 H 
ATOM     74  H36 non d ame     -33.850  14.726  28.814  0.00  0.00     0.036 H 
BRANCH  72  75
ATOM     75  C25 non d ame     -31.677  14.500  28.925  0.00  0.00    -0.001 C 
ATOM     76  C26 non d ame     -32.099  12.960  29.320  0.00  0.00    -0.035 C 
ATOM     77  C27 non d ame     -31.411  12.589  30.426  0.00  0.00     0.085 C 
ATOM     78  H38 non d ame     -33.139  12.929  29.644  0.00  0.00     0.036 H 
ATOM     79  H39 non d ame     -31.745  12.268  28.556  0.00  0.00     0.036 H 
ATOM     80  N5  non d ame     -30.807  13.843  31.011  0.00  0.00    -0.049 N 
ATOM     81  H40 non d ame     -32.159  12.199  31.117  0.00  0.00     0.075 H 
ATOM     82  H41 non d ame     -30.610  11.943  30.068  0.00  0.00     0.075 H 
ATOM     83  C28 non d ame     -30.922  14.970  29.861  0.00  0.00     0.193 C 
ATOM     84  H42 non d ame     -31.398  14.112  31.785  0.00  0.00     0.280 HD
ATOM     85  H43 non d ame     -29.829  13.642  31.168  0.00  0.00     0.280 HD
ATOM     86  H44 non d ame     -30.046  15.261  29.281  0.00  0.00     0.129 H 
ATOM     87  H37 non d ame     -30.971  14.625  28.104  0.00  0.00     0.046 H 
BRANCH  83  88
ATOM     88  O6  non d ame     -31.437  16.184  30.410  0.00  0.00    -0.369 OA
ATOM     89  H45 non d ame     -32.394  16.192  30.328  0.00  0.00     0.212 HD
ENDBRANCH  83  88
ENDBRANCH  72  75
ENDBRANCH  47  72
ENDBRANCH  45  47
ENDBRANCH   1  43
BRANCH   1  90
ATOM     90  C16 non d ame     -31.184  15.208  22.811  0.00  0.00    -0.035 C 
ATOM     91  H21 non d ame     -31.579  14.506  22.077  0.00  0.00     0.037 H 
ATOM     92  H22 non d ame     -31.697  16.152  22.993  0.00  0.00     0.037 H 
BRANCH  90  93
ATOM     93  C17 non d ame     -29.740  15.572  22.339  0.00  0.00    -0.059 C 
ATOM     94  H23 non d ame     -29.402  16.420  22.934  0.00  0.00     0.038 H 
BRANCH  93  95
ATOM     95  C18 non d ame     -28.733  14.400  22.565  0.00  0.00    -0.073 C 
ATOM     96  H24 non d ame     -29.036  13.539  21.970  0.00  0.00     0.028 H 
ATOM     97  H25 non d ame     -27.734  14.715  22.264  0.00  0.00     0.028 H 
ATOM     98  H26 non d ame     -28.724  14.127  23.620  0.00  0.00     0.028 H 
ENDBRANCH  93  95
BRANCH  93  99
ATOM     99  C19 non d ame     -29.740  16.016  20.874  0.00  0.00    -0.073 C 
ATOM    100  H27 non d ame     -30.589  16.675  20.694  0.00  0.00     0.028 H 
ATOM    101  H28 non d ame     -28.814  16.548  20.655  0.00  0.00     0.028 H 
ATOM    102  H29 non d ame     -29.815  15.140  20.229  0.00  0.00     0.028 H 
ENDBRANCH  93  99
ENDBRANCH  90  93
ENDBRANCH   1  90
TORSDOF 26
ENDMDL
MODEL 12
REMARK VINA RESULT:      -6.7      2.296      6.200
REMARK  26 active torsions:
REMARK  status: ('A' for Active; 'I' for Inactive)
REMARK    1  A    between atoms: C2_2  and  C3_3 
REMARK    2  A    between atoms: C4_6  and  C5_7 
REMARK       I    between atoms: C5_7  and  N2_9 
REMARK    3  A    between atoms: N2_9  and  C6_10 
REMARK    4  A    between atoms: C6_10  and  C7_11 
REMARK    5  A    between atoms: C6_10  and  C8_13 
REMARK       I    between atoms: C7_11  and  N3_14 
REMARK    6  A    between atoms: N3_14  and  C9_15 
REMARK    7  A    between atoms: C9_15  and  C10_16 
REMARK    8  A    between atoms: C9_15  and  C11_18 
REMARK       I    between atoms: C10_16  and  N4_21 
REMARK    9  A    between atoms: C11_18  and  C12_19 
REMARK   10  A    between atoms: C11_18  and  C13_20 
REMARK   11  A    between atoms: N4_21  and  C14_22 
REMARK   12  A    between atoms: C14_22  and  C15_23 
REMARK   13  A    between atoms: C14_22  and  C16_25 
REMARK       I    between atoms: C15_23  and  N6_40 
REMARK   14  A    between atoms: C16_25  and  C17_26 
REMARK   15  A    between atoms: C17_26  and  C18_27 
REMARK   16  A    between atoms: C17_26  and  C19_28 
REMARK   17  A    between atoms: C20_29  and  C21_30 
REMARK   18  A    between atoms: C20_29  and  C24_33 
REMARK   19  A    between atoms: C20_29  and  N6_40 
REMARK   20  A    between atoms: C21_30  and  C22_31 
REMARK   21  A    between atoms: C22_31  and  C23_32 
REMARK   22  A    between atoms: C23_32  and  O8_43 
REMARK   23  A    between atoms: C24_33  and  C25_34 
REMARK   24  A    between atoms: C28_38  and  O6_39 
REMARK   25  A    between atoms: C29_42  and  O8_43 
REMARK   26  A    between atoms: C29_42  and  C35_49 
ROOT
ATOM      1  C14 non d ame     -30.949  14.501  23.645  0.00  0.00     0.089 C 
ATOM      2  H20 non d ame     -29.865  14.579  23.737  0.00  0.00     0.087 H 
ENDROOT
BRANCH   1   3
ATOM      3  N4  non d ame     -31.324  13.147  24.022  0.00  0.00    -0.346 N 
ATOM      4  C10 non d ame     -30.620  11.962  23.410  0.00  0.00     0.241 C 
ATOM      5  O4  non d ame     -29.755  12.124  22.613  0.00  0.00    -0.271 OA
ATOM      6  H19 non d ame     -32.064  13.030  24.700  0.00  0.00     0.163 HD
BRANCH   4   7
ATOM      7  C9  non d ame     -31.018  10.568  23.817  0.00  0.00     0.092 C 
ATOM      8  H11 non d ame     -30.339  10.213  24.593  0.00  0.00     0.088 H 
BRANCH   7   9
ATOM      9  N3  non d ame     -32.364  10.593  24.398  0.00  0.00    -0.346 N 
ATOM     10  C7  non d ame     -32.533  10.514  25.828  0.00  0.00     0.240 C 
ATOM     11  O3  non d ame     -31.597  10.429  26.526  0.00  0.00    -0.271 OA
ATOM     12  H10 non d ame     -33.181  10.664  23.808  0.00  0.00     0.163 HD
BRANCH  10  13
ATOM     13  C6  non d ame     -33.968  10.538  26.440  0.00  0.00     0.086 C 
ATOM     14  H6  non d ame     -34.691   9.986  25.840  0.00  0.00     0.086 H 
BRANCH  13  15
ATOM     15  N2  non d ame     -33.935   9.899  27.744  0.00  0.00    -0.343 N 
ATOM     16  C5  non d ame     -34.867   8.808  28.037  0.00  0.00     0.273 C 
ATOM     17  O2  non d ame     -35.641   8.454  27.217  0.00  0.00    -0.266 OA
ATOM     18  H5  non d ame     -33.272  10.209  28.440  0.00  0.00     0.163 HD
BRANCH  16  19
ATOM     19  C4  non d ame     -34.842   8.121  29.411  0.00  0.00     0.154 A 
ATOM     20  C1  non d ame     -35.036   6.731  29.687  0.00  0.00    -0.017 A 
ATOM     21  C2  non d ame     -34.917   6.618  31.090  0.00  0.00     0.077 A 
ATOM     22  H1  non d ame     -35.234   5.926  28.978  0.00  0.00     0.091 H 
ATOM     23  O1  non d ame     -34.681   7.810  31.556  0.00  0.00    -0.218 OA
ATOM     24  N1  non d ame     -34.633   8.704  30.595  0.00  0.00    -0.123 NA
BRANCH  21  25
ATOM     25  C3  non d ame     -35.041   5.338  31.906  0.00  0.00    -0.029 C 
ATOM     26  H2  non d ame     -34.374   4.580  31.497  0.00  0.00     0.036 H 
ATOM     27  H3  non d ame     -34.769   5.540  32.942  0.00  0.00     0.036 H 
ATOM     28  H4  non d ame     -36.069   4.979  31.865  0.00  0.00     0.036 H 
ENDBRANCH  21  25
ENDBRANCH  16  19
ENDBRANCH  13  15
BRANCH  13  29
ATOM     29  C8  non d ame     -34.436  11.965  26.576  0.00  0.00    -0.049 C 
ATOM     30  H7  non d ame     -35.320  11.998  27.212  0.00  0.00     0.030 H 
ATOM     31  H8  non d ame     -33.644  12.566  27.022  0.00  0.00     0.030 H 
ATOM     32  H9  non d ame     -34.682  12.362  25.591  0.00  0.00     0.030 H 
ENDBRANCH  13  29
ENDBRANCH  10  13
ENDBRANCH   7   9
BRANCH   7  33
ATOM     33  C11 non d ame     -31.013   9.641  22.566  0.00  0.00    -0.033 C 
ATOM     34  H12 non d ame     -30.925  10.278  21.686  0.00  0.00     0.042 H 
BRANCH  33  35
ATOM     35  C12 non d ame     -29.783   8.681  22.574  0.00  0.00    -0.071 C 
ATOM     36  H13 non d ame     -29.994   7.814  21.949  0.00  0.00     0.028 H 
ATOM     37  H14 non d ame     -28.910   9.205  22.185  0.00  0.00     0.028 H 
ATOM     38  H15 non d ame     -29.585   8.353  23.595  0.00  0.00     0.028 H 
ENDBRANCH  33  35
BRANCH  33  39
ATOM     39  C13 non d ame     -32.352   8.845  22.454  0.00  0.00    -0.071 C 
ATOM     40  H16 non d ame     -32.714   8.885  21.427  0.00  0.00     0.028 H 
ATOM     41  H17 non d ame     -32.182   7.806  22.740  0.00  0.00     0.028 H 
ATOM     42  H18 non d ame     -33.094   9.286  23.119  0.00  0.00     0.028 H 
ENDBRANCH  33  39
ENDBRANCH   7  33
ENDBRANCH   4   7
ENDBRANCH   1   3
BRANCH   1  43
ATOM     43  C15 non d ame     -31.691  15.500  24.579  0.00  0.00     0.240 C 
ATOM     44  O5  non d ame     -32.091  16.531  24.143  0.00  0.00    -0.271 OA
ATOM     45  N6  non d ame     -31.911  15.166  26.015  0.00  0.00    -0.355 N 
ATOM     46  H46 non d ame     -31.580  14.292  26.395  0.00  0.00     0.162 HD
BRANCH  45  47
ATOM     47  C20 non d ame     -32.620  16.126  26.889  0.00  0.00     0.013 C 
ATOM     48  H30 non d ame     -33.617  16.282  26.477  0.00  0.00     0.072 H 
BRANCH  47  49
ATOM     49  C21 non d ame     -31.861  17.433  26.915  0.00  0.00    -0.038 C 
ATOM     50  H31 non d ame     -31.485  17.536  27.934  0.00  0.00     0.036 H 
ATOM     51  H32 non d ame     -31.163  17.385  26.079  0.00  0.00     0.036 H 
BRANCH  49  52
ATOM     52  C22 non d ame     -32.766  18.657  26.659  0.00  0.00     0.018 C 
ATOM     53  H33 non d ame     -32.108  19.436  26.276  0.00  0.00     0.048 H 
ATOM     54  H34 non d ame     -33.591  18.291  26.046  0.00  0.00     0.048 H 
BRANCH  52  55
ATOM     55  C23 non d ame     -33.414  19.238  27.946  0.00  0.00     0.259 C 
ATOM     56  O7  non d ame     -32.857  20.078  28.575  0.00  0.00    -0.265 OA
BRANCH  55  57
ATOM     57  O8  non d ame     -34.678  18.744  28.374  0.00  0.00    -0.317 OA
BRANCH  57  58
ATOM     58  C29 non d ame     -35.732  19.709  28.309  0.00  0.00     0.052 C 
ATOM     59  H47 non d ame     -36.476  19.382  29.035  0.00  0.00     0.082 H 
ATOM     60  H48 non d ame     -35.251  20.680  28.422  0.00  0.00     0.082 H 
BRANCH  58  61
ATOM     61  C35 non d ame     -36.362  19.636  26.892  0.00  0.00    -0.034 A 
ATOM     62  C30 non d ame     -36.475  18.410  26.243  0.00  0.00    -0.075 A 
ATOM     63  C31 non d ame     -37.041  18.344  24.971  0.00  0.00    -0.082 A 
ATOM     64  H49 non d ame     -36.121  17.502  26.731  0.00  0.00     0.084 H 
ATOM     65  C32 non d ame     -37.491  19.510  24.346  0.00  0.00    -0.083 A 
ATOM     66  H50 non d ame     -37.130  17.382  24.465  0.00  0.00     0.083 H 
ATOM     67  C33 non d ame     -37.372  20.731  24.996  0.00  0.00    -0.082 A 
ATOM     68  H51 non d ame     -37.935  19.467  23.351  0.00  0.00     0.083 H 
ATOM     69  C34 non d ame     -36.810  20.801  26.269  0.00  0.00    -0.075 A 
ATOM     70  H52 non d ame     -37.723  21.639  24.504  0.00  0.00     0.083 H 
ATOM     71  H53 non d ame     -36.721  21.764  26.773  0.00  0.00     0.084 H 
ENDBRANCH  58  61
ENDBRANCH  57  58
ENDBRANCH  55  57
ENDBRANCH  52  55
ENDBRANCH  49  52
ENDBRANCH  47  49
BRANCH  47  72
ATOM     72  C24 non d ame     -32.713  15.562  28.306  0.00  0.00    -0.039 C 
ATOM     73  H35 non d ame     -32.711  16.431  28.964  0.00  0.00     0.036 H 
ATOM     74  H36 non d ame     -33.571  14.889  28.294  0.00  0.00     0.036 H 
BRANCH  72  75
ATOM     75  C25 non d ame     -31.427  14.683  28.680  0.00  0.00    -0.001 C 
ATOM     76  C26 non d ame     -31.866  13.113  28.897  0.00  0.00    -0.035 C 
ATOM     77  C27 non d ame     -31.381  12.685  30.087  0.00  0.00     0.085 C 
ATOM     78  H38 non d ame     -32.946  13.041  29.021  0.00  0.00     0.036 H 
ATOM     79  H39 non d ame     -31.357  12.478  28.171  0.00  0.00     0.036 H 
ATOM     80  N5  non d ame     -30.933  13.910  30.847  0.00  0.00    -0.049 N 
ATOM     81  H40 non d ame     -32.230  12.236  30.603  0.00  0.00     0.075 H 
ATOM     82  H41 non d ame     -30.509  12.079  29.845  0.00  0.00     0.075 H 
ATOM     83  C28 non d ame     -30.871  15.106  29.765  0.00  0.00     0.193 C 
ATOM     84  H42 non d ame     -31.664  14.116  31.514  0.00  0.00     0.280 HD
ATOM     85  H43 non d ame     -29.995  13.718  31.170  0.00  0.00     0.280 HD
ATOM     86  H44 non d ame     -29.913  15.451  29.376  0.00  0.00     0.129 H 
ATOM     87  H37 non d ame     -30.587  14.875  28.012  0.00  0.00     0.046 H 
BRANCH  83  88
ATOM     88  O6  non d ame     -31.516  16.272  30.282  0.00  0.00    -0.369 OA
ATOM     89  H45 non d ame     -31.322  17.023  29.716  0.00  0.00     0.212 HD
ENDBRANCH  83  88
ENDBRANCH  72  75
ENDBRANCH  47  72
ENDBRANCH  45  47
ENDBRANCH   1  43
BRANCH   1  90
ATOM     90  C16 non d ame     -31.362  14.747  22.202  0.00  0.00    -0.035 C 
ATOM     91  H21 non d ame     -31.805  13.810  21.866  0.00  0.00     0.037 H 
ATOM     92  H22 non d ame     -31.962  15.657  22.225  0.00  0.00     0.037 H 
BRANCH  90  93
ATOM     93  C17 non d ame     -30.160  15.034  21.247  0.00  0.00    -0.059 C 
ATOM     94  H23 non d ame     -29.921  14.105  20.728  0.00  0.00     0.038 H 
BRANCH  93  95
ATOM     95  C18 non d ame     -30.510  16.107  20.166  0.00  0.00    -0.073 C 
ATOM     96  H24 non d ame     -29.633  16.300  19.549  0.00  0.00     0.028 H 
ATOM     97  H25 non d ame     -31.322  15.740  19.539  0.00  0.00     0.028 H 
ATOM     98  H26 non d ame     -30.818  17.029  20.657  0.00  0.00     0.028 H 
ENDBRANCH  93  95
BRANCH  93  99
ATOM     99  C19 non d ame     -28.917  15.444  22.040  0.00  0.00    -0.073 C 
ATOM    100  H27 non d ame     -28.074  15.564  21.358  0.00  0.00     0.028 H 
ATOM    101  H28 non d ame     -29.107  16.388  22.552  0.00  0.00     0.028 H 
ATOM    102  H29 non d ame     -28.684  14.674  22.775  0.00  0.00     0.028 H 
ENDBRANCH  93  99
ENDBRANCH  90  93
ENDBRANCH   1  90
TORSDOF 26
ENDMDL
MODEL 13
REMARK VINA RESULT:      -6.6      1.836      5.502
REMARK  26 active torsions:
REMARK  status: ('A' for Active; 'I' for Inactive)
REMARK    1  A    between atoms: C2_2  and  C3_3 
REMARK    2  A    between atoms: C4_6  and  C5_7 
REMARK       I    between atoms: C5_7  and  N2_9 
REMARK    3  A    between atoms: N2_9  and  C6_10 
REMARK    4  A    between atoms: C6_10  and  C7_11 
REMARK    5  A    between atoms: C6_10  and  C8_13 
REMARK       I    between atoms: C7_11  and  N3_14 
REMARK    6  A    between atoms: N3_14  and  C9_15 
REMARK    7  A    between atoms: C9_15  and  C10_16 
REMARK    8  A    between atoms: C9_15  and  C11_18 
REMARK       I    between atoms: C10_16  and  N4_21 
REMARK    9  A    between atoms: C11_18  and  C12_19 
REMARK   10  A    between atoms: C11_18  and  C13_20 
REMARK   11  A    between atoms: N4_21  and  C14_22 
REMARK   12  A    between atoms: C14_22  and  C15_23 
REMARK   13  A    between atoms: C14_22  and  C16_25 
REMARK       I    between atoms: C15_23  and  N6_40 
REMARK   14  A    between atoms: C16_25  and  C17_26 
REMARK   15  A    between atoms: C17_26  and  C18_27 
REMARK   16  A    between atoms: C17_26  and  C19_28 
REMARK   17  A    between atoms: C20_29  and  C21_30 
REMARK   18  A    between atoms: C20_29  and  C24_33 
REMARK   19  A    between atoms: C20_29  and  N6_40 
REMARK   20  A    between atoms: C21_30  and  C22_31 
REMARK   21  A    between atoms: C22_31  and  C23_32 
REMARK   22  A    between atoms: C23_32  and  O8_43 
REMARK   23  A    between atoms: C24_33  and  C25_34 
REMARK   24  A    between atoms: C28_38  and  O6_39 
REMARK   25  A    between atoms: C29_42  and  O8_43 
REMARK   26  A    between atoms: C29_42  and  C35_49 
ROOT
ATOM      1  C14 non d ame     -32.727   9.942  24.820  0.00  0.00     0.089 C 
ATOM      2  H20 non d ame     -32.537   9.141  25.535  0.00  0.00     0.087 H 
ENDROOT
BRANCH   1   3
ATOM      3  N4  non d ame     -34.021  10.523  25.146  0.00  0.00    -0.346 N 
ATOM      4  C10 non d ame     -35.051   9.717  25.897  0.00  0.00     0.241 C 
ATOM      5  O4  non d ame     -34.816   8.601  26.225  0.00  0.00    -0.271 OA
ATOM      6  H19 non d ame     -34.202  11.474  24.856  0.00  0.00     0.163 HD
BRANCH   4   7
ATOM      7  C9  non d ame     -36.383  10.336  26.231  0.00  0.00     0.092 C 
ATOM      8  H11 non d ame     -36.404  10.590  27.291  0.00  0.00     0.088 H 
BRANCH   7   9
ATOM      9  N3  non d ame     -36.542  11.587  25.483  0.00  0.00    -0.346 N 
ATOM     10  C7  non d ame     -37.077  12.755  26.138  0.00  0.00     0.240 C 
ATOM     11  O3  non d ame     -37.386  12.706  27.266  0.00  0.00    -0.271 OA
ATOM     12  H10 non d ame     -36.281  11.644  24.509  0.00  0.00     0.163 HD
BRANCH  10  13
ATOM     13  C6  non d ame     -37.247  14.083  25.336  0.00  0.00     0.086 C 
ATOM     14  H6  non d ame     -38.191  14.584  25.546  0.00  0.00     0.086 H 
BRANCH  13  15
ATOM     15  N2  non d ame     -36.192  15.005  25.721  0.00  0.00    -0.343 N 
ATOM     16  C5  non d ame     -36.455  16.014  26.750  0.00  0.00     0.273 C 
ATOM     17  O2  non d ame     -37.520  16.077  27.259  0.00  0.00    -0.266 OA
ATOM     18  H5  non d ame     -35.285  14.945  25.279  0.00  0.00     0.163 HD
BRANCH  16  19
ATOM     19  C4  non d ame     -35.348  16.994  27.168  0.00  0.00     0.154 A 
ATOM     20  C1  non d ame     -34.470  17.725  26.307  0.00  0.00    -0.017 A 
ATOM     21  C2  non d ame     -33.648  18.475  27.178  0.00  0.00     0.077 A 
ATOM     22  H1  non d ame     -34.434  17.714  25.218  0.00  0.00     0.091 H 
ATOM     23  O1  non d ame     -34.020  18.200  28.394  0.00  0.00    -0.218 OA
ATOM     24  N1  non d ame     -35.010  17.338  28.414  0.00  0.00    -0.123 NA
BRANCH  21  25
ATOM     25  C3  non d ame     -32.534  19.429  26.768  0.00  0.00    -0.029 C 
ATOM     26  H2  non d ame     -32.905  20.116  26.008  0.00  0.00     0.036 H 
ATOM     27  H3  non d ame     -32.203  19.995  27.638  0.00  0.00     0.036 H 
ATOM     28  H4  non d ame     -31.697  18.859  26.365  0.00  0.00     0.036 H 
ENDBRANCH  21  25
ENDBRANCH  16  19
ENDBRANCH  13  15
BRANCH  13  29
ATOM     29  C8  non d ame     -37.167  13.794  23.858  0.00  0.00    -0.049 C 
ATOM     30  H7  non d ame     -36.347  13.101  23.668  0.00  0.00     0.030 H 
ATOM     31  H8  non d ame     -38.104  13.349  23.524  0.00  0.00     0.030 H 
ATOM     32  H9  non d ame     -36.991  14.723  23.316  0.00  0.00     0.030 H 
ENDBRANCH  13  29
ENDBRANCH  10  13
ENDBRANCH   7   9
BRANCH   7  33
ATOM     33  C11 non d ame     -37.524   9.353  25.840  0.00  0.00    -0.033 C 
ATOM     34  H12 non d ame     -37.115   8.343  25.875  0.00  0.00     0.042 H 
BRANCH  33  35
ATOM     35  C12 non d ame     -38.703   9.416  26.860  0.00  0.00    -0.071 C 
ATOM     36  H13 non d ame     -38.748   8.484  27.423  0.00  0.00     0.028 H 
ATOM     37  H14 non d ame     -38.545  10.247  27.547  0.00  0.00     0.028 H 
ATOM     38  H15 non d ame     -39.641   9.561  26.324  0.00  0.00     0.028 H 
ENDBRANCH  33  35
BRANCH  33  39
ATOM     39  C13 non d ame     -38.021   9.623  24.383  0.00  0.00    -0.071 C 
ATOM     40  H16 non d ame     -39.081   9.380  24.310  0.00  0.00     0.028 H 
ATOM     41  H17 non d ame     -37.871  10.674  24.137  0.00  0.00     0.028 H 
ATOM     42  H18 non d ame     -37.457   9.003  23.686  0.00  0.00     0.028 H 
ENDBRANCH  33  39
ENDBRANCH   7  33
ENDBRANCH   4   7
ENDBRANCH   1   3
BRANCH   1  43
ATOM     43  C15 non d ame     -31.649  11.062  24.892  0.00  0.00     0.240 C 
ATOM     44  O5  non d ame     -30.558  10.806  25.287  0.00  0.00    -0.271 OA
ATOM     45  N6  non d ame     -31.976  12.451  24.461  0.00  0.00    -0.355 N 
ATOM     46  H46 non d ame     -32.898  12.678  24.119  0.00  0.00     0.162 HD
BRANCH  45  47
ATOM     47  C20 non d ame     -30.939  13.503  24.534  0.00  0.00     0.013 C 
ATOM     48  H30 non d ame     -30.195  13.191  25.266  0.00  0.00     0.072 H 
BRANCH  47  49
ATOM     49  C21 non d ame     -31.578  14.804  24.967  0.00  0.00    -0.038 C 
ATOM     50  H31 non d ame     -30.756  15.438  25.302  0.00  0.00     0.036 H 
ATOM     51  H32 non d ame     -32.203  15.117  24.131  0.00  0.00     0.036 H 
BRANCH  49  52
ATOM     52  C22 non d ame     -32.520  14.634  26.178  0.00  0.00     0.018 C 
ATOM     53  H33 non d ame     -33.186  15.496  26.157  0.00  0.00     0.048 H 
ATOM     54  H34 non d ame     -32.929  13.627  26.095  0.00  0.00     0.048 H 
BRANCH  52  55
ATOM     55  C23 non d ame     -31.793  14.689  27.550  0.00  0.00     0.259 C 
ATOM     56  O7  non d ame     -32.054  15.539  28.338  0.00  0.00    -0.265 OA
BRANCH  55  57
ATOM     57  O8  non d ame     -30.799  13.717  27.851  0.00  0.00    -0.317 OA
BRANCH  57  58
ATOM     58  C29 non d ame     -30.715  13.381  29.239  0.00  0.00     0.052 C 
ATOM     59  H47 non d ame     -29.704  13.001  29.390  0.00  0.00     0.082 H 
ATOM     60  H48 non d ame     -31.050  14.267  29.778  0.00  0.00     0.082 H 
BRANCH  58  61
ATOM     61  C35 non d ame     -31.718  12.229  29.515  0.00  0.00    -0.034 A 
ATOM     62  C30 non d ame     -32.023  11.316  28.511  0.00  0.00    -0.075 A 
ATOM     63  C31 non d ame     -32.924  10.281  28.758  0.00  0.00    -0.082 A 
ATOM     64  H49 non d ame     -31.556  11.410  27.530  0.00  0.00     0.084 H 
ATOM     65  C32 non d ame     -33.524  10.164  30.015  0.00  0.00    -0.083 A 
ATOM     66  H50 non d ame     -33.160   9.566  27.970  0.00  0.00     0.083 H 
ATOM     67  C33 non d ame     -33.219  11.080  31.013  0.00  0.00    -0.082 A 
ATOM     68  H51 non d ame     -34.229   9.358  30.217  0.00  0.00     0.083 H 
ATOM     69  C34 non d ame     -32.317  12.114  30.771  0.00  0.00    -0.075 A 
ATOM     70  H52 non d ame     -33.690  10.987  31.992  0.00  0.00     0.083 H 
ATOM     71  H53 non d ame     -32.082  12.829  31.560  0.00  0.00     0.084 H 
ENDBRANCH  58  61
ENDBRANCH  57  58
ENDBRANCH  55  57
ENDBRANCH  52  55
ENDBRANCH  49  52
ENDBRANCH  47  49
BRANCH  47  72
ATOM     72  C24 non d ame     -30.291  13.685  23.163  0.00  0.00    -0.039 C 
ATOM     73  H35 non d ame     -29.265  13.333  23.278  0.00  0.00     0.036 H 
ATOM     74  H36 non d ame     -30.959  13.192  22.458  0.00  0.00     0.036 H 
BRANCH  72  75
ATOM     75  C25 non d ame     -30.215  15.229  22.743  0.00  0.00    -0.001 C 
ATOM     76  C26 non d ame     -31.241  15.520  21.491  0.00  0.00    -0.035 C 
ATOM     77  C27 non d ame     -30.560  16.156  20.508  0.00  0.00     0.085 C 
ATOM     78  H38 non d ame     -31.540  14.580  21.028  0.00  0.00     0.036 H 
ATOM     79  H39 non d ame     -31.997  16.247  21.788  0.00  0.00     0.036 H 
ATOM     80  N5  non d ame     -29.092  16.034  20.838  0.00  0.00    -0.049 N 
ATOM     81  H40 non d ame     -30.768  15.592  19.598  0.00  0.00     0.075 H 
ATOM     82  H41 non d ame     -30.854  17.202  20.580  0.00  0.00     0.075 H 
ATOM     83  C28 non d ame     -29.021  15.557  22.379  0.00  0.00     0.193 C 
ATOM     84  H42 non d ame     -28.728  15.293  20.255  0.00  0.00     0.280 HD
ATOM     85  H43 non d ame     -28.706  16.965  20.770  0.00  0.00     0.280 HD
ATOM     86  H44 non d ame     -28.761  16.265  23.166  0.00  0.00     0.129 H 
ATOM     87  H37 non d ame     -30.283  15.895  23.604  0.00  0.00     0.046 H 
BRANCH  83  88
ATOM     88  O6  non d ame     -28.099  14.475  22.518  0.00  0.00    -0.369 OA
ATOM     89  H45 non d ame     -27.477  14.673  23.222  0.00  0.00     0.212 HD
ENDBRANCH  83  88
ENDBRANCH  72  75
ENDBRANCH  47  72
ENDBRANCH  45  47
ENDBRANCH   1  43
BRANCH   1  90
ATOM     90  C16 non d ame     -32.780   9.373  23.411  0.00  0.00    -0.035 C 
ATOM     91  H21 non d ame     -33.740   8.862  23.342  0.00  0.00     0.037 H 
ATOM     92  H22 non d ame     -32.561  10.213  22.752  0.00  0.00     0.037 H 
BRANCH  90  93
ATOM     93  C17 non d ame     -31.686   8.295  23.130  0.00  0.00    -0.059 C 
ATOM     94  H23 non d ame     -30.718   8.736  23.367  0.00  0.00     0.038 H 
BRANCH  93  95
ATOM     95  C18 non d ame     -31.863   7.027  24.026  0.00  0.00    -0.073 C 
ATOM     96  H24 non d ame     -32.905   6.709  24.002  0.00  0.00     0.028 H 
ATOM     97  H25 non d ame     -31.231   6.224  23.648  0.00  0.00     0.028 H 
ATOM     98  H26 non d ame     -31.578   7.263  25.050  0.00  0.00     0.028 H 
ENDBRANCH  93  95
BRANCH  93  99
ATOM     99  C19 non d ame     -31.661   7.915  21.647  0.00  0.00    -0.073 C 
ATOM    100  H27 non d ame     -31.763   8.815  21.040  0.00  0.00     0.028 H 
ATOM    101  H28 non d ame     -30.716   7.425  21.413  0.00  0.00     0.028 H 
ATOM    102  H29 non d ame     -32.485   7.235  21.432  0.00  0.00     0.028 H 
ENDBRANCH  93  99
ENDBRANCH  90  93
ENDBRANCH   1  90
TORSDOF 26
ENDMDL
MODEL 14
REMARK VINA RESULT:      -6.6      3.585      9.416
REMARK  26 active torsions:
REMARK  status: ('A' for Active; 'I' for Inactive)
REMARK    1  A    between atoms: C2_2  and  C3_3 
REMARK    2  A    between atoms: C4_6  and  C5_7 
REMARK       I    between atoms: C5_7  and  N2_9 
REMARK    3  A    between atoms: N2_9  and  C6_10 
REMARK    4  A    between atoms: C6_10  and  C7_11 
REMARK    5  A    between atoms: C6_10  and  C8_13 
REMARK       I    between atoms: C7_11  and  N3_14 
REMARK    6  A    between atoms: N3_14  and  C9_15 
REMARK    7  A    between atoms: C9_15  and  C10_16 
REMARK    8  A    between atoms: C9_15  and  C11_18 
REMARK       I    between atoms: C10_16  and  N4_21 
REMARK    9  A    between atoms: C11_18  and  C12_19 
REMARK   10  A    between atoms: C11_18  and  C13_20 
REMARK   11  A    between atoms: N4_21  and  C14_22 
REMARK   12  A    between atoms: C14_22  and  C15_23 
REMARK   13  A    between atoms: C14_22  and  C16_25 
REMARK       I    between atoms: C15_23  and  N6_40 
REMARK   14  A    between atoms: C16_25  and  C17_26 
REMARK   15  A    between atoms: C17_26  and  C18_27 
REMARK   16  A    between atoms: C17_26  and  C19_28 
REMARK   17  A    between atoms: C20_29  and  C21_30 
REMARK   18  A    between atoms: C20_29  and  C24_33 
REMARK   19  A    between atoms: C20_29  and  N6_40 
REMARK   20  A    between atoms: C21_30  and  C22_31 
REMARK   21  A    between atoms: C22_31  and  C23_32 
REMARK   22  A    between atoms: C23_32  and  O8_43 
REMARK   23  A    between atoms: C24_33  and  C25_34 
REMARK   24  A    between atoms: C28_38  and  O6_39 
REMARK   25  A    between atoms: C29_42  and  O8_43 
REMARK   26  A    between atoms: C29_42  and  C35_49 
ROOT
ATOM      1  C14 non d ame     -34.897   8.440  31.256  0.00  0.00     0.089 C 
ATOM      2  H20 non d ame     -34.506   8.521  32.270  0.00  0.00     0.087 H 
ENDROOT
BRANCH   1   3
ATOM      3  N4  non d ame     -33.975   9.139  30.373  0.00  0.00    -0.346 N 
ATOM      4  C10 non d ame     -33.428  10.490  30.759  0.00  0.00     0.241 C 
ATOM      5  O4  non d ame     -33.747  10.997  31.784  0.00  0.00    -0.271 OA
ATOM      6  H19 non d ame     -33.718   8.692  29.504  0.00  0.00     0.163 HD
BRANCH   4   7
ATOM      7  C9  non d ame     -32.470  11.197  29.836  0.00  0.00     0.092 C 
ATOM      8  H11 non d ame     -31.795  10.465  29.391  0.00  0.00     0.088 H 
BRANCH   7   9
ATOM      9  N3  non d ame     -33.217  11.819  28.739  0.00  0.00    -0.346 N 
ATOM     10  C7  non d ame     -33.388  11.114  27.492  0.00  0.00     0.240 C 
ATOM     11  O3  non d ame     -32.930  10.046  27.354  0.00  0.00    -0.271 OA
ATOM     12  H10 non d ame     -33.617  12.741  28.842  0.00  0.00     0.163 HD
BRANCH  10  13
ATOM     13  C6  non d ame     -34.182  11.783  26.327  0.00  0.00     0.086 C 
ATOM     14  H6  non d ame     -34.884  12.541  26.676  0.00  0.00     0.086 H 
BRANCH  13  15
ATOM     15  N2  non d ame     -33.245  12.459  25.446  0.00  0.00    -0.343 N 
ATOM     16  C5  non d ame     -32.795  13.814  25.773  0.00  0.00     0.273 C 
ATOM     17  O2  non d ame     -33.195  14.352  26.746  0.00  0.00    -0.266 OA
ATOM     18  H5  non d ame     -32.910  11.993  24.614  0.00  0.00     0.163 HD
BRANCH  16  19
ATOM     19  C4  non d ame     -31.803  14.540  24.851  0.00  0.00     0.154 A 
ATOM     20  C1  non d ame     -30.845  13.944  23.971  0.00  0.00    -0.017 A 
ATOM     21  C2  non d ame     -30.189  15.033  23.355  0.00  0.00     0.077 A 
ATOM     22  H1  non d ame     -30.655  12.883  23.805  0.00  0.00     0.091 H 
ATOM     23  O1  non d ame     -30.717  16.122  23.832  0.00  0.00    -0.218 OA
ATOM     24  N1  non d ame     -31.661  15.861  24.706  0.00  0.00    -0.123 NA
BRANCH  21  25
ATOM     25  C3  non d ame     -29.072  14.947  22.324  0.00  0.00    -0.029 C 
ATOM     26  H2  non d ame     -29.446  14.465  21.421  0.00  0.00     0.036 H 
ATOM     27  H3  non d ame     -28.723  15.950  22.082  0.00  0.00     0.036 H 
ATOM     28  H4  non d ame     -28.246  14.364  22.731  0.00  0.00     0.036 H 
ENDBRANCH  21  25
ENDBRANCH  16  19
ENDBRANCH  13  15
BRANCH  13  29
ATOM     29  C8  non d ame     -34.942  10.730  25.563  0.00  0.00    -0.049 C 
ATOM     30  H7  non d ame     -35.267   9.947  26.248  0.00  0.00     0.030 H 
ATOM     31  H8  non d ame     -35.812  11.182  25.089  0.00  0.00     0.030 H 
ATOM     32  H9  non d ame     -34.295  10.297  24.799  0.00  0.00     0.030 H 
ENDBRANCH  13  29
ENDBRANCH  10  13
ENDBRANCH   7   9
BRANCH   7  33
ATOM     33  C11 non d ame     -31.703  12.296  30.627  0.00  0.00    -0.033 C 
ATOM     34  H12 non d ame     -32.244  12.469  31.557  0.00  0.00     0.042 H 
BRANCH  33  35
ATOM     35  C12 non d ame     -30.263  11.826  31.002  0.00  0.00    -0.071 C 
ATOM     36  H13 non d ame     -29.690  11.649  30.092  0.00  0.00     0.028 H 
ATOM     37  H14 non d ame     -29.773  12.598  31.595  0.00  0.00     0.028 H 
ATOM     38  H15 non d ame     -30.321  10.904  31.580  0.00  0.00     0.028 H 
ENDBRANCH  33  35
BRANCH  33  39
ATOM     39  C13 non d ame     -31.671  13.640  29.830  0.00  0.00    -0.071 C 
ATOM     40  H16 non d ame     -31.805  14.474  30.518  0.00  0.00     0.028 H 
ATOM     41  H17 non d ame     -30.711  13.737  29.321  0.00  0.00     0.028 H 
ATOM     42  H18 non d ame     -32.474  13.644  29.092  0.00  0.00     0.028 H 
ENDBRANCH  33  39
ENDBRANCH   7  33
ENDBRANCH   4   7
ENDBRANCH   1   3
BRANCH   1  43
ATOM     43  C15 non d ame     -35.009   6.961  30.786  0.00  0.00     0.240 C 
ATOM     44  O5  non d ame     -35.496   6.148  31.502  0.00  0.00    -0.271 OA
ATOM     45  N6  non d ame     -34.515   6.560  29.437  0.00  0.00    -0.355 N 
ATOM     46  H46 non d ame     -34.103   7.243  28.818  0.00  0.00     0.162 HD
BRANCH  45  47
ATOM     47  C20 non d ame     -34.629   5.151  29.005  0.00  0.00     0.013 C 
ATOM     48  H30 non d ame     -35.009   4.571  29.846  0.00  0.00     0.072 H 
BRANCH  47  49
ATOM     49  C21 non d ame     -33.265   4.640  28.600  0.00  0.00    -0.038 C 
ATOM     50  H31 non d ame     -32.547   5.316  29.066  0.00  0.00     0.036 H 
ATOM     51  H32 non d ame     -33.260   3.580  28.853  0.00  0.00     0.036 H 
BRANCH  49  52
ATOM     52  C22 non d ame     -33.020   4.727  27.077  0.00  0.00     0.018 C 
ATOM     53  H33 non d ame     -32.390   3.872  26.831  0.00  0.00     0.048 H 
ATOM     54  H34 non d ame     -34.007   4.825  26.625  0.00  0.00     0.048 H 
BRANCH  52  55
ATOM     55  C23 non d ame     -32.222   5.987  26.642  0.00  0.00     0.259 C 
ATOM     56  O7  non d ame     -32.002   6.860  27.417  0.00  0.00    -0.265 OA
BRANCH  55  57
ATOM     57  O8  non d ame     -31.765   6.092  25.299  0.00  0.00    -0.317 OA
BRANCH  57  58
ATOM     58  C29 non d ame     -32.598   6.899  24.462  0.00  0.00     0.052 C 
ATOM     59  H47 non d ame     -32.989   6.227  23.698  0.00  0.00     0.082 H 
ATOM     60  H48 non d ame     -33.282   7.414  25.136  0.00  0.00     0.082 H 
BRANCH  58  61
ATOM     61  C35 non d ame     -31.699   7.959  23.771  0.00  0.00    -0.034 A 
ATOM     62  C30 non d ame     -31.927   9.314  23.988  0.00  0.00    -0.075 A 
ATOM     63  C31 non d ame     -31.120  10.266  23.367  0.00  0.00    -0.082 A 
ATOM     64  H49 non d ame     -32.738   9.630  24.645  0.00  0.00     0.084 H 
ATOM     65  C32 non d ame     -30.083   9.859  22.524  0.00  0.00    -0.083 A 
ATOM     66  H50 non d ame     -31.300  11.328  23.541  0.00  0.00     0.083 H 
ATOM     67  C33 non d ame     -29.862   8.506  22.307  0.00  0.00    -0.082 A 
ATOM     68  H51 non d ame     -29.447  10.597  22.035  0.00  0.00     0.083 H 
ATOM     69  C34 non d ame     -30.664   7.551  22.927  0.00  0.00    -0.075 A 
ATOM     70  H52 non d ame     -29.053   8.191  21.647  0.00  0.00     0.083 H 
ATOM     71  H53 non d ame     -30.484   6.490  22.753  0.00  0.00     0.084 H 
ENDBRANCH  58  61
ENDBRANCH  57  58
ENDBRANCH  55  57
ENDBRANCH  52  55
ENDBRANCH  49  52
ENDBRANCH  47  49
BRANCH  47  72
ATOM     72  C24 non d ame     -35.584   5.051  27.817  0.00  0.00    -0.039 C 
ATOM     73  H35 non d ame     -35.097   5.594  27.007  0.00  0.00     0.036 H 
ATOM     74  H36 non d ame     -35.800   3.988  27.707  0.00  0.00     0.036 H 
BRANCH  72  75
ATOM     75  C25 non d ame     -36.975   5.789  28.112  0.00  0.00    -0.001 C 
ATOM     76  C26 non d ame     -37.846   4.926  29.208  0.00  0.00    -0.035 C 
ATOM     77  C27 non d ame     -39.093   4.729  28.718  0.00  0.00     0.085 C 
ATOM     78  H38 non d ame     -37.443   3.917  29.294  0.00  0.00     0.036 H 
ATOM     79  H39 non d ame     -38.015   5.523  30.104  0.00  0.00     0.036 H 
ATOM     80  N5  non d ame     -39.054   5.093  27.253  0.00  0.00    -0.049 N 
ATOM     81  H40 non d ame     -39.277   3.659  28.813  0.00  0.00     0.075 H 
ATOM     82  H41 non d ame     -39.728   5.441  29.244  0.00  0.00     0.075 H 
ATOM     83  C28 non d ame     -37.678   5.909  27.035  0.00  0.00     0.193 C 
ATOM     84  H42 non d ame     -38.997   4.224  26.743  0.00  0.00     0.280 HD
ATOM     85  H43 non d ame     -39.829   5.722  27.095  0.00  0.00     0.280 HD
ATOM     86  H44 non d ame     -37.688   6.994  26.925  0.00  0.00     0.129 H 
ATOM     87  H37 non d ame     -36.845   6.853  28.309  0.00  0.00     0.046 H 
BRANCH  83  88
ATOM     88  O6  non d ame     -36.990   5.415  25.884  0.00  0.00    -0.369 OA
ATOM     89  H45 non d ame     -36.161   5.012  26.155  0.00  0.00     0.212 HD
ENDBRANCH  83  88
ENDBRANCH  72  75
ENDBRANCH  47  72
ENDBRANCH  45  47
ENDBRANCH   1  43
BRANCH   1  90
ATOM     90  C16 non d ame     -36.262   9.106  31.175  0.00  0.00    -0.035 C 
ATOM     91  H21 non d ame     -36.897   8.547  31.862  0.00  0.00     0.037 H 
ATOM     92  H22 non d ame     -36.076  10.167  31.346  0.00  0.00     0.037 H 
BRANCH  90  93
ATOM     93  C17 non d ame     -36.931   8.996  29.768  0.00  0.00    -0.059 C 
ATOM     94  H23 non d ame     -36.396   8.231  29.206  0.00  0.00     0.038 H 
BRANCH  93  95
ATOM     95  C18 non d ame     -38.428   8.560  29.860  0.00  0.00    -0.073 C 
ATOM     96  H24 non d ame     -38.914   9.096  30.675  0.00  0.00     0.028 H 
ATOM     97  H25 non d ame     -38.933   8.792  28.922  0.00  0.00     0.028 H 
ATOM     98  H26 non d ame     -38.483   7.488  30.046  0.00  0.00     0.028 H 
ENDBRANCH  93  95
BRANCH  93  99
ATOM     99  C19 non d ame     -36.793  10.309  28.993  0.00  0.00    -0.073 C 
ATOM    100  H27 non d ame     -37.743  10.843  29.010  0.00  0.00     0.028 H 
ATOM    101  H28 non d ame     -36.022  10.926  29.457  0.00  0.00     0.028 H 
ATOM    102  H29 non d ame     -36.514  10.095  27.962  0.00  0.00     0.028 H 
ENDBRANCH  93  99
ENDBRANCH  90  93
ENDBRANCH   1  90
TORSDOF 26
ENDMDL
MODEL 15
REMARK VINA RESULT:      -6.6      3.226      9.431
REMARK  26 active torsions:
REMARK  status: ('A' for Active; 'I' for Inactive)
REMARK    1  A    between atoms: C2_2  and  C3_3 
REMARK    2  A    between atoms: C4_6  and  C5_7 
REMARK       I    between atoms: C5_7  and  N2_9 
REMARK    3  A    between atoms: N2_9  and  C6_10 
REMARK    4  A    between atoms: C6_10  and  C7_11 
REMARK    5  A    between atoms: C6_10  and  C8_13 
REMARK       I    between atoms: C7_11  and  N3_14 
REMARK    6  A    between atoms: N3_14  and  C9_15 
REMARK    7  A    between atoms: C9_15  and  C10_16 
REMARK    8  A    between atoms: C9_15  and  C11_18 
REMARK       I    between atoms: C10_16  and  N4_21 
REMARK    9  A    between atoms: C11_18  and  C12_19 
REMARK   10  A    between atoms: C11_18  and  C13_20 
REMARK   11  A    between atoms: N4_21  and  C14_22 
REMARK   12  A    between atoms: C14_22  and  C15_23 
REMARK   13  A    between atoms: C14_22  and  C16_25 
REMARK       I    between atoms: C15_23  and  N6_40 
REMARK   14  A    between atoms: C16_25  and  C17_26 
REMARK   15  A    between atoms: C17_26  and  C18_27 
REMARK   16  A    between atoms: C17_26  and  C19_28 
REMARK   17  A    between atoms: C20_29  and  C21_30 
REMARK   18  A    between atoms: C20_29  and  C24_33 
REMARK   19  A    between atoms: C20_29  and  N6_40 
REMARK   20  A    between atoms: C21_30  and  C22_31 
REMARK   21  A    between atoms: C22_31  and  C23_32 
REMARK   22  A    between atoms: C23_32  and  O8_43 
REMARK   23  A    between atoms: C24_33  and  C25_34 
REMARK   24  A    between atoms: C28_38  and  O6_39 
REMARK   25  A    between atoms: C29_42  and  O8_43 
REMARK   26  A    between atoms: C29_42  and  C35_49 
ROOT
ATOM      1  C14 non d ame     -33.835   6.600  27.358  0.00  0.00     0.089 C 
ATOM      2  H20 non d ame     -33.561   5.817  28.066  0.00  0.00     0.087 H 
ENDROOT
BRANCH   1   3
ATOM      3  N4  non d ame     -33.849   7.862  28.083  0.00  0.00    -0.346 N 
ATOM      4  C10 non d ame     -34.505   7.954  29.438  0.00  0.00     0.241 C 
ATOM      5  O4  non d ame     -35.018   7.000  29.923  0.00  0.00    -0.271 OA
ATOM      6  H19 non d ame     -33.409   8.662  27.652  0.00  0.00     0.163 HD
BRANCH   4   7
ATOM      7  C9  non d ame     -34.505   9.267  30.177  0.00  0.00     0.092 C 
ATOM      8  H11 non d ame     -34.354   9.080  31.240  0.00  0.00     0.088 H 
BRANCH   7   9
ATOM      9  N3  non d ame     -33.381  10.088  29.716  0.00  0.00    -0.346 N 
ATOM     10  C7  non d ame     -32.842  11.116  30.572  0.00  0.00     0.240 C 
ATOM     11  O3  non d ame     -33.301  11.297  31.633  0.00  0.00    -0.271 OA
ATOM     12  H10 non d ame     -32.976   9.944  28.802  0.00  0.00     0.163 HD
BRANCH  10  13
ATOM     13  C6  non d ame     -31.647  11.988  30.075  0.00  0.00     0.086 C 
ATOM     14  H6  non d ame     -31.305  11.707  29.079  0.00  0.00     0.086 H 
BRANCH  13  15
ATOM     15  N2  non d ame     -32.079  13.374  29.990  0.00  0.00    -0.343 N 
ATOM     16  C5  non d ame     -31.429  14.274  29.034  0.00  0.00     0.273 C 
ATOM     17  O2  non d ame     -30.559  13.875  28.341  0.00  0.00    -0.266 OA
ATOM     18  H5  non d ame     -32.821  13.707  30.588  0.00  0.00     0.163 HD
BRANCH  16  19
ATOM     19  C4  non d ame     -31.876  15.741  28.933  0.00  0.00     0.154 A 
ATOM     20  C1  non d ame     -32.632  16.343  27.877  0.00  0.00    -0.017 A 
ATOM     21  C2  non d ame     -32.776  17.695  28.259  0.00  0.00     0.077 A 
ATOM     22  H1  non d ame     -33.017  15.871  26.973  0.00  0.00     0.091 H 
ATOM     23  O1  non d ame     -32.172  17.841  29.402  0.00  0.00    -0.218 OA
ATOM     24  N1  non d ame     -31.638  16.715  29.815  0.00  0.00    -0.123 NA
BRANCH  21  25
ATOM     25  C3  non d ame     -33.505  18.780  27.478  0.00  0.00    -0.029 C 
ATOM     26  H2  non d ame     -33.589  18.482  26.433  0.00  0.00     0.036 H 
ATOM     27  H3  non d ame     -34.502  18.921  27.896  0.00  0.00     0.036 H 
ATOM     28  H4  non d ame     -32.948  19.714  27.546  0.00  0.00     0.036 H 
ENDBRANCH  21  25
ENDBRANCH  16  19
ENDBRANCH  13  15
BRANCH  13  29
ATOM     29  C8  non d ame     -30.495  11.864  31.040  0.00  0.00    -0.049 C 
ATOM     30  H7  non d ame     -29.721  11.235  30.601  0.00  0.00     0.030 H 
ATOM     31  H8  non d ame     -30.087  12.853  31.246  0.00  0.00     0.030 H 
ATOM     32  H9  non d ame     -30.846  11.414  31.969  0.00  0.00     0.030 H 
ENDBRANCH  13  29
ENDBRANCH  10  13
ENDBRANCH   7   9
BRANCH   7  33
ATOM     33  C11 non d ame     -35.840  10.018  29.899  0.00  0.00    -0.033 C 
ATOM     34  H12 non d ame     -35.618  11.085  29.871  0.00  0.00     0.042 H 
BRANCH  33  35
ATOM     35  C12 non d ame     -36.434   9.627  28.510  0.00  0.00    -0.071 C 
ATOM     36  H13 non d ame     -35.631   9.295  27.851  0.00  0.00     0.028 H 
ATOM     37  H14 non d ame     -37.156   8.821  28.637  0.00  0.00     0.028 H 
ATOM     38  H15 non d ame     -36.929  10.493  28.069  0.00  0.00     0.028 H 
ENDBRANCH  33  35
BRANCH  33  39
ATOM     39  C13 non d ame     -36.871   9.769  31.046  0.00  0.00    -0.071 C 
ATOM     40  H16 non d ame     -36.539  10.279  31.950  0.00  0.00     0.028 H 
ATOM     41  H17 non d ame     -37.847  10.156  30.748  0.00  0.00     0.028 H 
ATOM     42  H18 non d ame     -36.949   8.699  31.239  0.00  0.00     0.028 H 
ENDBRANCH  33  39
ENDBRANCH   7  33
ENDBRANCH   4   7
ENDBRANCH   1   3
BRANCH   1  43
ATOM     43  C15 non d ame     -32.818   6.713  26.186  0.00  0.00     0.240 C 
ATOM     44  O5  non d ame     -31.843   6.035  26.182  0.00  0.00    -0.271 OA
ATOM     45  N6  non d ame     -33.066   7.662  25.063  0.00  0.00    -0.355 N 
ATOM     46  H46 non d ame     -33.894   8.240  25.053  0.00  0.00     0.162 HD
BRANCH  45  47
ATOM     47  C20 non d ame     -32.091   7.757  23.956  0.00  0.00     0.013 C 
ATOM     48  H30 non d ame     -31.176   7.255  24.270  0.00  0.00     0.072 H 
BRANCH  47  49
ATOM     49  C21 non d ame     -31.807   9.213  23.663  0.00  0.00    -0.038 C 
ATOM     50  H31 non d ame     -30.758   9.366  23.918  0.00  0.00     0.036 H 
ATOM     51  H32 non d ame     -32.150   9.380  22.641  0.00  0.00     0.036 H 
BRANCH  49  52
ATOM     52  C22 non d ame     -32.620  10.174  24.558  0.00  0.00     0.018 C 
ATOM     53  H33 non d ame     -32.800  11.061  23.953  0.00  0.00     0.048 H 
ATOM     54  H34 non d ame     -33.461   9.589  24.932  0.00  0.00     0.048 H 
BRANCH  52  55
ATOM     55  C23 non d ame     -31.847  10.663  25.815  0.00  0.00     0.259 C 
ATOM     56  O7  non d ame     -31.977  10.108  26.857  0.00  0.00    -0.265 OA
BRANCH  55  57
ATOM     57  O8  non d ame     -30.989  11.793  25.709  0.00  0.00    -0.317 OA
BRANCH  57  58
ATOM     58  C29 non d ame     -31.636  12.972  25.223  0.00  0.00     0.052 C 
ATOM     59  H47 non d ame     -32.598  12.640  24.831  0.00  0.00     0.082 H 
ATOM     60  H48 non d ame     -31.600  13.688  26.043  0.00  0.00     0.082 H 
BRANCH  58  61
ATOM     61  C35 non d ame     -30.793  13.531  24.046  0.00  0.00    -0.034 A 
ATOM     62  C30 non d ame     -30.560  14.898  23.944  0.00  0.00    -0.075 A 
ATOM     63  C31 non d ame     -29.803  15.401  22.887  0.00  0.00    -0.082 A 
ATOM     64  H49 non d ame     -30.970  15.577  24.692  0.00  0.00     0.084 H 
ATOM     65  C32 non d ame     -29.280  14.529  21.927  0.00  0.00    -0.083 A 
ATOM     66  H50 non d ame     -29.620  16.473  22.811  0.00  0.00     0.083 H 
ATOM     67  C33 non d ame     -29.519  13.166  22.031  0.00  0.00    -0.082 A 
ATOM     68  H51 non d ame     -28.687  14.914  21.097  0.00  0.00     0.083 H 
ATOM     69  C34 non d ame     -30.273  12.659  23.087  0.00  0.00    -0.075 A 
ATOM     70  H52 non d ame     -29.112  12.489  21.279  0.00  0.00     0.083 H 
ATOM     71  H53 non d ame     -30.455  11.587  23.162  0.00  0.00     0.084 H 
ENDBRANCH  58  61
ENDBRANCH  57  58
ENDBRANCH  55  57
ENDBRANCH  52  55
ENDBRANCH  49  52
ENDBRANCH  47  49
BRANCH  47  72
ATOM     72  C24 non d ame     -32.660   7.087  22.707  0.00  0.00    -0.039 C 
ATOM     73  H35 non d ame     -33.744   7.157  22.809  0.00  0.00     0.036 H 
ATOM     74  H36 non d ame     -32.160   7.568  21.866  0.00  0.00     0.036 H 
BRANCH  72  75
ATOM     75  C25 non d ame     -32.290   5.530  22.648  0.00  0.00    -0.001 C 
ATOM     76  C26 non d ame     -31.696   5.151  21.162  0.00  0.00    -0.035 C 
ATOM     77  C27 non d ame     -32.373   4.080  20.682  0.00  0.00     0.085 C 
ATOM     78  H38 non d ame     -31.934   5.942  20.452  0.00  0.00     0.036 H 
ATOM     79  H39 non d ame     -30.673   4.787  21.250  0.00  0.00     0.036 H 
ATOM     80  N5  non d ame     -33.589   3.897  21.558  0.00  0.00    -0.049 N 
ATOM     81  H40 non d ame     -32.695   4.365  19.681  0.00  0.00     0.075 H 
ATOM     82  H41 non d ame     -31.706   3.229  20.819  0.00  0.00     0.075 H 
ATOM     83  C28 non d ame     -33.327   4.794  22.875  0.00  0.00     0.193 C 
ATOM     84  H42 non d ame     -34.369   4.290  21.051  0.00  0.00     0.280 HD
ATOM     85  H43 non d ame     -33.602   2.924  21.829  0.00  0.00     0.280 HD
ATOM     86  H44 non d ame     -33.036   4.326  23.815  0.00  0.00     0.129 H 
ATOM     87  H37 non d ame     -31.706   5.212  23.512  0.00  0.00     0.046 H 
BRANCH  83  88
ATOM     88  O6  non d ame     -34.485   5.574  23.179  0.00  0.00    -0.369 OA
ATOM     89  H45 non d ame     -34.829   5.314  24.037  0.00  0.00     0.212 HD
ENDBRANCH  83  88
ENDBRANCH  72  75
ENDBRANCH  47  72
ENDBRANCH  45  47
ENDBRANCH   1  43
BRANCH   1  90
ATOM     90  C16 non d ame     -35.225   6.330  26.805  0.00  0.00    -0.035 C 
ATOM     91  H21 non d ame     -35.888   7.001  27.350  0.00  0.00     0.037 H 
ATOM     92  H22 non d ame     -35.128   6.421  25.723  0.00  0.00     0.037 H 
BRANCH  90  93
ATOM     93  C17 non d ame     -35.739   4.882  27.081  0.00  0.00    -0.059 C 
ATOM     94  H23 non d ame     -36.069   4.461  26.131  0.00  0.00     0.038 H 
BRANCH  93  95
ATOM     95  C18 non d ame     -34.616   3.955  27.648  0.00  0.00    -0.073 C 
ATOM     96  H24 non d ame     -35.045   2.996  27.933  0.00  0.00     0.028 H 
ATOM     97  H25 non d ame     -33.854   3.799  26.884  0.00  0.00     0.028 H 
ATOM     98  H26 non d ame     -34.164   4.425  28.521  0.00  0.00     0.028 H 
ENDBRANCH  93  95
BRANCH  93  99
ATOM     99  C19 non d ame     -36.952   4.901  28.015  0.00  0.00    -0.073 C 
ATOM    100  H27 non d ame     -37.866   4.807  27.427  0.00  0.00     0.028 H 
ATOM    101  H28 non d ame     -36.885   4.069  28.716  0.00  0.00     0.028 H 
ATOM    102  H29 non d ame     -36.970   5.840  28.568  0.00  0.00     0.028 H 
ENDBRANCH  93  99
ENDBRANCH  90  93
ENDBRANCH   1  90
TORSDOF 26
ENDMDL
MODEL 16
REMARK VINA RESULT:      -6.5      3.560      7.887
REMARK  26 active torsions:
REMARK  status: ('A' for Active; 'I' for Inactive)
REMARK    1  A    between atoms: C2_2  and  C3_3 
REMARK    2  A    between atoms: C4_6  and  C5_7 
REMARK       I    between atoms: C5_7  and  N2_9 
REMARK    3  A    between atoms: N2_9  and  C6_10 
REMARK    4  A    between atoms: C6_10  and  C7_11 
REMARK    5  A    between atoms: C6_10  and  C8_13 
REMARK       I    between atoms: C7_11  and  N3_14 
REMARK    6  A    between atoms: N3_14  and  C9_15 
REMARK    7  A    between atoms: C9_15  and  C10_16 
REMARK    8  A    between atoms: C9_15  and  C11_18 
REMARK       I    between atoms: C10_16  and  N4_21 
REMARK    9  A    between atoms: C11_18  and  C12_19 
REMARK   10  A    between atoms: C11_18  and  C13_20 
REMARK   11  A    between atoms: N4_21  and  C14_22 
REMARK   12  A    between atoms: C14_22  and  C15_23 
REMARK   13  A    between atoms: C14_22  and  C16_25 
REMARK       I    between atoms: C15_23  and  N6_40 
REMARK   14  A    between atoms: C16_25  and  C17_26 
REMARK   15  A    between atoms: C17_26  and  C18_27 
REMARK   16  A    between atoms: C17_26  and  C19_28 
REMARK   17  A    between atoms: C20_29  and  C21_30 
REMARK   18  A    between atoms: C20_29  and  C24_33 
REMARK   19  A    between atoms: C20_29  and  N6_40 
REMARK   20  A    between atoms: C21_30  and  C22_31 
REMARK   21  A    between atoms: C22_31  and  C23_32 
REMARK   22  A    between atoms: C23_32  and  O8_43 
REMARK   23  A    between atoms: C24_33  and  C25_34 
REMARK   24  A    between atoms: C28_38  and  O6_39 
REMARK   25  A    between atoms: C29_42  and  O8_43 
REMARK   26  A    between atoms: C29_42  and  C35_49 
ROOT
ATOM      1  C14 non d ame     -31.565   7.115  23.520  0.00  0.00     0.089 C 
ATOM      2  H20 non d ame     -30.607   6.914  24.001  0.00  0.00     0.087 H 
ENDROOT
BRANCH   1   3
ATOM      3  N4  non d ame     -32.508   6.108  23.984  0.00  0.00    -0.346 N 
ATOM      4  C10 non d ame     -32.520   5.686  25.432  0.00  0.00     0.241 C 
ATOM      5  O4  non d ame     -31.759   6.169  26.204  0.00  0.00    -0.271 OA
ATOM      6  H19 non d ame     -33.146   5.708  23.311  0.00  0.00     0.163 HD
BRANCH   4   7
ATOM      7  C9  non d ame     -33.506   4.647  25.897  0.00  0.00     0.092 C 
ATOM      8  H11 non d ame     -32.966   3.819  26.356  0.00  0.00     0.088 H 
BRANCH   7   9
ATOM      9  N3  non d ame     -34.374   5.223  26.929  0.00  0.00    -0.346 N 
ATOM     10  C7  non d ame     -34.167   4.885  28.315  0.00  0.00     0.240 C 
ATOM     11  O3  non d ame     -33.308   4.150  28.618  0.00  0.00    -0.271 OA
ATOM     12  H10 non d ame     -35.120   5.858  26.682  0.00  0.00     0.163 HD
BRANCH  10  13
ATOM     13  C6  non d ame     -35.095   5.499  29.409  0.00  0.00     0.086 C 
ATOM     14  H6  non d ame     -35.001   4.998  30.372  0.00  0.00     0.086 H 
BRANCH  13  15
ATOM     15  N2  non d ame     -34.719   6.886  29.622  0.00  0.00    -0.343 N 
ATOM     16  C5  non d ame     -34.825   7.464  30.964  0.00  0.00     0.273 C 
ATOM     17  O2  non d ame     -35.218   6.805  31.864  0.00  0.00    -0.266 OA
ATOM     18  H5  non d ame     -34.387   7.443  28.847  0.00  0.00     0.163 HD
BRANCH  16  19
ATOM     19  C4  non d ame     -34.429   8.929  31.205  0.00  0.00     0.154 A 
ATOM     20  C1  non d ame     -33.658   9.769  30.340  0.00  0.00    -0.017 A 
ATOM     21  C2  non d ame     -33.578  11.009  31.014  0.00  0.00     0.077 A 
ATOM     22  H1  non d ame     -33.223   9.519  29.373  0.00  0.00     0.091 H 
ATOM     23  O1  non d ame     -34.231  10.884  32.133  0.00  0.00    -0.218 OA
ATOM     24  N1  non d ame     -34.736   9.679  32.266  0.00  0.00    -0.123 NA
BRANCH  21  25
ATOM     25  C3  non d ame     -32.861  12.259  30.522  0.00  0.00    -0.029 C 
ATOM     26  H2  non d ame     -31.918  12.371  31.055  0.00  0.00     0.036 H 
ATOM     27  H3  non d ame     -32.665  12.167  29.453  0.00  0.00     0.036 H 
ATOM     28  H4  non d ame     -33.487  13.132  30.703  0.00  0.00     0.036 H 
ENDBRANCH  21  25
ENDBRANCH  16  19
ENDBRANCH  13  15
BRANCH  13  29
ATOM     29  C8  non d ame     -36.531   5.417  28.956  0.00  0.00    -0.049 C 
ATOM     30  H7  non d ame     -36.777   4.384  28.712  0.00  0.00     0.030 H 
ATOM     31  H8  non d ame     -37.184   5.767  29.755  0.00  0.00     0.030 H 
ATOM     32  H9  non d ame     -36.670   6.042  28.073  0.00  0.00     0.030 H 
ENDBRANCH  13  29
ENDBRANCH  10  13
ENDBRANCH   7   9
BRANCH   7  33
ATOM     33  C11 non d ame     -34.376   4.182  24.692  0.00  0.00    -0.033 C 
ATOM     34  H12 non d ame     -34.336   4.967  23.936  0.00  0.00     0.042 H 
BRANCH  33  35
ATOM     35  C12 non d ame     -33.805   2.881  24.048  0.00  0.00    -0.071 C 
ATOM     36  H13 non d ame     -34.242   2.011  24.538  0.00  0.00     0.028 H 
ATOM     37  H14 non d ame     -34.052   2.862  22.987  0.00  0.00     0.028 H 
ATOM     38  H15 non d ame     -32.722   2.860  24.170  0.00  0.00     0.028 H 
ENDBRANCH  33  35
BRANCH  33  39
ATOM     39  C13 non d ame     -35.868   3.996  25.118  0.00  0.00    -0.071 C 
ATOM     40  H16 non d ame     -36.252   3.066  24.700  0.00  0.00     0.028 H 
ATOM     41  H17 non d ame     -35.933   3.961  26.206  0.00  0.00     0.028 H 
ATOM     42  H18 non d ame     -36.459   4.833  24.746  0.00  0.00     0.028 H 
ENDBRANCH  33  39
ENDBRANCH   7  33
ENDBRANCH   4   7
ENDBRANCH   1   3
BRANCH   1  43
ATOM     43  C15 non d ame     -32.122   8.521  23.884  0.00  0.00     0.240 C 
ATOM     44  O5  non d ame     -32.824   9.095  23.116  0.00  0.00    -0.271 OA
ATOM     45  N6  non d ame     -31.788   9.147  25.195  0.00  0.00    -0.355 N 
ATOM     46  H46 non d ame     -31.196   8.667  25.857  0.00  0.00     0.162 HD
BRANCH  45  47
ATOM     47  C20 non d ame     -32.326  10.484  25.526  0.00  0.00     0.013 C 
ATOM     48  H30 non d ame     -32.926  10.823  24.682  0.00  0.00     0.072 H 
BRANCH  47  49
ATOM     49  C21 non d ame     -31.179  11.440  25.763  0.00  0.00    -0.038 C 
ATOM     50  H31 non d ame     -30.306  10.814  25.947  0.00  0.00     0.036 H 
ATOM     51  H32 non d ame     -31.189  12.127  24.916  0.00  0.00     0.036 H 
BRANCH  49  52
ATOM     52  C22 non d ame     -31.371  12.305  27.028  0.00  0.00     0.018 C 
ATOM     53  H33 non d ame     -32.347  12.030  27.428  0.00  0.00     0.048 H 
ATOM     54  H34 non d ame     -30.473  12.154  27.628  0.00  0.00     0.048 H 
BRANCH  52  55
ATOM     55  C23 non d ame     -31.441  13.830  26.739  0.00  0.00     0.259 C 
ATOM     56  O7  non d ame     -32.154  14.533  27.380  0.00  0.00    -0.265 OA
BRANCH  55  57
ATOM     57  O8  non d ame     -30.653  14.378  25.689  0.00  0.00    -0.317 OA
BRANCH  57  58
ATOM     58  C29 non d ame     -31.256  15.495  25.031  0.00  0.00     0.052 C 
ATOM     59  H47 non d ame     -32.316  15.255  24.953  0.00  0.00     0.082 H 
ATOM     60  H48 non d ame     -30.936  16.375  25.589  0.00  0.00     0.082 H 
BRANCH  58  61
ATOM     61  C35 non d ame     -30.665  15.582  23.598  0.00  0.00    -0.034 A 
ATOM     62  C30 non d ame     -29.380  15.114  23.344  0.00  0.00    -0.075 A 
ATOM     63  C31 non d ame     -28.849  15.193  22.058  0.00  0.00    -0.082 A 
ATOM     64  H49 non d ame     -28.788  14.687  24.154  0.00  0.00     0.084 H 
ATOM     65  C32 non d ame     -29.609  15.744  21.022  0.00  0.00    -0.083 A 
ATOM     66  H50 non d ame     -27.842  14.824  21.862  0.00  0.00     0.083 H 
ATOM     67  C33 non d ame     -30.890  16.213  21.280  0.00  0.00    -0.082 A 
ATOM     68  H51 non d ame     -29.202  15.808  20.013  0.00  0.00     0.083 H 
ATOM     69  C34 non d ame     -31.425  16.134  22.565  0.00  0.00    -0.075 A 
ATOM     70  H52 non d ame     -31.479  16.644  20.471  0.00  0.00     0.083 H 
ATOM     71  H53 non d ame     -32.432  16.504  22.759  0.00  0.00     0.084 H 
ENDBRANCH  58  61
ENDBRANCH  57  58
ENDBRANCH  55  57
ENDBRANCH  52  55
ENDBRANCH  49  52
ENDBRANCH  47  49
BRANCH  47  72
ATOM     72  C24 non d ame     -33.186  10.397  26.786  0.00  0.00    -0.039 C 
ATOM     73  H35 non d ame     -32.908   9.455  27.262  0.00  0.00     0.036 H 
ATOM     74  H36 non d ame     -33.028  11.339  27.311  0.00  0.00     0.036 H 
BRANCH  72  75
ATOM     75  C25 non d ame     -34.746  10.306  26.434  0.00  0.00    -0.001 C 
ATOM     76  C26 non d ame     -35.592  11.363  27.368  0.00  0.00    -0.035 C 
ATOM     77  C27 non d ame     -36.614  10.700  27.960  0.00  0.00     0.085 C 
ATOM     78  H38 non d ame     -34.981  11.692  28.207  0.00  0.00     0.036 H 
ATOM     79  H39 non d ame     -36.096  12.097  26.739  0.00  0.00     0.036 H 
ATOM     80  N5  non d ame     -36.349   9.225  27.777  0.00  0.00    -0.049 N 
ATOM     81  H40 non d ame     -36.544  10.945  29.020  0.00  0.00     0.075 H 
ATOM     82  H41 non d ame     -37.505  10.973  27.395  0.00  0.00     0.075 H 
ATOM     83  C28 non d ame     -35.204   9.117  26.643  0.00  0.00     0.193 C 
ATOM     84  H42 non d ame     -35.968   8.892  28.651  0.00  0.00     0.280 HD
ATOM     85  H43 non d ame     -37.201   8.825  27.412  0.00  0.00     0.280 HD
ATOM     86  H44 non d ame     -35.459   8.821  25.625  0.00  0.00     0.129 H 
ATOM     87  H37 non d ame     -34.929  10.337  25.360  0.00  0.00     0.046 H 
BRANCH  83  88
ATOM     88  O6  non d ame     -34.181   8.211  27.060  0.00  0.00    -0.369 OA
ATOM     89  H45 non d ame     -34.227   7.411  26.530  0.00  0.00     0.212 HD
ENDBRANCH  83  88
ENDBRANCH  72  75
ENDBRANCH  47  72
ENDBRANCH  45  47
ENDBRANCH   1  43
BRANCH   1  90
ATOM     90  C16 non d ame     -31.418   6.998  22.011  0.00  0.00    -0.035 C 
ATOM     91  H21 non d ame     -31.620   7.996  21.624  0.00  0.00     0.037 H 
ATOM     92  H22 non d ame     -30.443   6.538  21.851  0.00  0.00     0.037 H 
BRANCH  90  93
ATOM     93  C17 non d ame     -32.468   6.049  21.351  0.00  0.00    -0.059 C 
ATOM     94  H23 non d ame     -33.199   5.782  22.114  0.00  0.00     0.038 H 
BRANCH  93  95
ATOM     95  C18 non d ame     -33.234   6.742  20.179  0.00  0.00    -0.073 C 
ATOM     96  H24 non d ame     -32.550   7.388  19.629  0.00  0.00     0.028 H 
ATOM     97  H25 non d ame     -33.635   5.983  19.507  0.00  0.00     0.028 H 
ATOM     98  H26 non d ame     -34.052   7.338  20.582  0.00  0.00     0.028 H 
ENDBRANCH  93  95
BRANCH  93  99
ATOM     99  C19 non d ame     -31.810   4.750  20.878  0.00  0.00    -0.073 C 
ATOM    100  H27 non d ame     -31.643   4.095  21.734  0.00  0.00     0.028 H 
ATOM    101  H28 non d ame     -32.462   4.251  20.161  0.00  0.00     0.028 H 
ATOM    102  H29 non d ame     -30.856   4.978  20.403  0.00  0.00     0.028 H 
ENDBRANCH  93  99
ENDBRANCH  90  93
ENDBRANCH   1  90
TORSDOF 26
ENDMDL
MODEL 17
REMARK VINA RESULT:      -6.5      2.787      7.826
REMARK  26 active torsions:
REMARK  status: ('A' for Active; 'I' for Inactive)
REMARK    1  A    between atoms: C2_2  and  C3_3 
REMARK    2  A    between atoms: C4_6  and  C5_7 
REMARK       I    between atoms: C5_7  and  N2_9 
REMARK    3  A    between atoms: N2_9  and  C6_10 
REMARK    4  A    between atoms: C6_10  and  C7_11 
REMARK    5  A    between atoms: C6_10  and  C8_13 
REMARK       I    between atoms: C7_11  and  N3_14 
REMARK    6  A    between atoms: N3_14  and  C9_15 
REMARK    7  A    between atoms: C9_15  and  C10_16 
REMARK    8  A    between atoms: C9_15  and  C11_18 
REMARK       I    between atoms: C10_16  and  N4_21 
REMARK    9  A    between atoms: C11_18  and  C12_19 
REMARK   10  A    between atoms: C11_18  and  C13_20 
REMARK   11  A    between atoms: N4_21  and  C14_22 
REMARK   12  A    between atoms: C14_22  and  C15_23 
REMARK   13  A    between atoms: C14_22  and  C16_25 
REMARK       I    between atoms: C15_23  and  N6_40 
REMARK   14  A    between atoms: C16_25  and  C17_26 
REMARK   15  A    between atoms: C17_26  and  C18_27 
REMARK   16  A    between atoms: C17_26  and  C19_28 
REMARK   17  A    between atoms: C20_29  and  C21_30 
REMARK   18  A    between atoms: C20_29  and  C24_33 
REMARK   19  A    between atoms: C20_29  and  N6_40 
REMARK   20  A    between atoms: C21_30  and  C22_31 
REMARK   21  A    between atoms: C22_31  and  C23_32 
REMARK   22  A    between atoms: C23_32  and  O8_43 
REMARK   23  A    between atoms: C24_33  and  C25_34 
REMARK   24  A    between atoms: C28_38  and  O6_39 
REMARK   25  A    between atoms: C29_42  and  O8_43 
REMARK   26  A    between atoms: C29_42  and  C35_49 
ROOT
ATOM      1  C14 non d ame     -34.165   9.499  24.328  0.00  0.00     0.089 C 
ATOM      2  H20 non d ame     -34.452   9.185  23.324  0.00  0.00     0.087 H 
ENDROOT
BRANCH   1   3
ATOM      3  N4  non d ame     -34.889  10.724  24.629  0.00  0.00    -0.346 N 
ATOM      4  C10 non d ame     -36.333  10.876  24.220  0.00  0.00     0.241 C 
ATOM      5  O4  non d ame     -36.890   9.998  23.648  0.00  0.00    -0.271 OA
ATOM      6  H19 non d ame     -34.396  11.461  25.114  0.00  0.00     0.163 HD
BRANCH   4   7
ATOM      7  C9  non d ame     -37.069  12.149  24.545  0.00  0.00     0.092 C 
ATOM      8  H11 non d ame     -37.614  12.020  25.480  0.00  0.00     0.088 H 
BRANCH   7   9
ATOM      9  N3  non d ame     -36.104  13.233  24.752  0.00  0.00    -0.346 N 
ATOM     10  C7  non d ame     -36.033  13.900  26.028  0.00  0.00     0.240 C 
ATOM     11  O3  non d ame     -36.746  13.579  26.899  0.00  0.00    -0.271 OA
ATOM     12  H10 non d ame     -35.483  13.522  24.009  0.00  0.00     0.163 HD
BRANCH  10  13
ATOM     13  C6  non d ame     -35.006  15.055  26.241  0.00  0.00     0.086 C 
ATOM     14  H6  non d ame     -34.498  14.996  27.204  0.00  0.00     0.086 H 
BRANCH  13  15
ATOM     15  N2  non d ame     -33.975  14.964  25.221  0.00  0.00    -0.343 N 
ATOM     16  C5  non d ame     -32.567  15.083  25.605  0.00  0.00     0.273 C 
ATOM     17  O2  non d ame     -32.274  15.255  26.737  0.00  0.00    -0.266 OA
ATOM     18  H5  non d ame     -34.234  14.819  24.255  0.00  0.00     0.163 HD
BRANCH  16  19
ATOM     19  C4  non d ame     -31.466  14.986  24.537  0.00  0.00     0.154 A 
ATOM     20  C1  non d ame     -31.060  13.818  23.817  0.00  0.00    -0.017 A 
ATOM     21  C2  non d ame     -30.024  14.259  22.964  0.00  0.00     0.077 A 
ATOM     22  H1  non d ame     -31.456  12.806  23.901  0.00  0.00     0.091 H 
ATOM     23  O1  non d ame     -29.863  15.532  23.176  0.00  0.00    -0.218 OA
ATOM     24  N1  non d ame     -30.693  15.979  24.090  0.00  0.00    -0.123 NA
BRANCH  21  25
ATOM     25  C3  non d ame     -29.242  13.401  21.978  0.00  0.00    -0.029 C 
ATOM     26  H2  non d ame     -29.508  13.683  20.960  0.00  0.00     0.036 H 
ATOM     27  H3  non d ame     -28.174  13.556  22.130  0.00  0.00     0.036 H 
ATOM     28  H4  non d ame     -29.483  12.351  22.139  0.00  0.00     0.036 H 
ENDBRANCH  21  25
ENDBRANCH  16  19
ENDBRANCH  13  15
BRANCH  13  29
ATOM     29  C8  non d ame     -35.712  16.384  26.144  0.00  0.00    -0.049 C 
ATOM     30  H7  non d ame     -35.002  17.150  25.832  0.00  0.00     0.030 H 
ATOM     31  H8  non d ame     -36.517  16.315  25.414  0.00  0.00     0.030 H 
ATOM     32  H9  non d ame     -36.125  16.648  27.118  0.00  0.00     0.030 H 
ENDBRANCH  13  29
ENDBRANCH  10  13
ENDBRANCH   7   9
BRANCH   7  33
ATOM     33  C11 non d ame     -38.013  12.518  23.363  0.00  0.00    -0.033 C 
ATOM     34  H12 non d ame     -37.989  11.691  22.653  0.00  0.00     0.042 H 
BRANCH  33  35
ATOM     35  C12 non d ame     -39.489  12.680  23.844  0.00  0.00    -0.071 C 
ATOM     36  H13 non d ame     -39.716  11.913  24.585  0.00  0.00     0.028 H 
ATOM     37  H14 non d ame     -39.620  13.665  24.289  0.00  0.00     0.028 H 
ATOM     38  H15 non d ame     -40.162  12.572  22.993  0.00  0.00     0.028 H 
ENDBRANCH  33  35
BRANCH  33  39
ATOM     39  C13 non d ame     -37.513  13.802  22.627  0.00  0.00    -0.071 C 
ATOM     40  H16 non d ame     -36.658  14.217  23.162  0.00  0.00     0.028 H 
ATOM     41  H17 non d ame     -37.216  13.545  21.610  0.00  0.00     0.028 H 
ATOM     42  H18 non d ame     -38.316  14.538  22.595  0.00  0.00     0.028 H 
ENDBRANCH  33  39
ENDBRANCH   7  33
ENDBRANCH   4   7
ENDBRANCH   1   3
BRANCH   1  43
ATOM     43  C15 non d ame     -34.526   8.433  25.402  0.00  0.00     0.240 C 
ATOM     44  O5  non d ame     -34.588   7.286  25.099  0.00  0.00    -0.271 OA
ATOM     45  N6  non d ame     -34.787   8.843  26.812  0.00  0.00    -0.355 N 
ATOM     46  H46 non d ame     -34.732   9.814  27.082  0.00  0.00     0.162 HD
BRANCH  45  47
ATOM     47  C20 non d ame     -35.128   7.818  27.821  0.00  0.00     0.013 C 
ATOM     48  H30 non d ame     -35.676   7.021  27.319  0.00  0.00     0.072 H 
BRANCH  47  49
ATOM     49  C21 non d ame     -35.991   8.442  28.895  0.00  0.00    -0.038 C 
ATOM     50  H31 non d ame     -35.754   9.505  28.883  0.00  0.00     0.036 H 
ATOM     51  H32 non d ame     -37.008   8.107  28.685  0.00  0.00     0.036 H 
BRANCH  49  52
ATOM     52  C22 non d ame     -35.648   7.933  30.311  0.00  0.00     0.018 C 
ATOM     53  H33 non d ame     -36.592   7.606  30.745  0.00  0.00     0.048 H 
ATOM     54  H34 non d ame     -34.832   7.221  30.180  0.00  0.00     0.048 H 
BRANCH  52  55
ATOM     55  C23 non d ame     -35.102   9.038  31.258  0.00  0.00     0.259 C 
ATOM     56  O7  non d ame     -34.897   8.802  32.405  0.00  0.00    -0.265 OA
BRANCH  55  57
ATOM     57  O8  non d ame     -34.863  10.342  30.742  0.00  0.00    -0.317 OA
BRANCH  57  58
ATOM     58  C29 non d ame     -33.746  11.007  31.338  0.00  0.00     0.052 C 
ATOM     59  H47 non d ame     -34.156  11.890  31.829  0.00  0.00     0.082 H 
ATOM     60  H48 non d ame     -33.228  10.249  31.925  0.00  0.00     0.082 H 
BRANCH  58  61
ATOM     61  C35 non d ame     -32.802  11.474  30.198  0.00  0.00    -0.034 A 
ATOM     62  C30 non d ame     -31.628  12.156  30.500  0.00  0.00    -0.075 A 
ATOM     63  C31 non d ame     -30.781  12.576  29.476  0.00  0.00    -0.082 A 
ATOM     64  H49 non d ame     -31.372  12.363  31.540  0.00  0.00     0.084 H 
ATOM     65  C32 non d ame     -31.112  12.312  28.144  0.00  0.00    -0.083 A 
ATOM     66  H50 non d ame     -29.860  13.109  29.716  0.00  0.00     0.083 H 
ATOM     67  C33 non d ame     -32.286  11.634  27.847  0.00  0.00    -0.082 A 
ATOM     68  H51 non d ame     -30.455  12.636  27.337  0.00  0.00     0.083 H 
ATOM     69  C34 non d ame     -33.135  11.211  28.868  0.00  0.00    -0.075 A 
ATOM     70  H52 non d ame     -32.543  11.432  26.807  0.00  0.00     0.083 H 
ATOM     71  H53 non d ame     -34.055  10.678  28.626  0.00  0.00     0.084 H 
ENDBRANCH  58  61
ENDBRANCH  57  58
ENDBRANCH  55  57
ENDBRANCH  52  55
ENDBRANCH  49  52
ENDBRANCH  47  49
BRANCH  47  72
ATOM     72  C24 non d ame     -33.850   7.267  28.451  0.00  0.00    -0.039 C 
ATOM     73  H35 non d ame     -33.034   7.808  27.971  0.00  0.00     0.036 H 
ATOM     74  H36 non d ame     -33.998   7.349  29.528  0.00  0.00     0.036 H 
BRANCH  72  75
ATOM     75  C25 non d ame     -33.647   5.713  28.119  0.00  0.00    -0.001 C 
ATOM     76  C26 non d ame     -33.905   4.813  29.471  0.00  0.00    -0.035 C 
ATOM     77  C27 non d ame     -32.851   3.983  29.649  0.00  0.00     0.085 C 
ATOM     78  H38 non d ame     -33.881   5.451  30.354  0.00  0.00     0.036 H 
ATOM     79  H39 non d ame     -34.742   4.133  29.313  0.00  0.00     0.036 H 
ATOM     80  N5  non d ame     -31.751   4.461  28.733  0.00  0.00    -0.049 N 
ATOM     81  H40 non d ame     -32.539   4.126  30.684  0.00  0.00     0.075 H 
ATOM     82  H41 non d ame     -33.191   3.003  29.314  0.00  0.00     0.075 H 
ATOM     83  C28 non d ame     -32.451   5.478  27.693  0.00  0.00     0.193 C 
ATOM     84  H42 non d ame     -31.106   4.983  29.308  0.00  0.00     0.280 HD
ATOM     85  H43 non d ame     -31.431   3.650  28.223  0.00  0.00     0.280 HD
ATOM     86  H44 non d ame     -32.663   5.166  26.670  0.00  0.00     0.129 H 
ATOM     87  H37 non d ame     -34.176   5.412  27.214  0.00  0.00     0.046 H 
BRANCH  83  88
ATOM     88  O6  non d ame     -31.677   6.673  27.575  0.00  0.00    -0.369 OA
ATOM     89  H45 non d ame     -31.268   6.705  26.707  0.00  0.00     0.212 HD
ENDBRANCH  83  88
ENDBRANCH  72  75
ENDBRANCH  47  72
ENDBRANCH  45  47
ENDBRANCH   1  43
BRANCH   1  90
ATOM     90  C16 non d ame     -32.671   9.782  24.371  0.00  0.00    -0.035 C 
ATOM     91  H21 non d ame     -32.585  10.838  24.623  0.00  0.00     0.037 H 
ATOM     92  H22 non d ame     -32.254   9.027  25.037  0.00  0.00     0.037 H 
BRANCH  90  93
ATOM     93  C17 non d ame     -31.959   9.598  22.993  0.00  0.00    -0.059 C 
ATOM     94  H23 non d ame     -32.476  10.224  22.267  0.00  0.00     0.038 H 
BRANCH  93  95
ATOM     95  C18 non d ame     -30.465  10.054  23.037  0.00  0.00    -0.073 C 
ATOM     96  H24 non d ame     -29.990   9.658  23.934  0.00  0.00     0.028 H 
ATOM     97  H25 non d ame     -29.945   9.679  22.156  0.00  0.00     0.028 H 
ATOM     98  H26 non d ame     -30.418  11.142  23.050  0.00  0.00     0.028 H 
ENDBRANCH  93  95
BRANCH  93  99
ATOM     99  C19 non d ame     -32.072   8.150  22.508  0.00  0.00    -0.073 C 
ATOM    100  H27 non d ame     -32.491   8.136  21.502  0.00  0.00     0.028 H 
ATOM    101  H28 non d ame     -31.083   7.692  22.497  0.00  0.00     0.028 H 
ATOM    102  H29 non d ame     -32.723   7.591  23.181  0.00  0.00     0.028 H 
ENDBRANCH  93  99
ENDBRANCH  90  93
ENDBRANCH   1  90
TORSDOF 26
ENDMDL
MODEL 18
REMARK VINA RESULT:      -6.5      2.190      8.647
REMARK  26 active torsions:
REMARK  status: ('A' for Active; 'I' for Inactive)
REMARK    1  A    between atoms: C2_2  and  C3_3 
REMARK    2  A    between atoms: C4_6  and  C5_7 
REMARK       I    between atoms: C5_7  and  N2_9 
REMARK    3  A    between atoms: N2_9  and  C6_10 
REMARK    4  A    between atoms: C6_10  and  C7_11 
REMARK    5  A    between atoms: C6_10  and  C8_13 
REMARK       I    between atoms: C7_11  and  N3_14 
REMARK    6  A    between atoms: N3_14  and  C9_15 
REMARK    7  A    between atoms: C9_15  and  C10_16 
REMARK    8  A    between atoms: C9_15  and  C11_18 
REMARK       I    between atoms: C10_16  and  N4_21 
REMARK    9  A    between atoms: C11_18  and  C12_19 
REMARK   10  A    between atoms: C11_18  and  C13_20 
REMARK   11  A    between atoms: N4_21  and  C14_22 
REMARK   12  A    between atoms: C14_22  and  C15_23 
REMARK   13  A    between atoms: C14_22  and  C16_25 
REMARK       I    between atoms: C15_23  and  N6_40 
REMARK   14  A    between atoms: C16_25  and  C17_26 
REMARK   15  A    between atoms: C17_26  and  C18_27 
REMARK   16  A    between atoms: C17_26  and  C19_28 
REMARK   17  A    between atoms: C20_29  and  C21_30 
REMARK   18  A    between atoms: C20_29  and  C24_33 
REMARK   19  A    between atoms: C20_29  and  N6_40 
REMARK   20  A    between atoms: C21_30  and  C22_31 
REMARK   21  A    between atoms: C22_31  and  C23_32 
REMARK   22  A    between atoms: C23_32  and  O8_43 
REMARK   23  A    between atoms: C24_33  and  C25_34 
REMARK   24  A    between atoms: C28_38  and  O6_39 
REMARK   25  A    between atoms: C29_42  and  O8_43 
REMARK   26  A    between atoms: C29_42  and  C35_49 
ROOT
ATOM      1  C14 non d ame     -37.665  13.944  25.456  0.00  0.00     0.089 C 
ATOM      2  H20 non d ame     -38.687  13.965  25.834  0.00  0.00     0.087 H 
ENDROOT
BRANCH   1   3
ATOM      3  N4  non d ame     -37.069  15.243  25.731  0.00  0.00    -0.346 N 
ATOM      4  C10 non d ame     -37.773  16.229  26.630  0.00  0.00     0.241 C 
ATOM      5  O4  non d ame     -38.819  15.954  27.118  0.00  0.00    -0.271 OA
ATOM      6  H19 non d ame     -36.179  15.458  25.304  0.00  0.00     0.163 HD
BRANCH   4   7
ATOM      7  C9  non d ame     -37.139  17.566  26.909  0.00  0.00     0.092 C 
ATOM      8  H11 non d ame     -37.342  17.851  27.942  0.00  0.00     0.088 H 
BRANCH   7   9
ATOM      9  N3  non d ame     -35.684  17.457  26.767  0.00  0.00    -0.346 N 
ATOM     10  C7  non d ame     -34.818  18.015  27.777  0.00  0.00     0.240 C 
ATOM     11  O3  non d ame     -35.275  18.555  28.709  0.00  0.00    -0.271 OA
ATOM     12  H10 non d ame     -35.275  16.995  25.967  0.00  0.00     0.163 HD
BRANCH  10  13
ATOM     13  C6  non d ame     -33.270  17.899  27.618  0.00  0.00     0.086 C 
ATOM     14  H6  non d ame     -32.725  18.496  28.349  0.00  0.00     0.086 H 
BRANCH  13  15
ATOM     15  N2  non d ame     -32.877  16.516  27.835  0.00  0.00    -0.343 N 
ATOM     16  C5  non d ame     -32.153  16.155  29.056  0.00  0.00     0.273 C 
ATOM     17  O2  non d ame     -31.890  16.984  29.856  0.00  0.00    -0.266 OA
ATOM     18  H5  non d ame     -33.103  15.815  27.144  0.00  0.00     0.163 HD
BRANCH  16  19
ATOM     19  C4  non d ame     -31.732  14.697  29.298  0.00  0.00     0.154 A 
ATOM     20  C1  non d ame     -32.563  13.619  29.741  0.00  0.00    -0.017 A 
ATOM     21  C2  non d ame     -31.704  12.500  29.803  0.00  0.00     0.077 A 
ATOM     22  H1  non d ame     -33.627  13.646  29.980  0.00  0.00     0.091 H 
ATOM     23  O1  non d ame     -30.522  12.898  29.436  0.00  0.00    -0.218 OA
ATOM     24  N1  non d ame     -30.513  14.176  29.137  0.00  0.00    -0.123 NA
BRANCH  21  25
ATOM     25  C3  non d ame     -32.092  11.088  30.221  0.00  0.00    -0.029 C 
ATOM     26  H2  non d ame     -32.579  11.118  31.196  0.00  0.00     0.036 H 
ATOM     27  H3  non d ame     -32.778  10.667  29.486  0.00  0.00     0.036 H 
ATOM     28  H4  non d ame     -31.198  10.467  30.281  0.00  0.00     0.036 H 
ENDBRANCH  21  25
ENDBRANCH  16  19
ENDBRANCH  13  15
BRANCH  13  29
ATOM     29  C8  non d ame     -32.869  18.339  26.233  0.00  0.00    -0.049 C 
ATOM     30  H7  non d ame     -32.027  17.738  25.890  0.00  0.00     0.030 H 
ATOM     31  H8  non d ame     -33.710  18.207  25.553  0.00  0.00     0.030 H 
ATOM     32  H9  non d ame     -32.580  19.390  26.255  0.00  0.00     0.030 H 
ENDBRANCH  13  29
ENDBRANCH  10  13
ENDBRANCH   7   9
BRANCH   7  33
ATOM     33  C11 non d ame     -37.679  18.617  25.895  0.00  0.00    -0.033 C 
ATOM     34  H12 non d ame     -38.669  18.290  25.579  0.00  0.00     0.042 H 
BRANCH  33  35
ATOM     35  C12 non d ame     -37.840  20.019  26.562  0.00  0.00    -0.071 C 
ATOM     36  H13 non d ame     -37.608  20.796  25.833  0.00  0.00     0.028 H 
ATOM     37  H14 non d ame     -38.865  20.141  26.910  0.00  0.00     0.028 H 
ATOM     38  H15 non d ame     -37.157  20.100  27.407  0.00  0.00     0.028 H 
ENDBRANCH  33  35
BRANCH  33  39
ATOM     39  C13 non d ame     -36.767  18.693  24.629  0.00  0.00    -0.071 C 
ATOM     40  H16 non d ame     -37.314  19.171  23.816  0.00  0.00     0.028 H 
ATOM     41  H17 non d ame     -35.874  19.275  24.859  0.00  0.00     0.028 H 
ATOM     42  H18 non d ame     -36.477  17.686  24.329  0.00  0.00     0.028 H 
ENDBRANCH  33  39
ENDBRANCH   7  33
ENDBRANCH   4   7
ENDBRANCH   1   3
BRANCH   1  43
ATOM     43  C15 non d ame     -36.804  12.848  26.147  0.00  0.00     0.240 C 
ATOM     44  O5  non d ame     -37.045  12.526  27.265  0.00  0.00    -0.271 OA
ATOM     45  N6  non d ame     -35.685  12.194  25.412  0.00  0.00    -0.355 N 
ATOM     46  H46 non d ame     -35.473  12.456  24.460  0.00  0.00     0.162 HD
BRANCH  45  47
ATOM     47  C20 non d ame     -34.877  11.153  26.083  0.00  0.00     0.013 C 
ATOM     48  H30 non d ame     -35.543  10.570  26.719  0.00  0.00     0.072 H 
BRANCH  47  49
ATOM     49  C21 non d ame     -33.807  11.814  26.922  0.00  0.00    -0.038 C 
ATOM     50  H31 non d ame     -34.337  12.317  27.731  0.00  0.00     0.036 H 
ATOM     51  H32 non d ame     -33.084  11.029  27.148  0.00  0.00     0.036 H 
BRANCH  49  52
ATOM     52  C22 non d ame     -33.037  12.911  26.156  0.00  0.00     0.018 C 
ATOM     53  H33 non d ame     -33.416  12.879  25.135  0.00  0.00     0.048 H 
ATOM     54  H34 non d ame     -33.145  13.818  26.750  0.00  0.00     0.048 H 
BRANCH  52  55
ATOM     55  C23 non d ame     -31.509  12.647  26.053  0.00  0.00     0.259 C 
ATOM     56  O7  non d ame     -31.054  11.599  26.379  0.00  0.00    -0.265 OA
BRANCH  55  57
ATOM     57  O8  non d ame     -30.654  13.679  25.575  0.00  0.00    -0.317 OA
BRANCH  57  58
ATOM     58  C29 non d ame     -31.348  14.793  25.007  0.00  0.00     0.052 C 
ATOM     59  H47 non d ame     -32.403  14.521  25.019  0.00  0.00     0.082 H 
ATOM     60  H48 non d ame     -31.005  15.668  25.559  0.00  0.00     0.082 H 
BRANCH  58  61
ATOM     61  C35 non d ame     -30.895  14.936  23.529  0.00  0.00    -0.034 A 
ATOM     62  C30 non d ame     -30.047  13.988  22.966  0.00  0.00    -0.075 A 
ATOM     63  C31 non d ame     -29.640  14.117  21.639  0.00  0.00    -0.082 A 
ATOM     64  H49 non d ame     -29.701  13.145  23.564  0.00  0.00     0.084 H 
ATOM     65  C32 non d ame     -30.082  15.200  20.875  0.00  0.00    -0.083 A 
ATOM     66  H50 non d ame     -28.976  13.371  21.200  0.00  0.00     0.083 H 
ATOM     67  C33 non d ame     -30.926  16.145  21.442  0.00  0.00    -0.082 A 
ATOM     68  H51 non d ame     -29.769  15.308  19.836  0.00  0.00     0.083 H 
ATOM     69  C34 non d ame     -31.337  16.020  22.768  0.00  0.00    -0.075 A 
ATOM     70  H52 non d ame     -31.268  16.990  20.844  0.00  0.00     0.083 H 
ATOM     71  H53 non d ame     -32.001  16.765  23.206  0.00  0.00     0.084 H 
ENDBRANCH  58  61
ENDBRANCH  57  58
ENDBRANCH  55  57
ENDBRANCH  52  55
ENDBRANCH  49  52
ENDBRANCH  47  49
BRANCH  47  72
ATOM     72  C24 non d ame     -34.221  10.254  25.036  0.00  0.00    -0.039 C 
ATOM     73  H35 non d ame     -34.931  10.205  24.210  0.00  0.00     0.036 H 
ATOM     74  H36 non d ame     -33.227  10.671  24.877  0.00  0.00     0.036 H 
BRANCH  72  75
ATOM     75  C25 non d ame     -34.025   8.759  25.578  0.00  0.00    -0.001 C 
ATOM     76  C26 non d ame     -34.520   8.662  27.144  0.00  0.00    -0.035 C 
ATOM     77  C27 non d ame     -33.535   8.090  27.878  0.00  0.00     0.085 C 
ATOM     78  H38 non d ame     -34.608   9.660  27.570  0.00  0.00     0.036 H 
ATOM     79  H39 non d ame     -35.346   7.956  27.232  0.00  0.00     0.036 H 
ATOM     80  N5  non d ame     -32.291   8.088  27.022  0.00  0.00    -0.049 N 
ATOM     81  H40 non d ame     -33.381   8.756  28.727  0.00  0.00     0.075 H 
ATOM     82  H41 non d ame     -33.854   7.062  28.042  0.00  0.00     0.075 H 
ATOM     83  C28 non d ame     -32.787   8.398  25.517  0.00  0.00     0.193 C 
ATOM     84  H42 non d ame     -31.724   8.861  27.340  0.00  0.00     0.280 HD
ATOM     85  H43 non d ame     -31.925   7.147  27.053  0.00  0.00     0.280 HD
ATOM     86  H44 non d ame     -32.850   7.599  24.779  0.00  0.00     0.129 H 
ATOM     87  H37 non d ame     -34.419   8.014  24.887  0.00  0.00     0.046 H 
BRANCH  83  88
ATOM     88  O6  non d ame     -31.962   9.402  24.924  0.00  0.00    -0.369 OA
ATOM     89  H45 non d ame     -32.409   9.774  24.160  0.00  0.00     0.212 HD
ENDBRANCH  83  88
ENDBRANCH  72  75
ENDBRANCH  47  72
ENDBRANCH  45  47
ENDBRANCH   1  43
BRANCH   1  90
ATOM     90  C16 non d ame     -37.676  13.713  23.953  0.00  0.00    -0.035 C 
ATOM     91  H21 non d ame     -37.401  14.670  23.511  0.00  0.00     0.037 H 
ATOM     92  H22 non d ame     -37.048  12.836  23.791  0.00  0.00     0.037 H 
BRANCH  90  93
ATOM     93  C17 non d ame     -39.087  13.356  23.385  0.00  0.00    -0.059 C 
ATOM     94  H23 non d ame     -39.196  13.863  22.427  0.00  0.00     0.038 H 
BRANCH  93  95
ATOM     95  C18 non d ame     -39.250  11.822  23.133  0.00  0.00    -0.073 C 
ATOM     96  H24 non d ame     -38.268  11.367  23.014  0.00  0.00     0.028 H 
ATOM     97  H25 non d ame     -39.760  11.367  23.982  0.00  0.00     0.028 H 
ATOM     98  H26 non d ame     -39.837  11.663  22.229  0.00  0.00     0.028 H 
ENDBRANCH  93  95
BRANCH  93  99
ATOM     99  C19 non d ame     -40.194  13.878  24.304  0.00  0.00    -0.073 C 
ATOM    100  H27 non d ame     -39.826  14.736  24.866  0.00  0.00     0.028 H 
ATOM    101  H28 non d ame     -41.054  14.178  23.704  0.00  0.00     0.028 H 
ATOM    102  H29 non d ame     -40.493  13.091  24.997  0.00  0.00     0.028 H 
ENDBRANCH  93  99
ENDBRANCH  90  93
ENDBRANCH   1  90
TORSDOF 26
ENDMDL
MODEL 19
REMARK VINA RESULT:      -6.5      3.203      8.490
REMARK  26 active torsions:
REMARK  status: ('A' for Active; 'I' for Inactive)
REMARK    1  A    between atoms: C2_2  and  C3_3 
REMARK    2  A    between atoms: C4_6  and  C5_7 
REMARK       I    between atoms: C5_7  and  N2_9 
REMARK    3  A    between atoms: N2_9  and  C6_10 
REMARK    4  A    between atoms: C6_10  and  C7_11 
REMARK    5  A    between atoms: C6_10  and  C8_13 
REMARK       I    between atoms: C7_11  and  N3_14 
REMARK    6  A    between atoms: N3_14  and  C9_15 
REMARK    7  A    between atoms: C9_15  and  C10_16 
REMARK    8  A    between atoms: C9_15  and  C11_18 
REMARK       I    between atoms: C10_16  and  N4_21 
REMARK    9  A    between atoms: C11_18  and  C12_19 
REMARK   10  A    between atoms: C11_18  and  C13_20 
REMARK   11  A    between atoms: N4_21  and  C14_22 
REMARK   12  A    between atoms: C14_22  and  C15_23 
REMARK   13  A    between atoms: C14_22  and  C16_25 
REMARK       I    between atoms: C15_23  and  N6_40 
REMARK   14  A    between atoms: C16_25  and  C17_26 
REMARK   15  A    between atoms: C17_26  and  C18_27 
REMARK   16  A    between atoms: C17_26  and  C19_28 
REMARK   17  A    between atoms: C20_29  and  C21_30 
REMARK   18  A    between atoms: C20_29  and  C24_33 
REMARK   19  A    between atoms: C20_29  and  N6_40 
REMARK   20  A    between atoms: C21_30  and  C22_31 
REMARK   21  A    between atoms: C22_31  and  C23_32 
REMARK   22  A    between atoms: C23_32  and  O8_43 
REMARK   23  A    between atoms: C24_33  and  C25_34 
REMARK   24  A    between atoms: C28_38  and  O6_39 
REMARK   25  A    between atoms: C29_42  and  O8_43 
REMARK   26  A    between atoms: C29_42  and  C35_49 
ROOT
ATOM      1  C14 non d ame     -35.231   8.606  27.192  0.00  0.00     0.089 C 
ATOM      2  H20 non d ame     -35.114   7.868  27.986  0.00  0.00     0.087 H 
ENDROOT
BRANCH   1   3
ATOM      3  N4  non d ame     -34.190   9.607  27.367  0.00  0.00    -0.346 N 
ATOM      4  C10 non d ame     -33.480   9.746  28.690  0.00  0.00     0.241 C 
ATOM      5  O4  non d ame     -33.767   9.041  29.601  0.00  0.00    -0.271 OA
ATOM      6  H19 non d ame     -33.962  10.198  26.580  0.00  0.00     0.163 HD
BRANCH   4   7
ATOM      7  C9  non d ame     -32.401  10.784  28.852  0.00  0.00     0.092 C 
ATOM      8  H11 non d ame     -31.489  10.430  28.371  0.00  0.00     0.088 H 
BRANCH   7   9
ATOM      9  N3  non d ame     -32.802  12.016  28.167  0.00  0.00    -0.346 N 
ATOM     10  C7  non d ame     -32.004  12.529  27.080  0.00  0.00     0.240 C 
ATOM     11  O3  non d ame     -31.036  11.963  26.745  0.00  0.00    -0.271 OA
ATOM     12  H10 non d ame     -33.633  12.517  28.447  0.00  0.00     0.163 HD
BRANCH  10  13
ATOM     13  C6  non d ame     -32.434  13.843  26.357  0.00  0.00     0.086 C 
ATOM     14  H6  non d ame     -32.005  14.735  26.814  0.00  0.00     0.086 H 
BRANCH  13  15
ATOM     15  N2  non d ame     -31.955  13.806  24.986  0.00  0.00    -0.343 N 
ATOM     16  C5  non d ame     -31.216  14.950  24.449  0.00  0.00     0.273 C 
ATOM     17  O2  non d ame     -31.015  15.897  25.127  0.00  0.00    -0.266 OA
ATOM     18  H5  non d ame     -32.133  12.993  24.413  0.00  0.00     0.163 HD
BRANCH  16  19
ATOM     19  C4  non d ame     -30.701  14.923  23.001  0.00  0.00     0.154 A 
ATOM     20  C1  non d ame     -31.226  15.647  21.883  0.00  0.00    -0.017 A 
ATOM     21  C2  non d ame     -30.406  15.278  20.794  0.00  0.00     0.077 A 
ATOM     22  H1  non d ame     -32.073  16.334  21.865  0.00  0.00     0.091 H 
ATOM     23  O1  non d ame     -29.517  14.442  21.244  0.00  0.00    -0.218 OA
ATOM     24  N1  non d ame     -29.669  14.219  22.529  0.00  0.00    -0.123 NA
BRANCH  21  25
ATOM     25  C3  non d ame     -30.539  15.769  19.358  0.00  0.00    -0.029 C 
ATOM     26  H2  non d ame     -30.256  16.820  19.306  0.00  0.00     0.036 H 
ATOM     27  H3  non d ame     -29.884  15.185  18.713  0.00  0.00     0.036 H 
ATOM     28  H4  non d ame     -31.571  15.654  19.028  0.00  0.00     0.036 H 
ENDBRANCH  21  25
ENDBRANCH  16  19
ENDBRANCH  13  15
BRANCH  13  29
ATOM     29  C8  non d ame     -33.937  13.962  26.376  0.00  0.00    -0.049 C 
ATOM     30  H7  non d ame     -34.234  14.694  27.127  0.00  0.00     0.030 H 
ATOM     31  H8  non d ame     -34.288  14.284  25.396  0.00  0.00     0.030 H 
ATOM     32  H9  non d ame     -34.375  12.993  26.619  0.00  0.00     0.030 H 
ENDBRANCH  13  29
ENDBRANCH  10  13
ENDBRANCH   7   9
BRANCH   7  33
ATOM     33  C11 non d ame     -32.188  11.080  30.365  0.00  0.00    -0.033 C 
ATOM     34  H12 non d ame     -32.099  10.122  30.878  0.00  0.00     0.042 H 
BRANCH  33  35
ATOM     35  C12 non d ame     -30.864  11.869  30.609  0.00  0.00    -0.071 C 
ATOM     36  H13 non d ame     -30.028  11.170  30.656  0.00  0.00     0.028 H 
ATOM     37  H14 non d ame     -30.705  12.573  29.793  0.00  0.00     0.028 H 
ATOM     38  H15 non d ame     -30.934  12.413  31.551  0.00  0.00     0.028 H 
ENDBRANCH  33  35
BRANCH  33  39
ATOM     39  C13 non d ame     -33.417  11.836  30.965  0.00  0.00    -0.071 C 
ATOM     40  H16 non d ame     -34.078  11.122  31.457  0.00  0.00     0.028 H 
ATOM     41  H17 non d ame     -33.071  12.572  31.691  0.00  0.00     0.028 H 
ATOM     42  H18 non d ame     -33.958  12.342  30.166  0.00  0.00     0.028 H 
ENDBRANCH  33  39
ENDBRANCH   7  33
ENDBRANCH   4   7
ENDBRANCH   1   3
BRANCH   1  43
ATOM     43  C15 non d ame     -35.080   7.975  25.778  0.00  0.00     0.240 C 
ATOM     44  O5  non d ame     -36.043   7.598  25.193  0.00  0.00    -0.271 OA
ATOM     45  N6  non d ame     -33.734   7.851  25.149  0.00  0.00    -0.355 N 
ATOM     46  H46 non d ame     -32.909   8.172  25.634  0.00  0.00     0.162 HD
BRANCH  45  47
ATOM     47  C20 non d ame     -33.607   7.250  23.803  0.00  0.00     0.013 C 
ATOM     48  H30 non d ame     -34.609   7.004  23.450  0.00  0.00     0.072 H 
BRANCH  47  49
ATOM     49  C21 non d ame     -32.768   5.996  23.893  0.00  0.00    -0.038 C 
ATOM     50  H31 non d ame     -32.235   5.929  22.944  0.00  0.00     0.036 H 
ATOM     51  H32 non d ame     -32.211   6.081  24.826  0.00  0.00     0.036 H 
BRANCH  49  52
ATOM     52  C22 non d ame     -33.618   4.712  24.008  0.00  0.00     0.018 C 
ATOM     53  H33 non d ame     -34.618   4.990  23.676  0.00  0.00     0.048 H 
ATOM     54  H34 non d ame     -33.062   3.941  23.475  0.00  0.00     0.048 H 
BRANCH  52  55
ATOM     55  C23 non d ame     -33.779   4.196  25.464  0.00  0.00     0.259 C 
ATOM     56  O7  non d ame     -33.351   3.132  25.778  0.00  0.00    -0.265 OA
BRANCH  55  57
ATOM     57  O8  non d ame     -34.456   5.004  26.419  0.00  0.00    -0.317 OA
BRANCH  57  58
ATOM     58  C29 non d ame     -34.002   4.820  27.763  0.00  0.00     0.052 C 
ATOM     59  H47 non d ame     -33.783   3.757  27.858  0.00  0.00     0.082 H 
ATOM     60  H48 non d ame     -33.211   5.555  27.910  0.00  0.00     0.082 H 
BRANCH  58  61
ATOM     61  C35 non d ame     -35.177   5.167  28.717  0.00  0.00    -0.034 A 
ATOM     62  C30 non d ame     -36.491   5.009  28.289  0.00  0.00    -0.075 A 
ATOM     63  C31 non d ame     -37.546   5.320  29.145  0.00  0.00    -0.082 A 
ATOM     64  H49 non d ame     -36.695   4.643  27.282  0.00  0.00     0.084 H 
ATOM     65  C32 non d ame     -37.283   5.793  30.434  0.00  0.00    -0.083 A 
ATOM     66  H50 non d ame     -38.575   5.195  28.807  0.00  0.00     0.083 H 
ATOM     67  C33 non d ame     -35.970   5.951  30.855  0.00  0.00    -0.082 A 
ATOM     68  H51 non d ame     -38.102   6.038  31.110  0.00  0.00     0.083 H 
ATOM     69  C34 non d ame     -34.912   5.640  30.004  0.00  0.00    -0.075 A 
ATOM     70  H52 non d ame     -35.768   6.322  31.861  0.00  0.00     0.083 H 
ATOM     71  H53 non d ame     -33.884   5.766  30.342  0.00  0.00     0.084 H 
ENDBRANCH  58  61
ENDBRANCH  57  58
ENDBRANCH  55  57
ENDBRANCH  52  55
ENDBRANCH  49  52
ENDBRANCH  47  49
BRANCH  47  72
ATOM     72  C24 non d ame     -32.940   8.244  22.855  0.00  0.00    -0.039 C 
ATOM     73  H35 non d ame     -32.851   7.721  21.902  0.00  0.00     0.036 H 
ATOM     74  H36 non d ame     -33.535   9.155  22.923  0.00  0.00     0.036 H 
BRANCH  72  75
ATOM     75  C25 non d ame     -31.456   8.613  23.332  0.00  0.00    -0.001 C 
ATOM     76  C26 non d ame     -31.384  10.197  23.767  0.00  0.00    -0.035 C 
ATOM     77  C27 non d ame     -30.348  10.781  23.120  0.00  0.00     0.085 C 
ATOM     78  H38 non d ame     -32.256  10.729  23.385  0.00  0.00     0.036 H 
ATOM     79  H39 non d ame     -31.110  10.284  24.818  0.00  0.00     0.036 H 
ATOM     80  N5  non d ame     -29.909   9.826  22.037  0.00  0.00    -0.049 N 
ATOM     81  H40 non d ame     -30.762  11.677  22.657  0.00  0.00     0.075 H 
ATOM     82  H41 non d ame     -29.554  10.868  23.860  0.00  0.00     0.075 H 
ATOM     83  C28 non d ame     -30.597   8.409  22.389  0.00  0.00     0.193 C 
ATOM     84  H42 non d ame     -30.304  10.170  21.174  0.00  0.00     0.280 HD
ATOM     85  H43 non d ame     -28.907   9.729  22.131  0.00  0.00     0.280 HD
ATOM     86  H44 non d ame     -30.010   7.601  22.827  0.00  0.00     0.129 H 
ATOM     87  H37 non d ame     -31.057   7.886  24.040  0.00  0.00     0.046 H 
BRANCH  83  88
ATOM     88  O6  non d ame     -31.202   7.851  21.221  0.00  0.00    -0.369 OA
ATOM     89  H45 non d ame     -32.156   7.945  21.279  0.00  0.00     0.212 HD
ENDBRANCH  83  88
ENDBRANCH  72  75
ENDBRANCH  47  72
ENDBRANCH  45  47
ENDBRANCH   1  43
BRANCH   1  90
ATOM     90  C16 non d ame     -36.590   9.277  27.310  0.00  0.00    -0.035 C 
ATOM     91  H21 non d ame     -36.387  10.347  27.279  0.00  0.00     0.037 H 
ATOM     92  H22 non d ame     -37.207   8.817  26.538  0.00  0.00     0.037 H 
BRANCH  90  93
ATOM     93  C17 non d ame     -37.308   9.005  28.670  0.00  0.00    -0.059 C 
ATOM     94  H23 non d ame     -36.871   8.104  29.100  0.00  0.00     0.038 H 
BRANCH  93  95
ATOM     95  C18 non d ame     -37.100  10.169  29.690  0.00  0.00    -0.073 C 
ATOM     96  H24 non d ame     -36.072  10.525  29.631  0.00  0.00     0.028 H 
ATOM     97  H25 non d ame     -37.781  10.987  29.452  0.00  0.00     0.028 H 
ATOM     98  H26 non d ame     -37.303   9.809  30.698  0.00  0.00     0.028 H 
ENDBRANCH  93  95
BRANCH  93  99
ATOM     99  C19 non d ame     -38.799   8.728  28.455  0.00  0.00    -0.073 C 
ATOM    100  H27 non d ame     -39.167   8.082  29.252  0.00  0.00     0.028 H 
ATOM    101  H28 non d ame     -39.349   9.670  28.467  0.00  0.00     0.028 H 
ATOM    102  H29 non d ame     -38.942   8.237  27.493  0.00  0.00     0.028 H 
ENDBRANCH  93  99
ENDBRANCH  90  93
ENDBRANCH   1  90
TORSDOF 26
ENDMDL
MODEL 20
REMARK VINA RESULT:      -6.4      2.883      7.933
REMARK  26 active torsions:
REMARK  status: ('A' for Active; 'I' for Inactive)
REMARK    1  A    between atoms: C2_2  and  C3_3 
REMARK    2  A    between atoms: C4_6  and  C5_7 
REMARK       I    between atoms: C5_7  and  N2_9 
REMARK    3  A    between atoms: N2_9  and  C6_10 
REMARK    4  A    between atoms: C6_10  and  C7_11 
REMARK    5  A    between atoms: C6_10  and  C8_13 
REMARK       I    between atoms: C7_11  and  N3_14 
REMARK    6  A    between atoms: N3_14  and  C9_15 
REMARK    7  A    between atoms: C9_15  and  C10_16 
REMARK    8  A    between atoms: C9_15  and  C11_18 
REMARK       I    between atoms: C10_16  and  N4_21 
REMARK    9  A    between atoms: C11_18  and  C12_19 
REMARK   10  A    between atoms: C11_18  and  C13_20 
REMARK   11  A    between atoms: N4_21  and  C14_22 
REMARK   12  A    between atoms: C14_22  and  C15_23 
REMARK   13  A    between atoms: C14_22  and  C16_25 
REMARK       I    between atoms: C15_23  and  N6_40 
REMARK   14  A    between atoms: C16_25  and  C17_26 
REMARK   15  A    between atoms: C17_26  and  C18_27 
REMARK   16  A    between atoms: C17_26  and  C19_28 
REMARK   17  A    between atoms: C20_29  and  C21_30 
REMARK   18  A    between atoms: C20_29  and  C24_33 
REMARK   19  A    between atoms: C20_29  and  N6_40 
REMARK   20  A    between atoms: C21_30  and  C22_31 
REMARK   21  A    between atoms: C22_31  and  C23_32 
REMARK   22  A    between atoms: C23_32  and  O8_43 
REMARK   23  A    between atoms: C24_33  and  C25_34 
REMARK   24  A    between atoms: C28_38  and  O6_39 
REMARK   25  A    between atoms: C29_42  and  O8_43 
REMARK   26  A    between atoms: C29_42  and  C35_49 
ROOT
ATOM      1  C14 non d ame     -33.021   9.196  27.412  0.00  0.00     0.089 C 
ATOM      2  H20 non d ame     -32.020   8.766  27.361  0.00  0.00     0.087 H 
ENDROOT
BRANCH   1   3
ATOM      3  N4  non d ame     -32.879  10.595  27.788  0.00  0.00    -0.346 N 
ATOM      4  C10 non d ame     -31.755  11.425  27.222  0.00  0.00     0.241 C 
ATOM      5  O4  non d ame     -30.975  10.945  26.467  0.00  0.00    -0.271 OA
ATOM      6  H19 non d ame     -33.552  10.984  28.434  0.00  0.00     0.163 HD
BRANCH   4   7
ATOM      7  C9  non d ame     -31.626  12.873  27.618  0.00  0.00     0.092 C 
ATOM      8  H11 non d ame     -30.588  13.186  27.500  0.00  0.00     0.088 H 
BRANCH   7   9
ATOM      9  N3  non d ame     -32.433  13.700  26.716  0.00  0.00    -0.346 N 
ATOM     10  C7  non d ame     -31.802  14.407  25.628  0.00  0.00     0.240 C 
ATOM     11  O3  non d ame     -30.646  14.322  25.465  0.00  0.00    -0.271 OA
ATOM     12  H10 non d ame     -33.431  13.784  26.845  0.00  0.00     0.163 HD
BRANCH  10  13
ATOM     13  C6  non d ame     -32.666  15.288  24.673  0.00  0.00     0.086 C 
ATOM     14  H6  non d ame     -33.563  14.777  24.325  0.00  0.00     0.086 H 
BRANCH  13  15
ATOM     15  N2  non d ame     -33.113  16.467  25.396  0.00  0.00    -0.343 N 
ATOM     16  C5  non d ame     -34.384  16.430  26.122  0.00  0.00     0.273 C 
ATOM     17  O2  non d ame     -35.041  15.447  26.116  0.00  0.00    -0.266 OA
ATOM     18  H5  non d ame     -32.546  17.304  25.394  0.00  0.00     0.163 HD
BRANCH  16  19
ATOM     19  C4  non d ame     -34.868  17.669  26.891  0.00  0.00     0.154 A 
ATOM     20  C1  non d ame     -35.629  18.765  26.375  0.00  0.00    -0.017 A 
ATOM     21  C2  non d ame     -35.812  19.631  27.475  0.00  0.00     0.077 A 
ATOM     22  H1  non d ame     -35.992  18.910  25.357  0.00  0.00     0.091 H 
ATOM     23  O1  non d ame     -35.223  19.086  28.499  0.00  0.00    -0.218 OA
ATOM     24  N1  non d ame     -34.665  17.940  28.184  0.00  0.00    -0.123 NA
BRANCH  21  25
ATOM     25  C3  non d ame     -36.561  20.957  27.464  0.00  0.00    -0.029 C 
ATOM     26  H2  non d ame     -37.212  21.000  26.592  0.00  0.00     0.036 H 
ATOM     27  H3  non d ame     -37.161  21.043  28.370  0.00  0.00     0.036 H 
ATOM     28  H4  non d ame     -35.846  21.779  27.424  0.00  0.00     0.036 H 
ENDBRANCH  21  25
ENDBRANCH  16  19
ENDBRANCH  13  15
BRANCH  13  29
ATOM     29  C8  non d ame     -31.842  15.696  23.479  0.00  0.00    -0.049 C 
ATOM     30  H7  non d ame     -31.848  16.782  23.387  0.00  0.00     0.030 H 
ATOM     31  H8  non d ame     -30.818  15.347  23.608  0.00  0.00     0.030 H 
ATOM     32  H9  non d ame     -32.266  15.253  22.577  0.00  0.00     0.030 H 
ENDBRANCH  13  29
ENDBRANCH  10  13
ENDBRANCH   7   9
BRANCH   7  33
ATOM     33  C11 non d ame     -32.131  13.058  29.079  0.00  0.00    -0.033 C 
ATOM     34  H12 non d ame     -32.954  12.360  29.233  0.00  0.00     0.042 H 
BRANCH  33  35
ATOM     35  C12 non d ame     -31.018  12.707  30.114  0.00  0.00    -0.071 C 
ATOM     36  H13 non d ame     -31.467  12.222  30.981  0.00  0.00     0.028 H 
ATOM     37  H14 non d ame     -30.295  12.033  29.655  0.00  0.00     0.028 H 
ATOM     38  H15 non d ame     -30.514  13.620  30.430  0.00  0.00     0.028 H 
ENDBRANCH  33  35
BRANCH  33  39
ATOM     39  C13 non d ame     -32.677  14.505  29.302  0.00  0.00    -0.071 C 
ATOM     40  H16 non d ame     -32.100  15.208  28.700  0.00  0.00     0.028 H 
ATOM     41  H17 non d ame     -33.725  14.548  29.007  0.00  0.00     0.028 H 
ATOM     42  H18 non d ame     -32.586  14.769  30.356  0.00  0.00     0.028 H 
ENDBRANCH  33  39
ENDBRANCH   7  33
ENDBRANCH   4   7
ENDBRANCH   1   3
BRANCH   1  43
ATOM     43  C15 non d ame     -33.762   9.123  26.047  0.00  0.00     0.240 C 
ATOM     44  O5  non d ame     -34.736   9.780  25.867  0.00  0.00    -0.271 OA
ATOM     45  N6  non d ame     -33.252   8.241  24.959  0.00  0.00    -0.355 N 
ATOM     46  H46 non d ame     -32.423   7.682  25.098  0.00  0.00     0.162 HD
BRANCH  45  47
ATOM     47  C20 non d ame     -33.967   8.184  23.666  0.00  0.00     0.013 C 
ATOM     48  H30 non d ame     -34.843   8.828  23.738  0.00  0.00     0.072 H 
BRANCH  47  49
ATOM     49  C21 non d ame     -34.395   6.759  23.394  0.00  0.00    -0.038 C 
ATOM     50  H31 non d ame     -35.415   6.681  23.769  0.00  0.00     0.036 H 
ATOM     51  H32 non d ame     -34.188   6.586  22.337  0.00  0.00     0.036 H 
BRANCH  49  52
ATOM     52  C22 non d ame     -33.560   5.723  24.177  0.00  0.00     0.018 C 
ATOM     53  H33 non d ame     -33.301   4.947  23.457  0.00  0.00     0.048 H 
ATOM     54  H34 non d ame     -32.773   6.291  24.673  0.00  0.00     0.048 H 
BRANCH  52  55
ATOM     55  C23 non d ame     -34.350   5.009  25.309  0.00  0.00     0.259 C 
ATOM     56  O7  non d ame     -34.911   3.983  25.099  0.00  0.00    -0.265 OA
BRANCH  55  57
ATOM     57  O8  non d ame     -34.408   5.603  26.600  0.00  0.00    -0.317 OA
BRANCH  57  58
ATOM     58  C29 non d ame     -34.209   4.681  27.675  0.00  0.00     0.052 C 
ATOM     59  H47 non d ame     -34.579   3.722  27.313  0.00  0.00     0.082 H 
ATOM     60  H48 non d ame     -33.164   4.787  27.965  0.00  0.00     0.082 H 
BRANCH  58  61
ATOM     61  C35 non d ame     -35.097   5.133  28.865  0.00  0.00    -0.034 A 
ATOM     62  C30 non d ame     -34.543   5.273  30.133  0.00  0.00    -0.075 A 
ATOM     63  C31 non d ame     -35.340   5.679  31.202  0.00  0.00    -0.082 A 
ATOM     64  H49 non d ame     -33.484   5.065  30.290  0.00  0.00     0.084 H 
ATOM     65  C32 non d ame     -36.698   5.942  31.000  0.00  0.00    -0.083 A 
ATOM     66  H50 non d ame     -34.903   5.790  32.195  0.00  0.00     0.083 H 
ATOM     67  C33 non d ame     -37.247   5.797  29.733  0.00  0.00    -0.082 A 
ATOM     68  H51 non d ame     -37.328   6.260  31.830  0.00  0.00     0.083 H 
ATOM     69  C34 non d ame     -36.453   5.394  28.661  0.00  0.00    -0.075 A 
ATOM     70  H52 non d ame     -38.307   6.001  29.579  0.00  0.00     0.083 H 
ATOM     71  H53 non d ame     -36.891   5.284  27.669  0.00  0.00     0.084 H 
ENDBRANCH  58  61
ENDBRANCH  57  58
ENDBRANCH  55  57
ENDBRANCH  52  55
ENDBRANCH  49  52
ENDBRANCH  47  49
BRANCH  47  72
ATOM     72  C24 non d ame     -33.047   8.663  22.545  0.00  0.00    -0.039 C 
ATOM     73  H35 non d ame     -33.195   7.958  21.727  0.00  0.00     0.036 H 
ATOM     74  H36 non d ame     -33.284   9.717  22.405  0.00  0.00     0.036 H 
BRANCH  72  75
ATOM     75  C25 non d ame     -31.504   8.578  22.968  0.00  0.00    -0.001 C 
ATOM     76  C26 non d ame     -30.866  10.090  23.067  0.00  0.00    -0.035 C 
ATOM     77  C27 non d ame     -29.727  10.132  22.336  0.00  0.00     0.085 C 
ATOM     78  H38 non d ame     -31.518  10.804  22.563  0.00  0.00     0.036 H 
ATOM     79  H39 non d ame     -30.524  10.286  24.083  0.00  0.00     0.036 H 
ATOM     80  N5  non d ame     -29.702   8.885  21.485  0.00  0.00    -0.049 N 
ATOM     81  H40 non d ame     -29.828  11.002  21.688  0.00  0.00     0.075 H 
ATOM     82  H41 non d ame     -28.914  10.083  23.060  0.00  0.00     0.075 H 
ATOM     83  C28 non d ame     -30.820   7.900  22.108  0.00  0.00     0.193 C 
ATOM     84  H42 non d ame     -29.999   9.164  20.560  0.00  0.00     0.280 HD
ATOM     85  H43 non d ame     -28.793   8.466  21.619  0.00  0.00     0.280 HD
ATOM     86  H44 non d ame     -30.527   7.045  22.716  0.00  0.00     0.129 H 
ATOM     87  H37 non d ame     -31.345   7.916  23.820  0.00  0.00     0.046 H 
BRANCH  83  88
ATOM     88  O6  non d ame     -31.640   7.365  21.067  0.00  0.00    -0.369 OA
ATOM     89  H45 non d ame     -31.243   6.560  20.729  0.00  0.00     0.212 HD
ENDBRANCH  83  88
ENDBRANCH  72  75
ENDBRANCH  47  72
ENDBRANCH  45  47
ENDBRANCH   1  43
BRANCH   1  90
ATOM     90  C16 non d ame     -33.836   8.477  28.475  0.00  0.00    -0.035 C 
ATOM     91  H21 non d ame     -34.561   7.877  27.926  0.00  0.00     0.037 H 
ATOM     92  H22 non d ame     -33.105   7.992  29.121  0.00  0.00     0.037 H 
BRANCH  90  93
ATOM     93  C17 non d ame     -34.662   9.439  29.389  0.00  0.00    -0.059 C 
ATOM     94  H23 non d ame     -34.356  10.459  29.157  0.00  0.00     0.038 H 
BRANCH  93  95
ATOM     95  C18 non d ame     -36.198   9.330  29.122  0.00  0.00    -0.073 C 
ATOM     96  H24 non d ame     -36.433   8.332  28.754  0.00  0.00     0.028 H 
ATOM     97  H25 non d ame     -36.741   9.512  30.049  0.00  0.00     0.028 H 
ATOM     98  H26 non d ame     -36.490  10.070  28.378  0.00  0.00     0.028 H 
ENDBRANCH  93  95
BRANCH  93  99
ATOM     99  C19 non d ame     -34.347   9.193  30.867  0.00  0.00    -0.073 C 
ATOM    100  H27 non d ame     -35.029   9.777  31.485  0.00  0.00     0.028 H 
ATOM    101  H28 non d ame     -34.467   8.134  31.093  0.00  0.00     0.028 H 
ATOM    102  H29 non d ame     -33.320   9.494  31.074  0.00  0.00     0.028 H 
ENDBRANCH  93  99
ENDBRANCH  90  93
ENDBRANCH   1  90
TORSDOF 26
ENDMDL
