MODEL 1
REMARK VINA RESULT:      -7.3      0.000      0.000
REMARK  26 active torsions:
REMARK  status: ('A' for Active; 'I' for Inactive)
REMARK    1  A    between atoms: C2_2  and  C3_3 
REMARK    2  A    between atoms: C4_6  and  C5_7 
REMARK       I    between atoms: C5_7  and  N2_9 
REMARK    3  A    between atoms: N2_9  and  C6_10 
REMARK    4  A    between atoms: C6_10  and  C7_11 
REMARK    5  A    between atoms: C6_10  and  C8_13 
REMARK       I    between atoms: C7_11  and  N3_14 
REMARK    6  A    between atoms: N3_14  and  C9_15 
REMARK    7  A    between atoms: C9_15  and  C10_16 
REMARK    8  A    between atoms: C9_15  and  C11_18 
REMARK       I    between atoms: C10_16  and  N4_21 
REMARK    9  A    between atoms: C11_18  and  C12_19 
REMARK   10  A    between atoms: C11_18  and  C13_20 
REMARK   11  A    between atoms: N4_21  and  C14_22 
REMARK   12  A    between atoms: C14_22  and  C15_23 
REMARK   13  A    between atoms: C14_22  and  C16_25 
REMARK       I    between atoms: C15_23  and  N6_40 
REMARK   14  A    between atoms: C16_25  and  C17_26 
REMARK   15  A    between atoms: C17_26  and  C18_27 
REMARK   16  A    between atoms: C17_26  and  C19_28 
REMARK   17  A    between atoms: C20_29  and  C21_30 
REMARK   18  A    between atoms: C20_29  and  C24_33 
REMARK   19  A    between atoms: C20_29  and  N6_40 
REMARK   20  A    between atoms: C21_30  and  C22_31 
REMARK   21  A    between atoms: C22_31  and  C23_32 
REMARK   22  A    between atoms: C23_32  and  O8_43 
REMARK   23  A    between atoms: C24_33  and  C25_34 
REMARK   24  A    between atoms: C28_38  and  O6_39 
REMARK   25  A    between atoms: C29_42  and  O8_43 
REMARK   26  A    between atoms: C29_42  and  C35_49 
ROOT
ATOM      1  C14 non d ame     -32.957  10.543  25.716  0.00  0.00     0.089 C 
ATOM      2  H20 non d ame     -33.685  10.610  24.907  0.00  0.00     0.087 H 
ENDROOT
BRANCH   1   3
ATOM      3  N4  non d ame     -32.364   9.214  25.663  0.00  0.00    -0.346 N 
ATOM      4  C10 non d ame     -33.023   8.118  24.865  0.00  0.00     0.241 C 
ATOM      5  O4  non d ame     -34.032   8.327  24.275  0.00  0.00    -0.271 OA
ATOM      6  H19 non d ame     -31.507   9.056  26.174  0.00  0.00     0.163 HD
BRANCH   4   7
ATOM      7  C9  non d ame     -32.393   6.751  24.816  0.00  0.00     0.092 C 
ATOM      8  H11 non d ame     -31.340   6.831  25.088  0.00  0.00     0.088 H 
BRANCH   7   9
ATOM      9  N3  non d ame     -33.032   5.882  25.810  0.00  0.00    -0.346 N 
ATOM     10  C7  non d ame     -32.629   5.952  27.193  0.00  0.00     0.240 C 
ATOM     11  O3  non d ame     -31.791   6.700  27.523  0.00  0.00    -0.271 OA
ATOM     12  H10 non d ame     -33.754   5.231  25.539  0.00  0.00     0.163 HD
BRANCH  10  13
ATOM     13  C6  non d ame     -33.310   5.023  28.245  0.00  0.00     0.086 C 
ATOM     14  H6  non d ame     -32.691   4.860  29.127  0.00  0.00     0.086 H 
BRANCH  13  15
ATOM     15  N2  non d ame     -34.536   5.654  28.707  0.00  0.00    -0.343 N 
ATOM     16  C5  non d ame     -34.915   5.545  30.118  0.00  0.00     0.273 C 
ATOM     17  O2  non d ame     -34.230   4.946  30.871  0.00  0.00    -0.266 OA
ATOM     18  H5  non d ame     -35.117   6.161  28.056  0.00  0.00     0.163 HD
BRANCH  16  19
ATOM     19  C4  non d ame     -36.207   6.208  30.620  0.00  0.00     0.154 A 
ATOM     20  C1  non d ame     -36.485   7.609  30.702  0.00  0.00    -0.017 A 
ATOM     21  C2  non d ame     -37.795   7.690  31.224  0.00  0.00     0.077 A 
ATOM     22  H1  non d ame     -35.835   8.440  30.425  0.00  0.00     0.091 H 
ATOM     23  O1  non d ame     -38.212   6.473  31.414  0.00  0.00    -0.218 OA
ATOM     24  N1  non d ame     -37.303   5.590  31.070  0.00  0.00    -0.123 NA
BRANCH  21  25
ATOM     25  C3  non d ame     -38.574   8.967  31.509  0.00  0.00    -0.029 C 
ATOM     26  H2  non d ame     -38.173   9.447  32.401  0.00  0.00     0.036 H 
ATOM     27  H3  non d ame     -38.483   9.645  30.661  0.00  0.00     0.036 H 
ATOM     28  H4  non d ame     -39.625   8.724  31.669  0.00  0.00     0.036 H 
ENDBRANCH  21  25
ENDBRANCH  16  19
ENDBRANCH  13  15
BRANCH  13  29
ATOM     29  C8  non d ame     -33.621   3.689  27.615  0.00  0.00    -0.049 C 
ATOM     30  H7  non d ame     -33.796   2.950  28.397  0.00  0.00     0.030 H 
ATOM     31  H8  non d ame     -34.513   3.780  26.996  0.00  0.00     0.030 H 
ATOM     32  H9  non d ame     -32.780   3.373  26.998  0.00  0.00     0.030 H 
ENDBRANCH  13  29
ENDBRANCH  10  13
ENDBRANCH   7   9
BRANCH   7  33
ATOM     33  C11 non d ame     -32.586   6.140  23.397  0.00  0.00    -0.033 C 
ATOM     34  H12 non d ame     -33.381   6.700  22.904  0.00  0.00     0.042 H 
BRANCH  33  35
ATOM     35  C12 non d ame     -31.297   6.295  22.531  0.00  0.00    -0.071 C 
ATOM     36  H13 non d ame     -30.498   5.689  22.958  0.00  0.00     0.028 H 
ATOM     37  H14 non d ame     -31.501   5.963  21.514  0.00  0.00     0.028 H 
ATOM     38  H15 non d ame     -30.992   7.341  22.519  0.00  0.00     0.028 H 
ENDBRANCH  33  35
BRANCH  33  39
ATOM     39  C13 non d ame     -33.032   4.646  23.487  0.00  0.00    -0.071 C 
ATOM     40  H16 non d ame     -34.024   4.589  23.935  0.00  0.00     0.028 H 
ATOM     41  H17 non d ame     -33.060   4.214  22.486  0.00  0.00     0.028 H 
ATOM     42  H18 non d ame     -32.323   4.091  24.101  0.00  0.00     0.028 H 
ENDBRANCH  33  39
ENDBRANCH   7  33
ENDBRANCH   4   7
ENDBRANCH   1   3
BRANCH   1  43
ATOM     43  C15 non d ame     -31.822  11.597  25.575  0.00  0.00     0.240 C 
ATOM     44  O5  non d ame     -30.759  11.391  26.064  0.00  0.00    -0.271 OA
ATOM     45  N6  non d ame     -32.059  12.862  24.822  0.00  0.00    -0.355 N 
ATOM     46  H46 non d ame     -32.956  13.047  24.398  0.00  0.00     0.162 HD
BRANCH  45  47
ATOM     47  C20 non d ame     -30.969  13.854  24.695  0.00  0.00     0.013 C 
ATOM     48  H30 non d ame     -30.170  13.564  25.378  0.00  0.00     0.072 H 
BRANCH  47  49
ATOM     49  C21 non d ame     -31.494  15.223  25.066  0.00  0.00    -0.038 C 
ATOM     50  H31 non d ame     -31.129  15.414  26.076  0.00  0.00     0.036 H 
ATOM     51  H32 non d ame     -31.204  15.881  24.247  0.00  0.00     0.036 H 
BRANCH  49  52
ATOM     52  C22 non d ame     -33.035  15.273  25.142  0.00  0.00     0.018 C 
ATOM     53  H33 non d ame     -33.366  15.659  24.178  0.00  0.00     0.048 H 
ATOM     54  H34 non d ame     -33.348  14.281  25.469  0.00  0.00     0.048 H 
BRANCH  52  55
ATOM     55  C23 non d ame     -33.578  16.265  26.208  0.00  0.00     0.259 C 
ATOM     56  O7  non d ame     -34.458  17.017  25.940  0.00  0.00    -0.265 OA
BRANCH  55  57
ATOM     57  O8  non d ame     -33.002  16.274  27.509  0.00  0.00    -0.317 OA
BRANCH  57  58
ATOM     58  C29 non d ame     -33.625  15.373  28.428  0.00  0.00     0.052 C 
ATOM     59  H47 non d ame     -33.892  15.975  29.297  0.00  0.00     0.082 H 
ATOM     60  H48 non d ame     -34.403  14.863  27.860  0.00  0.00     0.082 H 
BRANCH  58  61
ATOM     61  C35 non d ame     -32.567  14.324  28.863  0.00  0.00    -0.034 A 
ATOM     62  C30 non d ame     -31.260  14.420  28.398  0.00  0.00    -0.075 A 
ATOM     63  C31 non d ame     -30.309  13.477  28.788  0.00  0.00    -0.082 A 
ATOM     64  H49 non d ame     -30.979  15.232  27.727  0.00  0.00     0.084 H 
ATOM     65  C32 non d ame     -30.671  12.434  29.645  0.00  0.00    -0.083 A 
ATOM     66  H50 non d ame     -29.285  13.556  28.423  0.00  0.00     0.083 H 
ATOM     67  C33 non d ame     -31.978  12.341  30.103  0.00  0.00    -0.082 A 
ATOM     68  H51 non d ame     -29.934  11.694  29.955  0.00  0.00     0.083 H 
ATOM     69  C34 non d ame     -32.931  13.282  29.718  0.00  0.00    -0.075 A 
ATOM     70  H52 non d ame     -32.258  11.525  30.770  0.00  0.00     0.083 H 
ATOM     71  H53 non d ame     -33.955  13.202  30.083  0.00  0.00     0.084 H 
ENDBRANCH  58  61
ENDBRANCH  57  58
ENDBRANCH  55  57
ENDBRANCH  52  55
ENDBRANCH  49  52
ENDBRANCH  47  49
BRANCH  47  72
ATOM     72  C24 non d ame     -30.456  13.877  23.257  0.00  0.00    -0.039 C 
ATOM     73  H35 non d ame     -29.491  13.371  23.285  0.00  0.00     0.036 H 
ATOM     74  H36 non d ame     -31.267  13.471  22.653  0.00  0.00     0.036 H 
BRANCH  72  75
ATOM     75  C25 non d ame     -30.190  15.372  22.747  0.00  0.00    -0.001 C 
ATOM     76  C26 non d ame     -31.266  15.760  21.565  0.00  0.00    -0.035 C 
ATOM     77  C27 non d ame     -30.585  16.242  20.497  0.00  0.00     0.085 C 
ATOM     78  H38 non d ame     -31.739  14.858  21.180  0.00  0.00     0.036 H 
ATOM     79  H39 non d ame     -31.878  16.606  21.879  0.00  0.00     0.036 H 
ATOM     80  N5  non d ame     -29.129  15.912  20.716  0.00  0.00    -0.049 N 
ATOM     81  H40 non d ame     -30.952  15.677  19.640  0.00  0.00     0.075 H 
ATOM     82  H41 non d ame     -30.714  17.323  20.533  0.00  0.00     0.075 H 
ATOM     83  C28 non d ame     -28.996  15.499  22.271  0.00  0.00     0.193 C 
ATOM     84  H42 non d ame     -28.930  15.101  20.149  0.00  0.00     0.280 HD
ATOM     85  H43 non d ame     -28.617  16.770  20.567  0.00  0.00     0.280 HD
ATOM     86  H44 non d ame     -28.567  16.193  22.994  0.00  0.00     0.129 H 
ATOM     87  H37 non d ame     -30.084  16.077  23.571  0.00  0.00     0.046 H 
BRANCH  83  88
ATOM     88  O6  non d ame     -28.236  14.296  22.398  0.00  0.00    -0.369 OA
ATOM     89  H45 non d ame     -27.388  14.494  22.804  0.00  0.00     0.212 HD
ENDBRANCH  83  88
ENDBRANCH  72  75
ENDBRANCH  47  72
ENDBRANCH  45  47
ENDBRANCH   1  43
BRANCH   1  90
ATOM     90  C16 non d ame     -33.657  10.721  27.054  0.00  0.00    -0.035 C 
ATOM     91  H21 non d ame     -32.915  11.176  27.709  0.00  0.00     0.037 H 
ATOM     92  H22 non d ame     -34.582  11.251  26.827  0.00  0.00     0.037 H 
BRANCH  90  93
ATOM     93  C17 non d ame     -34.073   9.374  27.728  0.00  0.00    -0.059 C 
ATOM     94  H23 non d ame     -33.516   8.574  27.239  0.00  0.00     0.038 H 
BRANCH  93  95
ATOM     95  C18 non d ame     -33.718   9.342  29.249  0.00  0.00    -0.073 C 
ATOM     96  H24 non d ame     -33.074   8.487  29.454  0.00  0.00     0.028 H 
ATOM     97  H25 non d ame     -33.198  10.261  29.520  0.00  0.00     0.028 H 
ATOM     98  H26 non d ame     -34.633   9.256  29.833  0.00  0.00     0.028 H 
ENDBRANCH  93  95
BRANCH  93  99
ATOM     99  C19 non d ame     -35.561   9.091  27.509  0.00  0.00    -0.073 C 
ATOM    100  H27 non d ame     -36.111  10.032  27.483  0.00  0.00     0.028 H 
ATOM    101  H28 non d ame     -35.697   8.565  26.564  0.00  0.00     0.028 H 
ATOM    102  H29 non d ame     -35.937   8.473  28.325  0.00  0.00     0.028 H 
ENDBRANCH  93  99
ENDBRANCH  90  93
ENDBRANCH   1  90
TORSDOF 26
ENDMDL
MODEL 2
REMARK VINA RESULT:      -7.3      2.578      7.768
REMARK  26 active torsions:
REMARK  status: ('A' for Active; 'I' for Inactive)
REMARK    1  A    between atoms: C2_2  and  C3_3 
REMARK    2  A    between atoms: C4_6  and  C5_7 
REMARK       I    between atoms: C5_7  and  N2_9 
REMARK    3  A    between atoms: N2_9  and  C6_10 
REMARK    4  A    between atoms: C6_10  and  C7_11 
REMARK    5  A    between atoms: C6_10  and  C8_13 
REMARK       I    between atoms: C7_11  and  N3_14 
REMARK    6  A    between atoms: N3_14  and  C9_15 
REMARK    7  A    between atoms: C9_15  and  C10_16 
REMARK    8  A    between atoms: C9_15  and  C11_18 
REMARK       I    between atoms: C10_16  and  N4_21 
REMARK    9  A    between atoms: C11_18  and  C12_19 
REMARK   10  A    between atoms: C11_18  and  C13_20 
REMARK   11  A    between atoms: N4_21  and  C14_22 
REMARK   12  A    between atoms: C14_22  and  C15_23 
REMARK   13  A    between atoms: C14_22  and  C16_25 
REMARK       I    between atoms: C15_23  and  N6_40 
REMARK   14  A    between atoms: C16_25  and  C17_26 
REMARK   15  A    between atoms: C17_26  and  C18_27 
REMARK   16  A    between atoms: C17_26  and  C19_28 
REMARK   17  A    between atoms: C20_29  and  C21_30 
REMARK   18  A    between atoms: C20_29  and  C24_33 
REMARK   19  A    between atoms: C20_29  and  N6_40 
REMARK   20  A    between atoms: C21_30  and  C22_31 
REMARK   21  A    between atoms: C22_31  and  C23_32 
REMARK   22  A    between atoms: C23_32  and  O8_43 
REMARK   23  A    between atoms: C24_33  and  C25_34 
REMARK   24  A    between atoms: C28_38  and  O6_39 
REMARK   25  A    between atoms: C29_42  and  O8_43 
REMARK   26  A    between atoms: C29_42  and  C35_49 
ROOT
ATOM      1  C14 non d ame     -33.713   6.867  27.703  0.00  0.00     0.089 C 
ATOM      2  H20 non d ame     -33.235   6.530  28.623  0.00  0.00     0.087 H 
ENDROOT
BRANCH   1   3
ATOM      3  N4  non d ame     -34.163   8.234  27.919  0.00  0.00    -0.346 N 
ATOM      4  C10 non d ame     -34.700   8.656  29.264  0.00  0.00     0.241 C 
ATOM      5  O4  non d ame     -34.763   7.876  30.157  0.00  0.00    -0.271 OA
ATOM      6  H19 non d ame     -34.104   8.882  27.146  0.00  0.00     0.163 HD
BRANCH   4   7
ATOM      7  C9  non d ame     -35.156  10.076  29.472  0.00  0.00     0.092 C 
ATOM      8  H11 non d ame     -35.406  10.223  30.522  0.00  0.00     0.088 H 
BRANCH   7   9
ATOM      9  N3  non d ame     -34.057  10.994  29.155  0.00  0.00    -0.346 N 
ATOM     10  C7  non d ame     -33.023  11.242  30.129  0.00  0.00     0.240 C 
ATOM     11  O3  non d ame     -33.059  10.712  31.173  0.00  0.00    -0.271 OA
ATOM     12  H10 non d ame     -34.013  11.459  28.260  0.00  0.00     0.163 HD
BRANCH  10  13
ATOM     13  C6  non d ame     -31.857  12.222  29.788  0.00  0.00     0.086 C 
ATOM     14  H6  non d ame     -31.277  11.901  28.924  0.00  0.00     0.086 H 
BRANCH  13  15
ATOM     15  N2  non d ame     -32.417  13.521  29.455  0.00  0.00    -0.343 N 
ATOM     16  C5  non d ame     -31.649  14.443  28.616  0.00  0.00     0.273 C 
ATOM     17  O2  non d ame     -30.581  14.131  28.216  0.00  0.00    -0.266 OA
ATOM     18  H5  non d ame     -33.329  13.780  29.803  0.00  0.00     0.163 HD
BRANCH  16  19
ATOM     19  C4  non d ame     -32.228  15.820  28.254  0.00  0.00     0.154 A 
ATOM     20  C1  non d ame     -32.499  16.327  26.943  0.00  0.00    -0.017 A 
ATOM     21  C2  non d ame     -33.019  17.623  27.155  0.00  0.00     0.077 A 
ATOM     22  H1  non d ame     -32.342  15.831  25.986  0.00  0.00     0.091 H 
ATOM     23  O1  non d ame     -33.041  17.826  28.440  0.00  0.00    -0.218 OA
ATOM     24  N1  non d ame     -32.585  16.788  29.102  0.00  0.00    -0.123 NA
BRANCH  21  25
ATOM     25  C3  non d ame     -33.470  18.601  26.078  0.00  0.00    -0.029 C 
ATOM     26  H2  non d ame     -32.640  19.254  25.810  0.00  0.00     0.036 H 
ATOM     27  H3  non d ame     -33.795  18.047  25.198  0.00  0.00     0.036 H 
ATOM     28  H4  non d ame     -34.297  19.201  26.456  0.00  0.00     0.036 H 
ENDBRANCH  21  25
ENDBRANCH  16  19
ENDBRANCH  13  15
BRANCH  13  29
ATOM     29  C8  non d ame     -30.937  12.345  30.976  0.00  0.00    -0.049 C 
ATOM     30  H7  non d ame     -29.918  12.517  30.629  0.00  0.00     0.030 H 
ATOM     31  H8  non d ame     -31.255  13.182  31.597  0.00  0.00     0.030 H 
ATOM     32  H9  non d ame     -30.971  11.425  31.559  0.00  0.00     0.030 H 
ENDBRANCH  13  29
ENDBRANCH  10  13
ENDBRANCH   7   9
BRANCH   7  33
ATOM     33  C11 non d ame     -36.364  10.375  28.536  0.00  0.00    -0.033 C 
ATOM     34  H12 non d ame     -36.555   9.477  27.949  0.00  0.00     0.042 H 
BRANCH  33  35
ATOM     35  C12 non d ame     -37.655  10.684  29.355  0.00  0.00    -0.071 C 
ATOM     36  H13 non d ame     -38.518  10.681  28.689  0.00  0.00     0.028 H 
ATOM     37  H14 non d ame     -37.788   9.924  30.124  0.00  0.00     0.028 H 
ATOM     38  H15 non d ame     -37.563  11.664  29.824  0.00  0.00     0.028 H 
ENDBRANCH  33  35
BRANCH  33  39
ATOM     39  C13 non d ame     -36.030  11.537  27.546  0.00  0.00    -0.071 C 
ATOM     40  H16 non d ame     -36.114  11.177  26.520  0.00  0.00     0.028 H 
ATOM     41  H17 non d ame     -36.729  12.360  27.701  0.00  0.00     0.028 H 
ATOM     42  H18 non d ame     -35.013  11.887  27.726  0.00  0.00     0.028 H 
ENDBRANCH  33  39
ENDBRANCH   7  33
ENDBRANCH   4   7
ENDBRANCH   1   3
BRANCH   1  43
ATOM     43  C15 non d ame     -32.736   6.853  26.493  0.00  0.00     0.240 C 
ATOM     44  O5  non d ame     -31.797   6.124  26.500  0.00  0.00    -0.271 OA
ATOM     45  N6  non d ame     -32.975   7.743  25.321  0.00  0.00    -0.355 N 
ATOM     46  H46 non d ame     -33.771   8.363  25.301  0.00  0.00     0.162 HD
BRANCH  45  47
ATOM     47  C20 non d ame     -32.037   7.716  24.178  0.00  0.00     0.013 C 
ATOM     48  H30 non d ame     -31.116   7.237  24.511  0.00  0.00     0.072 H 
BRANCH  47  49
ATOM     49  C21 non d ame     -31.751   9.133  23.733  0.00  0.00    -0.038 C 
ATOM     50  H31 non d ame     -30.701   9.310  23.968  0.00  0.00     0.036 H 
ATOM     51  H32 non d ame     -32.096   9.192  22.701  0.00  0.00     0.036 H 
BRANCH  49  52
ATOM     52  C22 non d ame     -32.559  10.184  24.525  0.00  0.00     0.018 C 
ATOM     53  H33 non d ame     -32.672  11.035  23.855  0.00  0.00     0.048 H 
ATOM     54  H34 non d ame     -33.441   9.661  24.896  0.00  0.00     0.048 H 
BRANCH  52  55
ATOM     55  C23 non d ame     -31.821  10.724  25.782  0.00  0.00     0.259 C 
ATOM     56  O7  non d ame     -31.971  10.204  26.839  0.00  0.00    -0.265 OA
BRANCH  55  57
ATOM     57  O8  non d ame     -30.972  11.859  25.657  0.00  0.00    -0.317 OA
BRANCH  57  58
ATOM     58  C29 non d ame     -31.631  13.027  25.159  0.00  0.00     0.052 C 
ATOM     59  H47 non d ame     -32.583  12.680  24.758  0.00  0.00     0.082 H 
ATOM     60  H48 non d ame     -31.614  13.746  25.977  0.00  0.00     0.082 H 
BRANCH  58  61
ATOM     61  C35 non d ame     -30.782  13.593  23.990  0.00  0.00    -0.034 A 
ATOM     62  C30 non d ame     -30.565  14.963  23.886  0.00  0.00    -0.075 A 
ATOM     63  C31 non d ame     -29.802  15.472  22.836  0.00  0.00    -0.082 A 
ATOM     64  H49 non d ame     -30.992  15.638  24.627  0.00  0.00     0.084 H 
ATOM     65  C32 non d ame     -29.258  14.604  21.885  0.00  0.00    -0.083 A 
ATOM     66  H50 non d ame     -29.633  16.546  22.758  0.00  0.00     0.083 H 
ATOM     67  C33 non d ame     -29.480  13.238  21.990  0.00  0.00    -0.082 A 
ATOM     68  H51 non d ame     -28.660  14.994  21.061  0.00  0.00     0.083 H 
ATOM     69  C34 non d ame     -30.239  12.725  23.040  0.00  0.00    -0.075 A 
ATOM     70  H52 non d ame     -29.056  12.564  21.245  0.00  0.00     0.083 H 
ATOM     71  H53 non d ame     -30.408  11.651  23.117  0.00  0.00     0.084 H 
ENDBRANCH  58  61
ENDBRANCH  57  58
ENDBRANCH  55  57
ENDBRANCH  52  55
ENDBRANCH  49  52
ENDBRANCH  47  49
BRANCH  47  72
ATOM     72  C24 non d ame     -32.654   6.933  23.021  0.00  0.00    -0.039 C 
ATOM     73  H35 non d ame     -31.940   6.142  22.792  0.00  0.00     0.036 H 
ATOM     74  H36 non d ame     -33.662   6.678  23.349  0.00  0.00     0.036 H 
BRANCH  72  75
ATOM     75  C25 non d ame     -32.799   7.835  21.705  0.00  0.00    -0.001 C 
ATOM     76  C26 non d ame     -34.382   8.189  21.440  0.00  0.00    -0.035 C 
ATOM     77  C27 non d ame     -34.691   7.874  20.159  0.00  0.00     0.085 C 
ATOM     78  H38 non d ame     -35.017   7.525  22.026  0.00  0.00     0.036 H 
ATOM     79  H39 non d ame     -34.537   9.267  21.481  0.00  0.00     0.036 H 
ATOM     80  N5  non d ame     -33.555   7.036  19.624  0.00  0.00    -0.049 N 
ATOM     81  H40 non d ame     -35.589   7.259  20.219  0.00  0.00     0.075 H 
ATOM     82  H41 non d ame     -34.715   8.822  19.623  0.00  0.00     0.075 H 
ATOM     83  C28 non d ame     -32.336   7.224  20.666  0.00  0.00     0.193 C 
ATOM     84  H42 non d ame     -33.865   6.075  19.662  0.00  0.00     0.280 HD
ATOM     85  H43 non d ame     -33.289   7.446  18.740  0.00  0.00     0.280 HD
ATOM     86  H44 non d ame     -31.490   7.866  20.419  0.00  0.00     0.129 H 
ATOM     87  H37 non d ame     -32.096   8.669  21.697  0.00  0.00     0.046 H 
BRANCH  83  88
ATOM     88  O6  non d ame     -31.769   5.955  20.996  0.00  0.00    -0.369 OA
ATOM     89  H45 non d ame     -31.162   5.685  20.302  0.00  0.00     0.212 HD
ENDBRANCH  83  88
ENDBRANCH  72  75
ENDBRANCH  47  72
ENDBRANCH  45  47
ENDBRANCH   1  43
BRANCH   1  90
ATOM     90  C16 non d ame     -34.918   5.991  27.398  0.00  0.00    -0.035 C 
ATOM     91  H21 non d ame     -35.777   6.534  27.790  0.00  0.00     0.037 H 
ATOM     92  H22 non d ame     -34.852   5.772  26.332  0.00  0.00     0.037 H 
BRANCH  90  93
ATOM     93  C17 non d ame     -34.893   4.614  28.134  0.00  0.00    -0.059 C 
ATOM     94  H23 non d ame     -35.858   4.483  28.623  0.00  0.00     0.038 H 
BRANCH  93  95
ATOM     95  C18 non d ame     -34.695   3.420  27.145  0.00  0.00    -0.073 C 
ATOM     96  H24 non d ame     -35.110   2.513  27.582  0.00  0.00     0.028 H 
ATOM     97  H25 non d ame     -35.206   3.637  26.207  0.00  0.00     0.028 H 
ATOM     98  H26 non d ame     -33.631   3.279  26.955  0.00  0.00     0.028 H 
ENDBRANCH  93  95
BRANCH  93  99
ATOM     99  C19 non d ame     -33.823   4.598  29.228  0.00  0.00    -0.073 C 
ATOM    100  H27 non d ame     -32.948   4.052  28.873  0.00  0.00     0.028 H 
ATOM    101  H28 non d ame     -33.538   5.621  29.473  0.00  0.00     0.028 H 
ATOM    102  H29 non d ame     -34.219   4.109  30.117  0.00  0.00     0.028 H 
ENDBRANCH  93  99
ENDBRANCH  90  93
ENDBRANCH   1  90
TORSDOF 26
ENDMDL
MODEL 3
REMARK VINA RESULT:      -7.2      3.851      8.236
REMARK  26 active torsions:
REMARK  status: ('A' for Active; 'I' for Inactive)
REMARK    1  A    between atoms: C2_2  and  C3_3 
REMARK    2  A    between atoms: C4_6  and  C5_7 
REMARK       I    between atoms: C5_7  and  N2_9 
REMARK    3  A    between atoms: N2_9  and  C6_10 
REMARK    4  A    between atoms: C6_10  and  C7_11 
REMARK    5  A    between atoms: C6_10  and  C8_13 
REMARK       I    between atoms: C7_11  and  N3_14 
REMARK    6  A    between atoms: N3_14  and  C9_15 
REMARK    7  A    between atoms: C9_15  and  C10_16 
REMARK    8  A    between atoms: C9_15  and  C11_18 
REMARK       I    between atoms: C10_16  and  N4_21 
REMARK    9  A    between atoms: C11_18  and  C12_19 
REMARK   10  A    between atoms: C11_18  and  C13_20 
REMARK   11  A    between atoms: N4_21  and  C14_22 
REMARK   12  A    between atoms: C14_22  and  C15_23 
REMARK   13  A    between atoms: C14_22  and  C16_25 
REMARK       I    between atoms: C15_23  and  N6_40 
REMARK   14  A    between atoms: C16_25  and  C17_26 
REMARK   15  A    between atoms: C17_26  and  C18_27 
REMARK   16  A    between atoms: C17_26  and  C19_28 
REMARK   17  A    between atoms: C20_29  and  C21_30 
REMARK   18  A    between atoms: C20_29  and  C24_33 
REMARK   19  A    between atoms: C20_29  and  N6_40 
REMARK   20  A    between atoms: C21_30  and  C22_31 
REMARK   21  A    between atoms: C22_31  and  C23_32 
REMARK   22  A    between atoms: C23_32  and  O8_43 
REMARK   23  A    between atoms: C24_33  and  C25_34 
REMARK   24  A    between atoms: C28_38  and  O6_39 
REMARK   25  A    between atoms: C29_42  and  O8_43 
REMARK   26  A    between atoms: C29_42  and  C35_49 
ROOT
ATOM      1  C14 non d ame     -36.507  15.985  26.500  0.00  0.00     0.089 C 
ATOM      2  H20 non d ame     -37.099  16.537  27.230  0.00  0.00     0.087 H 
ENDROOT
BRANCH   1   3
ATOM      3  N4  non d ame     -35.105  16.171  26.841  0.00  0.00    -0.346 N 
ATOM      4  C10 non d ame     -34.702  17.183  27.884  0.00  0.00     0.241 C 
ATOM      5  O4  non d ame     -35.525  17.838  28.434  0.00  0.00    -0.271 OA
ATOM      6  H19 non d ame     -34.419  15.606  26.359  0.00  0.00     0.163 HD
BRANCH   4   7
ATOM      7  C9  non d ame     -33.247  17.359  28.228  0.00  0.00     0.092 C 
ATOM      8  H11 non d ame     -33.164  17.901  29.170  0.00  0.00     0.088 H 
BRANCH   7   9
ATOM      9  N3  non d ame     -32.629  16.045  28.428  0.00  0.00    -0.346 N 
ATOM     10  C7  non d ame     -31.726  15.834  29.533  0.00  0.00     0.240 C 
ATOM     11  O3  non d ame     -31.484  16.711  30.269  0.00  0.00    -0.271 OA
ATOM     12  H10 non d ame     -32.826  15.279  27.800  0.00  0.00     0.163 HD
BRANCH  10  13
ATOM     13  C6  non d ame     -31.069  14.433  29.739  0.00  0.00     0.086 C 
ATOM     14  H6  non d ame     -30.450  14.386  30.634  0.00  0.00     0.086 H 
BRANCH  13  15
ATOM     15  N2  non d ame     -32.118  13.441  29.906  0.00  0.00    -0.343 N 
ATOM     16  C5  non d ame     -31.826  12.196  30.619  0.00  0.00     0.273 C 
ATOM     17  O2  non d ame     -30.743  12.001  31.052  0.00  0.00    -0.266 OA
ATOM     18  H5  non d ame     -33.040  13.614  29.530  0.00  0.00     0.163 HD
BRANCH  16  19
ATOM     19  C4  non d ame     -32.925  11.138  30.804  0.00  0.00     0.154 A 
ATOM     20  C1  non d ame     -33.303  10.112  29.881  0.00  0.00    -0.017 A 
ATOM     21  C2  non d ame     -34.351   9.415  30.521  0.00  0.00     0.077 A 
ATOM     22  H1  non d ame     -32.880   9.905  28.897  0.00  0.00     0.091 H 
ATOM     23  O1  non d ame     -34.544   9.981  31.676  0.00  0.00    -0.218 OA
ATOM     24  N1  non d ame     -33.725  10.989  31.864  0.00  0.00    -0.123 NA
BRANCH  21  25
ATOM     25  C3  non d ame     -35.113   8.220  29.962  0.00  0.00    -0.029 C 
ATOM     26  H2  non d ame     -34.415   7.411  29.749  0.00  0.00     0.036 H 
ATOM     27  H3  non d ame     -35.847   7.883  30.693  0.00  0.00     0.036 H 
ATOM     28  H4  non d ame     -35.622   8.512  29.044  0.00  0.00     0.036 H 
ENDBRANCH  21  25
ENDBRANCH  16  19
ENDBRANCH  13  15
BRANCH  13  29
ATOM     29  C8  non d ame     -30.221  14.092  28.540  0.00  0.00    -0.049 C 
ATOM     30  H7  non d ame     -29.255  14.590  28.625  0.00  0.00     0.030 H 
ATOM     31  H8  non d ame     -30.071  13.013  28.497  0.00  0.00     0.030 H 
ATOM     32  H9  non d ame     -30.724  14.426  27.632  0.00  0.00     0.030 H 
ENDBRANCH  13  29
ENDBRANCH  10  13
ENDBRANCH   7   9
BRANCH   7  33
ATOM     33  C11 non d ame     -32.524  18.097  27.063  0.00  0.00    -0.033 C 
ATOM     34  H12 non d ame     -31.473  18.195  27.337  0.00  0.00     0.042 H 
BRANCH  33  35
ATOM     35  C12 non d ame     -32.588  17.271  25.741  0.00  0.00    -0.071 C 
ATOM     36  H13 non d ame     -33.382  16.528  25.814  0.00  0.00     0.028 H 
ATOM     37  H14 non d ame     -32.792  17.939  24.904  0.00  0.00     0.028 H 
ATOM     38  H15 non d ame     -31.635  16.767  25.580  0.00  0.00     0.028 H 
ENDBRANCH  33  35
BRANCH  33  39
ATOM     39  C13 non d ame     -33.107  19.533  26.863  0.00  0.00    -0.071 C 
ATOM     40  H16 non d ame     -33.189  19.746  25.797  0.00  0.00     0.028 H 
ATOM     41  H17 non d ame     -34.094  19.591  27.323  0.00  0.00     0.028 H 
ATOM     42  H18 non d ame     -32.445  20.262  27.331  0.00  0.00     0.028 H 
ENDBRANCH  33  39
ENDBRANCH   7  33
ENDBRANCH   4   7
ENDBRANCH   1   3
BRANCH   1  43
ATOM     43  C15 non d ame     -36.823  14.462  26.519  0.00  0.00     0.240 C 
ATOM     44  O5  non d ame     -37.889  14.084  26.885  0.00  0.00    -0.271 OA
ATOM     45  N6  non d ame     -35.799  13.474  26.072  0.00  0.00    -0.355 N 
ATOM     46  H46 non d ame     -34.892  13.784  25.754  0.00  0.00     0.162 HD
BRANCH  45  47
ATOM     47  C20 non d ame     -36.116  12.030  26.095  0.00  0.00     0.013 C 
ATOM     48  H30 non d ame     -37.034  11.897  26.666  0.00  0.00     0.072 H 
BRANCH  47  49
ATOM     49  C21 non d ame     -34.982  11.280  26.757  0.00  0.00    -0.038 C 
ATOM     50  H31 non d ame     -34.741  11.846  27.658  0.00  0.00     0.036 H 
ATOM     51  H32 non d ame     -35.319  10.247  26.836  0.00  0.00     0.036 H 
BRANCH  49  52
ATOM     52  C22 non d ame     -33.697  11.257  25.901  0.00  0.00     0.018 C 
ATOM     53  H33 non d ame     -33.213  10.306  26.121  0.00  0.00     0.048 H 
ATOM     54  H34 non d ame     -34.017  11.483  24.883  0.00  0.00     0.048 H 
BRANCH  52  55
ATOM     55  C23 non d ame     -32.670  12.359  26.282  0.00  0.00     0.259 C 
ATOM     56  O7  non d ame     -32.984  13.256  26.995  0.00  0.00    -0.265 OA
BRANCH  55  57
ATOM     57  O8  non d ame     -31.349  12.291  25.758  0.00  0.00    -0.317 OA
BRANCH  57  58
ATOM     58  C29 non d ame     -31.290  11.948  24.371  0.00  0.00     0.052 C 
ATOM     59  H47 non d ame     -30.629  11.083  24.309  0.00  0.00     0.082 H 
ATOM     60  H48 non d ame     -32.325  11.868  24.042  0.00  0.00     0.082 H 
BRANCH  58  61
ATOM     61  C35 non d ame     -30.625  13.129  23.614  0.00  0.00    -0.034 A 
ATOM     62  C30 non d ame     -30.792  14.432  24.072  0.00  0.00    -0.075 A 
ATOM     63  C31 non d ame     -30.196  15.493  23.392  0.00  0.00    -0.082 A 
ATOM     64  H49 non d ame     -31.392  14.623  24.962  0.00  0.00     0.084 H 
ATOM     65  C32 non d ame     -29.431  15.247  22.248  0.00  0.00    -0.083 A 
ATOM     66  H50 non d ame     -30.328  16.513  23.754  0.00  0.00     0.083 H 
ATOM     67  C33 non d ame     -29.269  13.945  21.794  0.00  0.00    -0.082 A 
ATOM     68  H51 non d ame     -28.960  16.071  21.711  0.00  0.00     0.083 H 
ATOM     69  C34 non d ame     -29.862  12.882  22.471  0.00  0.00    -0.075 A 
ATOM     70  H52 non d ame     -28.674  13.757  20.900  0.00  0.00     0.083 H 
ATOM     71  H53 non d ame     -29.729  11.862  22.109  0.00  0.00     0.084 H 
ENDBRANCH  58  61
ENDBRANCH  57  58
ENDBRANCH  55  57
ENDBRANCH  52  55
ENDBRANCH  49  52
ENDBRANCH  47  49
BRANCH  47  72
ATOM     72  C24 non d ame     -36.299  11.519  24.667  0.00  0.00    -0.039 C 
ATOM     73  H35 non d ame     -35.744  12.214  24.037  0.00  0.00     0.036 H 
ATOM     74  H36 non d ame     -36.017  10.466  24.697  0.00  0.00     0.036 H 
BRANCH  72  75
ATOM     75  C25 non d ame     -37.832  11.585  24.206  0.00  0.00    -0.001 C 
ATOM     76  C26 non d ame     -38.270  10.160  23.513  0.00  0.00    -0.035 C 
ATOM     77  C27 non d ame     -38.841  10.416  22.312  0.00  0.00     0.085 C 
ATOM     78  H38 non d ame     -37.383   9.581  23.255  0.00  0.00     0.036 H 
ATOM     79  H39 non d ame     -39.076   9.698  24.084  0.00  0.00     0.036 H 
ATOM     80  N5  non d ame     -38.537  11.857  21.977  0.00  0.00    -0.049 N 
ATOM     81  H40 non d ame     -38.326   9.770  21.601  0.00  0.00     0.075 H 
ATOM     82  H41 non d ame     -39.913  10.307  22.470  0.00  0.00     0.075 H 
ATOM     83  C28 non d ame     -38.022  12.532  23.350  0.00  0.00     0.193 C 
ATOM     84  H42 non d ame     -37.771  11.842  21.319  0.00  0.00     0.280 HD
ATOM     85  H43 non d ame     -39.417  12.281  21.719  0.00  0.00     0.280 HD
ATOM     86  H44 non d ame     -38.677  13.189  23.923  0.00  0.00     0.129 H 
ATOM     87  H37 non d ame     -38.482  11.976  24.989  0.00  0.00     0.046 H 
BRANCH  83  88
ATOM     88  O6  non d ame     -36.835  13.290  23.111  0.00  0.00    -0.369 OA
ATOM     89  H45 non d ame     -36.805  13.556  22.189  0.00  0.00     0.212 HD
ENDBRANCH  83  88
ENDBRANCH  72  75
ENDBRANCH  47  72
ENDBRANCH  45  47
ENDBRANCH   1  43
BRANCH   1  90
ATOM     90  C16 non d ame     -36.758  16.542  25.108  0.00  0.00    -0.035 C 
ATOM     91  H21 non d ame     -35.770  16.664  24.663  0.00  0.00     0.037 H 
ATOM     92  H22 non d ame     -37.480  15.865  24.652  0.00  0.00     0.037 H 
BRANCH  90  93
ATOM     93  C17 non d ame     -37.418  17.957  25.108  0.00  0.00    -0.059 C 
ATOM     94  H23 non d ame     -38.026  18.039  24.208  0.00  0.00     0.038 H 
BRANCH  93  95
ATOM     95  C18 non d ame     -38.359  18.168  26.338  0.00  0.00    -0.073 C 
ATOM     96  H24 non d ame     -37.844  18.763  27.092  0.00  0.00     0.028 H 
ATOM     97  H25 non d ame     -39.262  18.687  26.021  0.00  0.00     0.028 H 
ATOM     98  H26 non d ame     -38.626  17.200  26.761  0.00  0.00     0.028 H 
ENDBRANCH  93  95
BRANCH  93  99
ATOM     99  C19 non d ame     -36.355  19.056  25.041  0.00  0.00    -0.073 C 
ATOM    100  H27 non d ame     -35.413  18.676  25.434  0.00  0.00     0.028 H 
ATOM    101  H28 non d ame     -36.218  19.366  24.004  0.00  0.00     0.028 H 
ATOM    102  H29 non d ame     -36.679  19.911  25.634  0.00  0.00     0.028 H 
ENDBRANCH  93  99
ENDBRANCH  90  93
ENDBRANCH   1  90
TORSDOF 26
ENDMDL
MODEL 4
REMARK VINA RESULT:      -7.1      1.372      2.689
REMARK  26 active torsions:
REMARK  status: ('A' for Active; 'I' for Inactive)
REMARK    1  A    between atoms: C2_2  and  C3_3 
REMARK    2  A    between atoms: C4_6  and  C5_7 
REMARK       I    between atoms: C5_7  and  N2_9 
REMARK    3  A    between atoms: N2_9  and  C6_10 
REMARK    4  A    between atoms: C6_10  and  C7_11 
REMARK    5  A    between atoms: C6_10  and  C8_13 
REMARK       I    between atoms: C7_11  and  N3_14 
REMARK    6  A    between atoms: N3_14  and  C9_15 
REMARK    7  A    between atoms: C9_15  and  C10_16 
REMARK    8  A    between atoms: C9_15  and  C11_18 
REMARK       I    between atoms: C10_16  and  N4_21 
REMARK    9  A    between atoms: C11_18  and  C12_19 
REMARK   10  A    between atoms: C11_18  and  C13_20 
REMARK   11  A    between atoms: N4_21  and  C14_22 
REMARK   12  A    between atoms: C14_22  and  C15_23 
REMARK   13  A    between atoms: C14_22  and  C16_25 
REMARK       I    between atoms: C15_23  and  N6_40 
REMARK   14  A    between atoms: C16_25  and  C17_26 
REMARK   15  A    between atoms: C17_26  and  C18_27 
REMARK   16  A    between atoms: C17_26  and  C19_28 
REMARK   17  A    between atoms: C20_29  and  C21_30 
REMARK   18  A    between atoms: C20_29  and  C24_33 
REMARK   19  A    between atoms: C20_29  and  N6_40 
REMARK   20  A    between atoms: C21_30  and  C22_31 
REMARK   21  A    between atoms: C22_31  and  C23_32 
REMARK   22  A    between atoms: C23_32  and  O8_43 
REMARK   23  A    between atoms: C24_33  and  C25_34 
REMARK   24  A    between atoms: C28_38  and  O6_39 
REMARK   25  A    between atoms: C29_42  and  O8_43 
REMARK   26  A    between atoms: C29_42  and  C35_49 
ROOT
ATOM      1  C14 non d ame     -33.118  10.778  25.792  0.00  0.00     0.089 C 
ATOM      2  H20 non d ame     -33.924  10.766  25.058  0.00  0.00     0.087 H 
ENDROOT
BRANCH   1   3
ATOM      3  N4  non d ame     -32.470   9.475  25.753  0.00  0.00    -0.346 N 
ATOM      4  C10 non d ame     -33.040   8.366  24.904  0.00  0.00     0.241 C 
ATOM      5  O4  non d ame     -34.023   8.545  24.264  0.00  0.00    -0.271 OA
ATOM      6  H19 non d ame     -31.636   9.343  26.307  0.00  0.00     0.163 HD
BRANCH   4   7
ATOM      7  C9  non d ame     -32.353   7.026  24.871  0.00  0.00     0.092 C 
ATOM      8  H11 non d ame     -31.324   7.142  25.211  0.00  0.00     0.088 H 
BRANCH   7   9
ATOM      9  N3  non d ame     -33.018   6.112  25.804  0.00  0.00    -0.346 N 
ATOM     10  C7  non d ame     -32.646   6.111  27.198  0.00  0.00     0.240 C 
ATOM     11  O3  non d ame     -31.813   6.837  27.585  0.00  0.00    -0.271 OA
ATOM     12  H10 non d ame     -33.736   5.479  25.485  0.00  0.00     0.163 HD
BRANCH  10  13
ATOM     13  C6  non d ame     -33.355   5.133  28.187  0.00  0.00     0.086 C 
ATOM     14  H6  non d ame     -32.751   4.911  29.066  0.00  0.00     0.086 H 
BRANCH  13  15
ATOM     15  N2  non d ame     -34.578   5.755  28.668  0.00  0.00    -0.343 N 
ATOM     16  C5  non d ame     -34.964   5.594  30.071  0.00  0.00     0.273 C 
ATOM     17  O2  non d ame     -34.287   4.960  30.804  0.00  0.00    -0.266 OA
ATOM     18  H5  non d ame     -35.152   6.292  28.034  0.00  0.00     0.163 HD
BRANCH  16  19
ATOM     19  C4  non d ame     -36.253   6.247  30.594  0.00  0.00     0.154 A 
ATOM     20  C1  non d ame     -36.560   7.644  30.635  0.00  0.00    -0.017 A 
ATOM     21  C2  non d ame     -37.854   7.716  31.199  0.00  0.00     0.077 A 
ATOM     22  H1  non d ame     -35.940   8.478  30.306  0.00  0.00     0.091 H 
ATOM     23  O1  non d ame     -38.236   6.498  31.448  0.00  0.00    -0.218 OA
ATOM     24  N1  non d ame     -37.319   5.623  31.104  0.00  0.00    -0.123 NA
BRANCH  21  25
ATOM     25  C3  non d ame     -38.652   8.985  31.464  0.00  0.00    -0.029 C 
ATOM     26  H2  non d ame     -38.808   9.099  32.537  0.00  0.00     0.036 H 
ATOM     27  H3  non d ame     -38.102   9.846  31.084  0.00  0.00     0.036 H 
ATOM     28  H4  non d ame     -39.617   8.920  30.961  0.00  0.00     0.036 H 
ENDBRANCH  21  25
ENDBRANCH  16  19
ENDBRANCH  13  15
BRANCH  13  29
ATOM     29  C8  non d ame     -33.677   3.842  27.477  0.00  0.00    -0.049 C 
ATOM     30  H7  non d ame     -34.757   3.704  27.448  0.00  0.00     0.030 H 
ATOM     31  H8  non d ame     -33.287   3.880  26.460  0.00  0.00     0.030 H 
ATOM     32  H9  non d ame     -33.218   3.010  28.012  0.00  0.00     0.030 H 
ENDBRANCH  13  29
ENDBRANCH  10  13
ENDBRANCH   7   9
BRANCH   7  33
ATOM     33  C11 non d ame     -32.430   6.439  23.431  0.00  0.00    -0.033 C 
ATOM     34  H12 non d ame     -33.143   7.043  22.868  0.00  0.00     0.042 H 
BRANCH  33  35
ATOM     35  C12 non d ame     -31.054   6.538  22.702  0.00  0.00    -0.071 C 
ATOM     36  H13 non d ame     -30.860   5.609  22.165  0.00  0.00     0.028 H 
ATOM     37  H14 non d ame     -31.075   7.368  21.997  0.00  0.00     0.028 H 
ATOM     38  H15 non d ame     -30.265   6.704  23.436  0.00  0.00     0.028 H 
ENDBRANCH  33  35
BRANCH  33  39
ATOM     39  C13 non d ame     -32.955   4.968  23.454  0.00  0.00    -0.071 C 
ATOM     40  H16 non d ame     -33.351   4.739  24.444  0.00  0.00     0.028 H 
ATOM     41  H17 non d ame     -33.744   4.852  22.710  0.00  0.00     0.028 H 
ATOM     42  H18 non d ame     -32.136   4.287  23.224  0.00  0.00     0.028 H 
ENDBRANCH  33  39
ENDBRANCH   7  33
ENDBRANCH   4   7
ENDBRANCH   1   3
BRANCH   1  43
ATOM     43  C15 non d ame     -32.055  11.870  25.479  0.00  0.00     0.240 C 
ATOM     44  O5  non d ame     -30.899  11.593  25.501  0.00  0.00    -0.271 OA
ATOM     45  N6  non d ame     -32.479  13.259  25.144  0.00  0.00    -0.355 N 
ATOM     46  H46 non d ame     -33.457  13.505  25.117  0.00  0.00     0.162 HD
BRANCH  45  47
ATOM     47  C20 non d ame     -31.456  14.285  24.848  0.00  0.00     0.013 C 
ATOM     48  H30 non d ame     -30.486  13.790  24.807  0.00  0.00     0.072 H 
BRANCH  47  49
ATOM     49  C21 non d ame     -31.459  15.325  25.945  0.00  0.00    -0.038 C 
ATOM     50  H31 non d ame     -30.540  15.897  25.813  0.00  0.00     0.036 H 
ATOM     51  H32 non d ame     -32.426  15.824  25.875  0.00  0.00     0.036 H 
BRANCH  49  52
ATOM     52  C22 non d ame     -31.388  14.706  27.358  0.00  0.00     0.018 C 
ATOM     53  H33 non d ame     -31.319  13.629  27.205  0.00  0.00     0.048 H 
ATOM     54  H34 non d ame     -30.587  15.236  27.873  0.00  0.00     0.048 H 
BRANCH  52  55
ATOM     55  C23 non d ame     -32.669  14.936  28.207  0.00  0.00     0.259 C 
ATOM     56  O7  non d ame     -32.622  14.889  29.394  0.00  0.00    -0.265 OA
BRANCH  55  57
ATOM     57  O8  non d ame     -33.905  15.190  27.550  0.00  0.00    -0.317 OA
BRANCH  57  58
ATOM     58  C29 non d ame     -34.595  16.345  28.035  0.00  0.00     0.052 C 
ATOM     59  H47 non d ame     -35.618  16.252  27.670  0.00  0.00     0.082 H 
ATOM     60  H48 non d ame     -34.401  16.376  29.107  0.00  0.00     0.082 H 
BRANCH  58  61
ATOM     61  C35 non d ame     -33.952  17.597  27.383  0.00  0.00    -0.034 A 
ATOM     62  C30 non d ame     -33.057  18.378  28.107  0.00  0.00    -0.075 A 
ATOM     63  C31 non d ame     -32.480  19.503  27.520  0.00  0.00    -0.082 A 
ATOM     64  H49 non d ame     -32.809  18.109  29.133  0.00  0.00     0.084 H 
ATOM     65  C32 non d ame     -32.802  19.848  26.205  0.00  0.00    -0.083 A 
ATOM     66  H50 non d ame     -31.777  20.113  28.090  0.00  0.00     0.083 H 
ATOM     67  C33 non d ame     -33.698  19.068  25.488  0.00  0.00    -0.082 A 
ATOM     68  H51 non d ame     -32.355  20.726  25.739  0.00  0.00     0.083 H 
ATOM     69  C34 non d ame     -34.276  17.941  26.069  0.00  0.00    -0.075 A 
ATOM     70  H52 non d ame     -33.950  19.341  24.462  0.00  0.00     0.083 H 
ATOM     71  H53 non d ame     -34.978  17.332  25.498  0.00  0.00     0.084 H 
ENDBRANCH  58  61
ENDBRANCH  57  58
ENDBRANCH  55  57
ENDBRANCH  52  55
ENDBRANCH  49  52
ENDBRANCH  47  49
BRANCH  47  72
ATOM     72  C24 non d ame     -31.767  14.954  23.510  0.00  0.00    -0.039 C 
ATOM     73  H35 non d ame     -32.734  14.553  23.204  0.00  0.00     0.036 H 
ATOM     74  H36 non d ame     -31.652  16.023  23.687  0.00  0.00     0.036 H 
BRANCH  72  75
ATOM     75  C25 non d ame     -30.707  14.545  22.382  0.00  0.00    -0.001 C 
ATOM     76  C26 non d ame     -29.281  14.117  23.081  0.00  0.00    -0.035 C 
ATOM     77  C27 non d ame     -28.280  14.811  22.490  0.00  0.00     0.085 C 
ATOM     78  H38 non d ame     -29.255  14.461  24.115  0.00  0.00     0.036 H 
ATOM     79  H39 non d ame     -29.046  13.079  22.846  0.00  0.00     0.036 H 
ATOM     80  N5  non d ame     -28.922  15.910  21.680  0.00  0.00    -0.049 N 
ATOM     81  H40 non d ame     -27.713  15.257  23.308  0.00  0.00     0.075 H 
ATOM     82  H41 non d ame     -27.797  14.106  21.814  0.00  0.00     0.075 H 
ATOM     83  C28 non d ame     -30.486  15.524  21.570  0.00  0.00     0.193 C 
ATOM     84  H42 non d ame     -28.837  16.756  22.225  0.00  0.00     0.280 HD
ATOM     85  H43 non d ame     -28.513  15.861  20.757  0.00  0.00     0.280 HD
ATOM     86  H44 non d ame     -30.891  15.111  20.646  0.00  0.00     0.129 H 
ATOM     87  H37 non d ame     -31.128  13.854  21.651  0.00  0.00     0.046 H 
BRANCH  83  88
ATOM     88  O6  non d ame     -31.297  16.663  21.867  0.00  0.00    -0.369 OA
ATOM     89  H45 non d ame     -31.484  16.686  22.808  0.00  0.00     0.212 HD
ENDBRANCH  83  88
ENDBRANCH  72  75
ENDBRANCH  47  72
ENDBRANCH  45  47
ENDBRANCH   1  43
BRANCH   1  90
ATOM     90  C16 non d ame     -33.691  11.005  27.182  0.00  0.00    -0.035 C 
ATOM     91  H21 non d ame     -33.628  12.080  27.348  0.00  0.00     0.037 H 
ATOM     92  H22 non d ame     -34.662  10.510  27.178  0.00  0.00     0.037 H 
BRANCH  90  93
ATOM     93  C17 non d ame     -32.858  10.334  28.320  0.00  0.00    -0.059 C 
ATOM     94  H23 non d ame     -32.065   9.752  27.851  0.00  0.00     0.038 H 
BRANCH  93  95
ATOM     95  C18 non d ame     -32.185  11.388  29.257  0.00  0.00    -0.073 C 
ATOM     96  H24 non d ame     -32.362  12.389  28.865  0.00  0.00     0.028 H 
ATOM     97  H25 non d ame     -32.611  11.309  30.257  0.00  0.00     0.028 H 
ATOM     98  H26 non d ame     -31.113  11.200  29.304  0.00  0.00     0.028 H 
ENDBRANCH  93  95
BRANCH  93  99
ATOM     99  C19 non d ame     -33.720   9.360  29.127  0.00  0.00    -0.073 C 
ATOM    100  H27 non d ame     -33.730   9.664  30.174  0.00  0.00     0.028 H 
ATOM    101  H28 non d ame     -34.738   9.366  28.737  0.00  0.00     0.028 H 
ATOM    102  H29 non d ame     -33.306   8.355  29.044  0.00  0.00     0.028 H 
ENDBRANCH  93  99
ENDBRANCH  90  93
ENDBRANCH   1  90
TORSDOF 26
ENDMDL
MODEL 5
REMARK VINA RESULT:      -6.9      3.264      8.378
REMARK  26 active torsions:
REMARK  status: ('A' for Active; 'I' for Inactive)
REMARK    1  A    between atoms: C2_2  and  C3_3 
REMARK    2  A    between atoms: C4_6  and  C5_7 
REMARK       I    between atoms: C5_7  and  N2_9 
REMARK    3  A    between atoms: N2_9  and  C6_10 
REMARK    4  A    between atoms: C6_10  and  C7_11 
REMARK    5  A    between atoms: C6_10  and  C8_13 
REMARK       I    between atoms: C7_11  and  N3_14 
REMARK    6  A    between atoms: N3_14  and  C9_15 
REMARK    7  A    between atoms: C9_15  and  C10_16 
REMARK    8  A    between atoms: C9_15  and  C11_18 
REMARK       I    between atoms: C10_16  and  N4_21 
REMARK    9  A    between atoms: C11_18  and  C12_19 
REMARK   10  A    between atoms: C11_18  and  C13_20 
REMARK   11  A    between atoms: N4_21  and  C14_22 
REMARK   12  A    between atoms: C14_22  and  C15_23 
REMARK   13  A    between atoms: C14_22  and  C16_25 
REMARK       I    between atoms: C15_23  and  N6_40 
REMARK   14  A    between atoms: C16_25  and  C17_26 
REMARK   15  A    between atoms: C17_26  and  C18_27 
REMARK   16  A    between atoms: C17_26  and  C19_28 
REMARK   17  A    between atoms: C20_29  and  C21_30 
REMARK   18  A    between atoms: C20_29  and  C24_33 
REMARK   19  A    between atoms: C20_29  and  N6_40 
REMARK   20  A    between atoms: C21_30  and  C22_31 
REMARK   21  A    between atoms: C22_31  and  C23_32 
REMARK   22  A    between atoms: C23_32  and  O8_43 
REMARK   23  A    between atoms: C24_33  and  C25_34 
REMARK   24  A    between atoms: C28_38  and  O6_39 
REMARK   25  A    between atoms: C29_42  and  O8_43 
REMARK   26  A    between atoms: C29_42  and  C35_49 
ROOT
ATOM      1  C14 non d ame     -34.545  16.217  27.076  0.00  0.00     0.089 C 
ATOM      2  H20 non d ame     -34.009  16.390  26.142  0.00  0.00     0.087 H 
ENDROOT
BRANCH   1   3
ATOM      3  N4  non d ame     -35.541  15.186  26.825  0.00  0.00    -0.346 N 
ATOM      4  C10 non d ame     -35.684  14.582  25.451  0.00  0.00     0.241 C 
ATOM      5  O4  non d ame     -34.988  14.945  24.561  0.00  0.00    -0.271 OA
ATOM      6  H19 non d ame     -36.125  14.892  27.595  0.00  0.00     0.163 HD
BRANCH   4   7
ATOM      7  C9  non d ame     -36.716  13.512  25.211  0.00  0.00     0.092 C 
ATOM      8  H11 non d ame     -37.130  13.631  24.209  0.00  0.00     0.088 H 
BRANCH   7   9
ATOM      9  N3  non d ame     -36.076  12.195  25.262  0.00  0.00    -0.346 N 
ATOM     10  C7  non d ame     -36.349  11.221  24.234  0.00  0.00     0.240 C 
ATOM     11  O3  non d ame     -37.083  11.480  23.359  0.00  0.00    -0.271 OA
ATOM     12  H10 non d ame     -35.442  11.956  26.011  0.00  0.00     0.163 HD
BRANCH  10  13
ATOM     13  C6  non d ame     -35.667   9.819  24.295  0.00  0.00     0.086 C 
ATOM     14  H6  non d ame     -35.984   9.160  23.487  0.00  0.00     0.086 H 
BRANCH  13  15
ATOM     15  N2  non d ame     -34.230   9.987  24.156  0.00  0.00    -0.343 N 
ATOM     16  C5  non d ame     -33.494   9.150  23.205  0.00  0.00     0.273 C 
ATOM     17  O2  non d ame     -34.067   8.342  22.560  0.00  0.00    -0.266 OA
ATOM     18  H5  non d ame     -33.748  10.678  24.713  0.00  0.00     0.163 HD
BRANCH  16  19
ATOM     19  C4  non d ame     -31.975   9.318  23.047  0.00  0.00     0.154 A 
ATOM     20  C1  non d ame     -31.041   8.341  22.578  0.00  0.00    -0.017 A 
ATOM     21  C2  non d ame     -29.786   8.988  22.620  0.00  0.00     0.077 A 
ATOM     22  H1  non d ame     -31.243   7.319  22.256  0.00  0.00     0.091 H 
ATOM     23  O1  non d ame     -29.987  10.195  23.062  0.00  0.00    -0.218 OA
ATOM     24  N1  non d ame     -31.257  10.411  23.318  0.00  0.00    -0.123 NA
BRANCH  21  25
ATOM     25  C3  non d ame     -28.446   8.383  22.222  0.00  0.00    -0.029 C 
ATOM     26  H2  non d ame     -27.694   9.169  22.168  0.00  0.00     0.036 H 
ATOM     27  H3  non d ame     -28.146   7.644  22.964  0.00  0.00     0.036 H 
ATOM     28  H4  non d ame     -28.540   7.902  21.248  0.00  0.00     0.036 H 
ENDBRANCH  21  25
ENDBRANCH  16  19
ENDBRANCH  13  15
BRANCH  13  29
ATOM     29  C8  non d ame     -35.984   9.160  25.613  0.00  0.00    -0.049 C 
ATOM     30  H7  non d ame     -35.348   9.580  26.392  0.00  0.00     0.030 H 
ATOM     31  H8  non d ame     -37.030   9.335  25.864  0.00  0.00     0.030 H 
ATOM     32  H9  non d ame     -35.804   8.087  25.536  0.00  0.00     0.030 H 
ENDBRANCH  13  29
ENDBRANCH  10  13
ENDBRANCH   7   9
BRANCH   7  33
ATOM     33  C11 non d ame     -37.815  13.595  26.311  0.00  0.00    -0.033 C 
ATOM     34  H12 non d ame     -37.458  14.281  27.080  0.00  0.00     0.042 H 
BRANCH  33  35
ATOM     35  C12 non d ame     -39.146  14.179  25.743  0.00  0.00    -0.071 C 
ATOM     36  H13 non d ame     -39.982  13.839  26.354  0.00  0.00     0.028 H 
ATOM     37  H14 non d ame     -39.102  15.268  25.761  0.00  0.00     0.028 H 
ATOM     38  H15 non d ame     -39.283  13.837  24.717  0.00  0.00     0.028 H 
ENDBRANCH  33  35
BRANCH  33  39
ATOM     39  C13 non d ame     -38.046  12.201  26.976  0.00  0.00    -0.071 C 
ATOM     40  H16 non d ame     -38.684  11.593  26.334  0.00  0.00     0.028 H 
ATOM     41  H17 non d ame     -37.087  11.700  27.115  0.00  0.00     0.028 H 
ATOM     42  H18 non d ame     -38.527  12.336  27.945  0.00  0.00     0.028 H 
ENDBRANCH  33  39
ENDBRANCH   7  33
ENDBRANCH   4   7
ENDBRANCH   1   3
BRANCH   1  43
ATOM     43  C15 non d ame     -33.601  15.728  28.212  0.00  0.00     0.240 C 
ATOM     44  O5  non d ame     -33.109  16.518  28.952  0.00  0.00    -0.271 OA
ATOM     45  N6  non d ame     -33.318  14.275  28.383  0.00  0.00    -0.355 N 
ATOM     46  H46 non d ame     -33.734  13.594  27.764  0.00  0.00     0.162 HD
BRANCH  45  47
ATOM     47  C20 non d ame     -32.420  13.826  29.470  0.00  0.00     0.013 C 
ATOM     48  H30 non d ame     -32.252  14.672  30.136  0.00  0.00     0.072 H 
BRANCH  47  49
ATOM     49  C21 non d ame     -31.108  13.367  28.875  0.00  0.00    -0.038 C 
ATOM     50  H31 non d ame     -30.331  13.816  29.495  0.00  0.00     0.036 H 
ATOM     51  H32 non d ame     -31.184  12.283  28.796  0.00  0.00     0.036 H 
BRANCH  49  52
ATOM     52  C22 non d ame     -30.882  13.895  27.442  0.00  0.00     0.018 C 
ATOM     53  H33 non d ame     -31.590  14.713  27.314  0.00  0.00     0.048 H 
ATOM     54  H34 non d ame     -29.811  14.083  27.362  0.00  0.00     0.048 H 
BRANCH  52  55
ATOM     55  C23 non d ame     -31.218  12.860  26.333  0.00  0.00     0.259 C 
ATOM     56  O7  non d ame     -31.015  11.702  26.507  0.00  0.00    -0.265 OA
BRANCH  55  57
ATOM     57  O8  non d ame     -31.762  13.313  25.099  0.00  0.00    -0.317 OA
BRANCH  57  58
ATOM     58  C29 non d ame     -31.572  14.709  24.857  0.00  0.00     0.052 C 
ATOM     59  H47 non d ame     -32.567  15.154  24.898  0.00  0.00     0.082 H 
ATOM     60  H48 non d ame     -30.803  15.029  25.559  0.00  0.00     0.082 H 
BRANCH  58  61
ATOM     61  C35 non d ame     -31.020  14.875  23.416  0.00  0.00    -0.034 A 
ATOM     62  C30 non d ame     -31.328  16.013  22.678  0.00  0.00    -0.075 A 
ATOM     63  C31 non d ame     -30.832  16.161  21.383  0.00  0.00    -0.082 A 
ATOM     64  H49 non d ame     -31.958  16.788  23.113  0.00  0.00     0.084 H 
ATOM     65  C32 non d ame     -30.026  15.164  20.826  0.00  0.00    -0.083 A 
ATOM     66  H50 non d ame     -31.074  17.055  20.808  0.00  0.00     0.083 H 
ATOM     67  C33 non d ame     -29.724  14.029  21.565  0.00  0.00    -0.082 A 
ATOM     68  H51 non d ame     -29.634  15.273  19.815  0.00  0.00     0.083 H 
ATOM     69  C34 non d ame     -30.216  13.877  22.860  0.00  0.00    -0.075 A 
ATOM     70  H52 non d ame     -29.097  13.252  21.127  0.00  0.00     0.083 H 
ATOM     71  H53 non d ame     -29.973  12.983  23.435  0.00  0.00     0.084 H 
ENDBRANCH  58  61
ENDBRANCH  57  58
ENDBRANCH  55  57
ENDBRANCH  52  55
ENDBRANCH  49  52
ENDBRANCH  47  49
BRANCH  47  72
ATOM     72  C24 non d ame     -33.067  12.671  30.231  0.00  0.00    -0.039 C 
ATOM     73  H35 non d ame     -32.437  12.512  31.106  0.00  0.00     0.036 H 
ATOM     74  H36 non d ame     -34.112  12.955  30.356  0.00  0.00     0.036 H 
BRANCH  72  75
ATOM     75  C25 non d ame     -33.045  11.314  29.379  0.00  0.00    -0.001 C 
ATOM     76  C26 non d ame     -34.549  10.995  28.796  0.00  0.00    -0.035 C 
ATOM     77  C27 non d ame     -34.882   9.722  29.118  0.00  0.00     0.085 C 
ATOM     78  H38 non d ame     -35.290  11.594  29.325  0.00  0.00     0.036 H 
ATOM     79  H39 non d ame     -34.533  10.986  27.706  0.00  0.00     0.036 H 
ATOM     80  N5  non d ame     -33.882   9.252  30.147  0.00  0.00    -0.049 N 
ATOM     81  H40 non d ame     -35.866   9.787  29.582  0.00  0.00     0.075 H 
ATOM     82  H41 non d ame     -34.747   9.146  28.203  0.00  0.00     0.075 H 
ATOM     83  C28 non d ame     -32.667  10.314  30.103  0.00  0.00     0.193 C 
ATOM     84  H42 non d ame     -34.340   9.324  31.044  0.00  0.00     0.280 HD
ATOM     85  H43 non d ame     -33.540   8.358  29.825  0.00  0.00     0.280 HD
ATOM     86  H44 non d ame     -31.727  10.060  29.613  0.00  0.00     0.129 H 
ATOM     87  H37 non d ame     -32.221  11.287  28.667  0.00  0.00     0.046 H 
BRANCH  83  88
ATOM     88  O6  non d ame     -32.312  10.712  31.429  0.00  0.00    -0.369 OA
ATOM     89  H45 non d ame     -32.013   9.945  31.924  0.00  0.00     0.212 HD
ENDBRANCH  83  88
ENDBRANCH  72  75
ENDBRANCH  47  72
ENDBRANCH  45  47
ENDBRANCH   1  43
BRANCH   1  90
ATOM     90  C16 non d ame     -35.249  17.492  27.509  0.00  0.00    -0.035 C 
ATOM     91  H21 non d ame     -36.314  17.265  27.459  0.00  0.00     0.037 H 
ATOM     92  H22 non d ame     -34.794  17.764  28.462  0.00  0.00     0.037 H 
BRANCH  90  93
ATOM     93  C17 non d ame     -35.010  18.698  26.546  0.00  0.00    -0.059 C 
ATOM     94  H23 non d ame     -34.001  18.607  26.146  0.00  0.00     0.038 H 
BRANCH  93  95
ATOM     95  C18 non d ame     -36.003  18.695  25.339  0.00  0.00    -0.073 C 
ATOM     96  H24 non d ame     -35.463  18.931  24.423  0.00  0.00     0.028 H 
ATOM     97  H25 non d ame     -36.459  17.709  25.247  0.00  0.00     0.028 H 
ATOM     98  H26 non d ame     -36.780  19.440  25.506  0.00  0.00     0.028 H 
ENDBRANCH  93  95
BRANCH  93  99
ATOM     99  C19 non d ame     -35.080  20.026  27.304  0.00  0.00    -0.073 C 
ATOM    100  H27 non d ame     -34.140  20.194  27.830  0.00  0.00     0.028 H 
ATOM    101  H28 non d ame     -35.252  20.840  26.599  0.00  0.00     0.028 H 
ATOM    102  H29 non d ame     -35.898  19.991  28.024  0.00  0.00     0.028 H 
ENDBRANCH  93  99
ENDBRANCH  90  93
ENDBRANCH   1  90
TORSDOF 26
ENDMDL
MODEL 6
REMARK VINA RESULT:      -6.9      2.542     10.294
REMARK  26 active torsions:
REMARK  status: ('A' for Active; 'I' for Inactive)
REMARK    1  A    between atoms: C2_2  and  C3_3 
REMARK    2  A    between atoms: C4_6  and  C5_7 
REMARK       I    between atoms: C5_7  and  N2_9 
REMARK    3  A    between atoms: N2_9  and  C6_10 
REMARK    4  A    between atoms: C6_10  and  C7_11 
REMARK    5  A    between atoms: C6_10  and  C8_13 
REMARK       I    between atoms: C7_11  and  N3_14 
REMARK    6  A    between atoms: N3_14  and  C9_15 
REMARK    7  A    between atoms: C9_15  and  C10_16 
REMARK    8  A    between atoms: C9_15  and  C11_18 
REMARK       I    between atoms: C10_16  and  N4_21 
REMARK    9  A    between atoms: C11_18  and  C12_19 
REMARK   10  A    between atoms: C11_18  and  C13_20 
REMARK   11  A    between atoms: N4_21  and  C14_22 
REMARK   12  A    between atoms: C14_22  and  C15_23 
REMARK   13  A    between atoms: C14_22  and  C16_25 
REMARK       I    between atoms: C15_23  and  N6_40 
REMARK   14  A    between atoms: C16_25  and  C17_26 
REMARK   15  A    between atoms: C17_26  and  C18_27 
REMARK   16  A    between atoms: C17_26  and  C19_28 
REMARK   17  A    between atoms: C20_29  and  C21_30 
REMARK   18  A    between atoms: C20_29  and  C24_33 
REMARK   19  A    between atoms: C20_29  and  N6_40 
REMARK   20  A    between atoms: C21_30  and  C22_31 
REMARK   21  A    between atoms: C22_31  and  C23_32 
REMARK   22  A    between atoms: C23_32  and  O8_43 
REMARK   23  A    between atoms: C24_33  and  C25_34 
REMARK   24  A    between atoms: C28_38  and  O6_39 
REMARK   25  A    between atoms: C29_42  and  O8_43 
REMARK   26  A    between atoms: C29_42  and  C35_49 
ROOT
ATOM      1  C14 non d ame     -32.720  11.761  25.373  0.00  0.00     0.089 C 
ATOM      2  H20 non d ame     -33.394  11.162  24.760  0.00  0.00     0.087 H 
ENDROOT
BRANCH   1   3
ATOM      3  N4  non d ame     -33.361  13.048  25.600  0.00  0.00    -0.346 N 
ATOM      4  C10 non d ame     -34.829  13.120  25.937  0.00  0.00     0.241 C 
ATOM      5  O4  non d ame     -35.475  12.128  26.018  0.00  0.00    -0.271 OA
ATOM      6  H19 non d ame     -32.794  13.881  25.524  0.00  0.00     0.163 HD
BRANCH   4   7
ATOM      7  C9  non d ame     -35.474  14.460  26.173  0.00  0.00     0.092 C 
ATOM      8  H11 non d ame     -35.753  14.543  27.224  0.00  0.00     0.088 H 
BRANCH   7   9
ATOM      9  N3  non d ame     -34.505  15.525  25.897  0.00  0.00    -0.346 N 
ATOM     10  C7  non d ame     -33.857  16.211  26.988  0.00  0.00     0.240 C 
ATOM     11  O3  non d ame     -34.105  15.919  28.094  0.00  0.00    -0.271 OA
ATOM     12  H10 non d ame     -34.282  15.788  24.948  0.00  0.00     0.163 HD
BRANCH  10  13
ATOM     13  C6  non d ame     -32.829  17.345  26.687  0.00  0.00     0.086 C 
ATOM     14  H6  non d ame     -31.999  17.360  27.394  0.00  0.00     0.086 H 
BRANCH  13  15
ATOM     15  N2  non d ame     -32.251  17.121  25.372  0.00  0.00    -0.343 N 
ATOM     16  C5  non d ame     -31.390  15.958  25.152  0.00  0.00     0.273 C 
ATOM     17  O2  non d ame     -31.165  15.209  26.039  0.00  0.00    -0.266 OA
ATOM     18  H5  non d ame     -32.446  17.767  24.621  0.00  0.00     0.163 HD
BRANCH  16  19
ATOM     19  C4  non d ame     -30.773  15.708  23.766  0.00  0.00     0.154 A 
ATOM     20  C1  non d ame     -31.372  15.970  22.493  0.00  0.00    -0.017 A 
ATOM     21  C2  non d ame     -30.404  15.569  21.546  0.00  0.00     0.077 A 
ATOM     22  H1  non d ame     -32.358  16.387  22.288  0.00  0.00     0.091 H 
ATOM     23  O1  non d ame     -29.373  15.131  22.208  0.00  0.00    -0.218 OA
ATOM     24  N1  non d ame     -29.565  15.202  23.505  0.00  0.00    -0.123 NA
BRANCH  21  25
ATOM     25  C3  non d ame     -30.542  15.638  20.031  0.00  0.00    -0.029 C 
ATOM     26  H2  non d ame     -30.502  14.631  19.616  0.00  0.00     0.036 H 
ATOM     27  H3  non d ame     -31.495  16.100  19.774  0.00  0.00     0.036 H 
ATOM     28  H4  non d ame     -29.727  16.233  19.619  0.00  0.00     0.036 H 
ENDBRANCH  21  25
ENDBRANCH  16  19
ENDBRANCH  13  15
BRANCH  13  29
ATOM     29  C8  non d ame     -33.526  18.681  26.725  0.00  0.00    -0.049 C 
ATOM     30  H7  non d ame     -33.929  18.853  27.723  0.00  0.00     0.030 H 
ATOM     31  H8  non d ame     -32.814  19.469  26.480  0.00  0.00     0.030 H 
ATOM     32  H9  non d ame     -34.339  18.688  25.998  0.00  0.00     0.030 H 
ENDBRANCH  13  29
ENDBRANCH  10  13
ENDBRANCH   7   9
BRANCH   7  33
ATOM     33  C11 non d ame     -36.700  14.620  25.227  0.00  0.00    -0.033 C 
ATOM     34  H12 non d ame     -36.600  13.881  24.432  0.00  0.00     0.042 H 
BRANCH  33  35
ATOM     35  C12 non d ame     -38.037  14.325  25.976  0.00  0.00    -0.071 C 
ATOM     36  H13 non d ame     -38.007  13.318  26.391  0.00  0.00     0.028 H 
ATOM     37  H14 non d ame     -38.169  15.047  26.781  0.00  0.00     0.028 H 
ATOM     38  H15 non d ame     -38.870  14.404  25.276  0.00  0.00     0.028 H 
ENDBRANCH  33  35
BRANCH  33  39
ATOM     39  C13 non d ame     -36.719  16.037  24.571  0.00  0.00    -0.071 C 
ATOM     40  H16 non d ame     -37.746  16.313  24.331  0.00  0.00     0.028 H 
ATOM     41  H17 non d ame     -36.299  16.765  25.265  0.00  0.00     0.028 H 
ATOM     42  H18 non d ame     -36.124  16.023  23.658  0.00  0.00     0.028 H 
ENDBRANCH  33  39
ENDBRANCH   7  33
ENDBRANCH   4   7
ENDBRANCH   1   3
BRANCH   1  43
ATOM     43  C15 non d ame     -32.438  11.099  26.752  0.00  0.00     0.240 C 
ATOM     44  O5  non d ame     -31.389  11.269  27.286  0.00  0.00    -0.271 OA
ATOM     45  N6  non d ame     -33.478  10.260  27.413  0.00  0.00    -0.355 N 
ATOM     46  H46 non d ame     -34.374  10.112  26.972  0.00  0.00     0.162 HD
BRANCH  45  47
ATOM     47  C20 non d ame     -33.195   9.639  28.724  0.00  0.00     0.013 C 
ATOM     48  H30 non d ame     -32.139   9.794  28.948  0.00  0.00     0.072 H 
BRANCH  47  49
ATOM     49  C21 non d ame     -33.494   8.158  28.652  0.00  0.00    -0.038 C 
ATOM     50  H31 non d ame     -32.714   7.670  29.235  0.00  0.00     0.036 H 
ATOM     51  H32 non d ame     -34.540   8.055  28.944  0.00  0.00     0.036 H 
BRANCH  49  52
ATOM     52  C22 non d ame     -33.385   7.594  27.218  0.00  0.00     0.018 C 
ATOM     53  H33 non d ame     -34.397   7.308  26.936  0.00  0.00     0.048 H 
ATOM     54  H34 non d ame     -32.852   8.352  26.643  0.00  0.00     0.048 H 
BRANCH  52  55
ATOM     55  C23 non d ame     -32.530   6.301  27.118  0.00  0.00     0.259 C 
ATOM     56  O7  non d ame     -31.826   6.114  26.179  0.00  0.00    -0.265 OA
BRANCH  55  57
ATOM     57  O8  non d ame     -32.607   5.333  28.157  0.00  0.00    -0.317 OA
BRANCH  57  58
ATOM     58  C29 non d ame     -33.768   4.499  28.092  0.00  0.00     0.052 C 
ATOM     59  H47 non d ame     -34.198   4.670  27.106  0.00  0.00     0.082 H 
ATOM     60  H48 non d ame     -33.431   3.502  28.375  0.00  0.00     0.082 H 
BRANCH  58  61
ATOM     61  C35 non d ame     -34.776   4.999  29.162  0.00  0.00    -0.034 A 
ATOM     62  C30 non d ame     -36.084   5.302  28.798  0.00  0.00    -0.075 A 
ATOM     63  C31 non d ame     -36.989   5.750  29.758  0.00  0.00    -0.082 A 
ATOM     64  H49 non d ame     -36.399   5.188  27.761  0.00  0.00     0.084 H 
ATOM     65  C32 non d ame     -36.582   5.898  31.087  0.00  0.00    -0.083 A 
ATOM     66  H50 non d ame     -38.014   5.986  29.470  0.00  0.00     0.083 H 
ATOM     67  C33 non d ame     -35.274   5.597  31.444  0.00  0.00    -0.082 A 
ATOM     68  H51 non d ame     -37.283   6.248  31.844  0.00  0.00     0.083 H 
ATOM     69  C34 non d ame     -34.366   5.147  30.488  0.00  0.00    -0.075 A 
ATOM     70  H52 non d ame     -34.959   5.716  32.481  0.00  0.00     0.083 H 
ATOM     71  H53 non d ame     -33.342   4.912  30.777  0.00  0.00     0.084 H 
ENDBRANCH  58  61
ENDBRANCH  57  58
ENDBRANCH  55  57
ENDBRANCH  52  55
ENDBRANCH  49  52
ENDBRANCH  47  49
BRANCH  47  72
ATOM     72  C24 non d ame     -34.066  10.283  29.800  0.00  0.00    -0.039 C 
ATOM     73  H35 non d ame     -33.375  10.599  30.582  0.00  0.00     0.036 H 
ATOM     74  H36 non d ame     -34.672  11.023  29.278  0.00  0.00     0.036 H 
BRANCH  72  75
ATOM     75  C25 non d ame     -35.073   9.226  30.459  0.00  0.00    -0.001 C 
ATOM     76  C26 non d ame     -36.595   9.471  29.887  0.00  0.00    -0.035 C 
ATOM     77  C27 non d ame     -37.445   9.569  30.937  0.00  0.00     0.085 C 
ATOM     78  H38 non d ame     -36.663  10.450  29.413  0.00  0.00     0.036 H 
ATOM     79  H39 non d ame     -36.944   8.584  29.359  0.00  0.00     0.036 H 
ATOM     80  N5  non d ame     -36.600   9.739  32.176  0.00  0.00    -0.049 N 
ATOM     81  H40 non d ame     -38.015  10.482  30.767  0.00  0.00     0.075 H 
ATOM     82  H41 non d ame     -37.958   8.608  30.987  0.00  0.00     0.075 H 
ATOM     83  C28 non d ame     -35.096   9.340  31.745  0.00  0.00     0.193 C 
ATOM     84  H42 non d ame     -36.619  10.723  32.403  0.00  0.00     0.280 HD
ATOM     85  H43 non d ame     -36.933   9.060  32.845  0.00  0.00     0.280 HD
ATOM     86  H44 non d ame     -34.673   8.379  32.037  0.00  0.00     0.129 H 
ATOM     87  H37 non d ame     -34.687   8.207  30.419  0.00  0.00     0.046 H 
BRANCH  83  88
ATOM     88  O6  non d ame     -34.171  10.323  32.215  0.00  0.00    -0.369 OA
ATOM     89  H45 non d ame     -33.291  10.113  31.895  0.00  0.00     0.212 HD
ENDBRANCH  83  88
ENDBRANCH  72  75
ENDBRANCH  47  72
ENDBRANCH  45  47
ENDBRANCH   1  43
BRANCH   1  90
ATOM     90  C16 non d ame     -31.410  11.982  24.634  0.00  0.00    -0.035 C 
ATOM     91  H21 non d ame     -31.628  12.737  23.880  0.00  0.00     0.037 H 
ATOM     92  H22 non d ame     -30.672  12.183  25.410  0.00  0.00     0.037 H 
BRANCH  90  93
ATOM     93  C17 non d ame     -30.907  10.721  23.862  0.00  0.00    -0.059 C 
ATOM     94  H23 non d ame     -30.266  10.154  24.536  0.00  0.00     0.038 H 
BRANCH  93  95
ATOM     95  C18 non d ame     -32.082   9.789  23.425  0.00  0.00    -0.073 C 
ATOM     96  H24 non d ame     -32.750   9.626  24.271  0.00  0.00     0.028 H 
ATOM     97  H25 non d ame     -32.635  10.257  22.612  0.00  0.00     0.028 H 
ATOM     98  H26 non d ame     -31.682   8.833  23.089  0.00  0.00     0.028 H 
ENDBRANCH  93  95
BRANCH  93  99
ATOM     99  C19 non d ame     -30.054  11.123  22.656  0.00  0.00    -0.073 C 
ATOM    100  H27 non d ame     -30.209  10.410  21.846  0.00  0.00     0.028 H 
ATOM    101  H28 non d ame     -30.344  12.120  22.321  0.00  0.00     0.028 H 
ATOM    102  H29 non d ame     -29.002  11.128  22.939  0.00  0.00     0.028 H 
ENDBRANCH  93  99
ENDBRANCH  90  93
ENDBRANCH   1  90
TORSDOF 26
ENDMDL
MODEL 7
REMARK VINA RESULT:      -6.9      3.067      6.593
REMARK  26 active torsions:
REMARK  status: ('A' for Active; 'I' for Inactive)
REMARK    1  A    between atoms: C2_2  and  C3_3 
REMARK    2  A    between atoms: C4_6  and  C5_7 
REMARK       I    between atoms: C5_7  and  N2_9 
REMARK    3  A    between atoms: N2_9  and  C6_10 
REMARK    4  A    between atoms: C6_10  and  C7_11 
REMARK    5  A    between atoms: C6_10  and  C8_13 
REMARK       I    between atoms: C7_11  and  N3_14 
REMARK    6  A    between atoms: N3_14  and  C9_15 
REMARK    7  A    between atoms: C9_15  and  C10_16 
REMARK    8  A    between atoms: C9_15  and  C11_18 
REMARK       I    between atoms: C10_16  and  N4_21 
REMARK    9  A    between atoms: C11_18  and  C12_19 
REMARK   10  A    between atoms: C11_18  and  C13_20 
REMARK   11  A    between atoms: N4_21  and  C14_22 
REMARK   12  A    between atoms: C14_22  and  C15_23 
REMARK   13  A    between atoms: C14_22  and  C16_25 
REMARK       I    between atoms: C15_23  and  N6_40 
REMARK   14  A    between atoms: C16_25  and  C17_26 
REMARK   15  A    between atoms: C17_26  and  C18_27 
REMARK   16  A    between atoms: C17_26  and  C19_28 
REMARK   17  A    between atoms: C20_29  and  C21_30 
REMARK   18  A    between atoms: C20_29  and  C24_33 
REMARK   19  A    between atoms: C20_29  and  N6_40 
REMARK   20  A    between atoms: C21_30  and  C22_31 
REMARK   21  A    between atoms: C22_31  and  C23_32 
REMARK   22  A    between atoms: C23_32  and  O8_43 
REMARK   23  A    between atoms: C24_33  and  C25_34 
REMARK   24  A    between atoms: C28_38  and  O6_39 
REMARK   25  A    between atoms: C29_42  and  O8_43 
REMARK   26  A    between atoms: C29_42  and  C35_49 
ROOT
ATOM      1  C14 non d ame     -32.774   9.776  24.912  0.00  0.00     0.089 C 
ATOM      2  H20 non d ame     -32.607   8.977  25.634  0.00  0.00     0.087 H 
ENDROOT
BRANCH   1   3
ATOM      3  N4  non d ame     -34.074  10.363  25.201  0.00  0.00    -0.346 N 
ATOM      4  C10 non d ame     -35.142   9.549  25.887  0.00  0.00     0.241 C 
ATOM      5  O4  non d ame     -34.933   8.421  26.194  0.00  0.00    -0.271 OA
ATOM      6  H19 non d ame     -34.233  11.323  24.929  0.00  0.00     0.163 HD
BRANCH   4   7
ATOM      7  C9  non d ame     -36.480  10.174  26.183  0.00  0.00     0.092 C 
ATOM      8  H11 non d ame     -36.557  10.366  27.253  0.00  0.00     0.088 H 
BRANCH   7   9
ATOM      9  N3  non d ame     -36.576  11.468  25.503  0.00  0.00    -0.346 N 
ATOM     10  C7  non d ame     -37.054  12.625  26.220  0.00  0.00     0.240 C 
ATOM     11  O3  non d ame     -37.366  12.532  27.344  0.00  0.00    -0.271 OA
ATOM     12  H10 non d ame     -36.312  11.564  24.533  0.00  0.00     0.163 HD
BRANCH  10  13
ATOM     13  C6  non d ame     -37.158  14.000  25.489  0.00  0.00     0.086 C 
ATOM     14  H6  non d ame     -38.054  14.556  25.762  0.00  0.00     0.086 H 
BRANCH  13  15
ATOM     15  N2  non d ame     -36.024  14.825  25.874  0.00  0.00    -0.343 N 
ATOM     16  C5  non d ame     -36.205  15.876  26.877  0.00  0.00     0.273 C 
ATOM     17  O2  non d ame     -37.266  16.052  27.366  0.00  0.00    -0.266 OA
ATOM     18  H5  non d ame     -35.121  14.669  25.448  0.00  0.00     0.163 HD
BRANCH  16  19
ATOM     19  C4  non d ame     -35.015  16.755  27.294  0.00  0.00     0.154 A 
ATOM     20  C1  non d ame     -34.391  17.787  26.525  0.00  0.00    -0.017 A 
ATOM     21  C2  non d ame     -33.357  18.282  27.352  0.00  0.00     0.077 A 
ATOM     22  H1  non d ame     -34.648  18.126  25.521  0.00  0.00     0.091 H 
ATOM     23  O1  non d ame     -33.394  17.607  28.463  0.00  0.00    -0.218 OA
ATOM     24  N1  non d ame     -34.352  16.710  28.453  0.00  0.00    -0.123 NA
BRANCH  21  25
ATOM     25  C3  non d ame     -32.383  19.400  27.005  0.00  0.00    -0.029 C 
ATOM     26  H2  non d ame     -31.373  19.102  27.286  0.00  0.00     0.036 H 
ATOM     27  H3  non d ame     -32.420  19.594  25.934  0.00  0.00     0.036 H 
ATOM     28  H4  non d ame     -32.659  20.304  27.548  0.00  0.00     0.036 H 
ENDBRANCH  21  25
ENDBRANCH  16  19
ENDBRANCH  13  15
BRANCH  13  29
ATOM     29  C8  non d ame     -37.154  13.781  23.997  0.00  0.00    -0.049 C 
ATOM     30  H7  non d ame     -36.582  12.884  23.763  0.00  0.00     0.030 H 
ATOM     31  H8  non d ame     -38.179  13.660  23.646  0.00  0.00     0.030 H 
ATOM     32  H9  non d ame     -36.700  14.641  23.505  0.00  0.00     0.030 H 
ENDBRANCH  13  29
ENDBRANCH  10  13
ENDBRANCH   7   9
BRANCH   7  33
ATOM     33  C11 non d ame     -37.614   9.237  25.673  0.00  0.00    -0.033 C 
ATOM     34  H12 non d ame     -37.199   8.233  25.589  0.00  0.00     0.042 H 
BRANCH  33  35
ATOM     35  C12 non d ame     -38.797   9.171  26.689  0.00  0.00    -0.071 C 
ATOM     36  H13 non d ame     -38.510   8.555  27.542  0.00  0.00     0.028 H 
ATOM     37  H14 non d ame     -39.037  10.177  27.032  0.00  0.00     0.028 H 
ATOM     38  H15 non d ame     -39.669   8.735  26.204  0.00  0.00     0.028 H 
ENDBRANCH  33  35
BRANCH  33  39
ATOM     39  C13 non d ame     -38.108   9.676  24.257  0.00  0.00    -0.071 C 
ATOM     40  H16 non d ame     -38.089   8.818  23.584  0.00  0.00     0.028 H 
ATOM     41  H17 non d ame     -39.126  10.059  24.330  0.00  0.00     0.028 H 
ATOM     42  H18 non d ame     -37.453  10.457  23.870  0.00  0.00     0.028 H 
ENDBRANCH  33  39
ENDBRANCH   7  33
ENDBRANCH   4   7
ENDBRANCH   1   3
BRANCH   1  43
ATOM     43  C15 non d ame     -31.694  10.892  25.010  0.00  0.00     0.240 C 
ATOM     44  O5  non d ame     -30.682  10.684  25.596  0.00  0.00    -0.271 OA
ATOM     45  N6  non d ame     -31.919  12.217  24.365  0.00  0.00    -0.355 N 
ATOM     46  H46 non d ame     -32.774  12.404  23.860  0.00  0.00     0.162 HD
BRANCH  45  47
ATOM     47  C20 non d ame     -30.882  13.267  24.467  0.00  0.00     0.013 C 
ATOM     48  H30 non d ame     -30.106  12.907  25.142  0.00  0.00     0.072 H 
BRANCH  47  49
ATOM     49  C21 non d ame     -31.503  14.530  25.019  0.00  0.00    -0.038 C 
ATOM     50  H31 non d ame     -30.667  15.160  25.323  0.00  0.00     0.036 H 
ATOM     51  H32 non d ame     -32.196  14.876  24.253  0.00  0.00     0.036 H 
BRANCH  49  52
ATOM     52  C22 non d ame     -32.345  14.279  26.289  0.00  0.00     0.018 C 
ATOM     53  H33 non d ame     -32.939  15.180  26.432  0.00  0.00     0.048 H 
ATOM     54  H34 non d ame     -32.838  13.320  26.131  0.00  0.00     0.048 H 
BRANCH  52  55
ATOM     55  C23 non d ame     -31.497  14.116  27.581  0.00  0.00     0.259 C 
ATOM     56  O7  non d ame     -31.397  15.013  28.354  0.00  0.00    -0.265 OA
BRANCH  55  57
ATOM     57  O8  non d ame     -30.828  12.884  27.825  0.00  0.00    -0.317 OA
BRANCH  57  58
ATOM     58  C29 non d ame     -30.682  12.565  29.211  0.00  0.00     0.052 C 
ATOM     59  H47 non d ame     -29.792  11.940  29.278  0.00  0.00     0.082 H 
ATOM     60  H48 non d ame     -30.720  13.518  29.739  0.00  0.00     0.082 H 
BRANCH  58  61
ATOM     61  C35 non d ame     -31.911  11.719  29.640  0.00  0.00    -0.034 A 
ATOM     62  C30 non d ame     -32.428  10.756  28.778  0.00  0.00    -0.075 A 
ATOM     63  C31 non d ame     -33.531   9.996  29.162  0.00  0.00    -0.082 A 
ATOM     64  H49 non d ame     -31.969  10.599  27.802  0.00  0.00     0.084 H 
ATOM     65  C32 non d ame     -34.119  10.202  30.413  0.00  0.00    -0.083 A 
ATOM     66  H50 non d ame     -33.933   9.242  28.485  0.00  0.00     0.083 H 
ATOM     67  C33 non d ame     -33.602  11.166  31.268  0.00  0.00    -0.082 A 
ATOM     68  H51 non d ame     -34.982   9.611  30.722  0.00  0.00     0.083 H 
ATOM     69  C34 non d ame     -32.498  11.926  30.889  0.00  0.00    -0.075 A 
ATOM     70  H52 non d ame     -34.064  11.326  32.243  0.00  0.00     0.083 H 
ATOM     71  H53 non d ame     -32.096  12.681  31.567  0.00  0.00     0.084 H 
ENDBRANCH  58  61
ENDBRANCH  57  58
ENDBRANCH  55  57
ENDBRANCH  52  55
ENDBRANCH  49  52
ENDBRANCH  47  49
BRANCH  47  72
ATOM     72  C24 non d ame     -30.296  13.548  23.085  0.00  0.00    -0.039 C 
ATOM     73  H35 non d ame     -29.271  13.178  23.124  0.00  0.00     0.036 H 
ATOM     74  H36 non d ame     -31.004  13.118  22.376  0.00  0.00     0.036 H 
BRANCH  72  75
ATOM     75  C25 non d ame     -30.220  15.120  22.783  0.00  0.00    -0.001 C 
ATOM     76  C26 non d ame     -31.262  15.508  21.571  0.00  0.00    -0.035 C 
ATOM     77  C27 non d ame     -30.591  16.214  20.629  0.00  0.00     0.085 C 
ATOM     78  H38 non d ame     -31.572  14.607  21.042  0.00  0.00     0.036 H 
ATOM     79  H39 non d ame     -32.010  16.213  21.933  0.00  0.00     0.036 H 
ATOM     80  N5  non d ame     -29.119  16.062  20.927  0.00  0.00    -0.049 N 
ATOM     81  H40 non d ame     -30.815  15.722  19.683  0.00  0.00     0.075 H 
ATOM     82  H41 non d ame     -30.880  17.253  20.784  0.00  0.00     0.075 H 
ATOM     83  C28 non d ame     -29.029  15.470  22.426  0.00  0.00     0.193 C 
ATOM     84  H42 non d ame     -28.768  15.367  20.285  0.00  0.00     0.280 HD
ATOM     85  H43 non d ame     -28.730  16.994  20.925  0.00  0.00     0.280 HD
ATOM     86  H44 non d ame     -28.754  16.115  23.261  0.00  0.00     0.129 H 
ATOM     87  H37 non d ame     -30.272  15.718  23.692  0.00  0.00     0.046 H 
BRANCH  83  88
ATOM     88  O6  non d ame     -28.110  14.377  22.470  0.00  0.00    -0.369 OA
ATOM     89  H45 non d ame     -27.269  14.680  22.820  0.00  0.00     0.212 HD
ENDBRANCH  83  88
ENDBRANCH  72  75
ENDBRANCH  47  72
ENDBRANCH  45  47
ENDBRANCH   1  43
BRANCH   1  90
ATOM     90  C16 non d ame     -32.790   9.203  23.504  0.00  0.00    -0.035 C 
ATOM     91  H21 non d ame     -33.726   8.650  23.428  0.00  0.00     0.037 H 
ATOM     92  H22 non d ame     -32.604  10.051  22.845  0.00  0.00     0.037 H 
BRANCH  90  93
ATOM     93  C17 non d ame     -31.648   8.174  23.233  0.00  0.00    -0.059 C 
ATOM     94  H23 non d ame     -31.086   8.052  24.159  0.00  0.00     0.038 H 
BRANCH  93  95
ATOM     95  C18 non d ame     -32.202   6.772  22.824  0.00  0.00    -0.073 C 
ATOM     96  H24 non d ame     -31.371   6.103  22.602  0.00  0.00     0.028 H 
ATOM     97  H25 non d ame     -32.789   6.360  23.644  0.00  0.00     0.028 H 
ATOM     98  H26 non d ame     -32.833   6.874  21.941  0.00  0.00     0.028 H 
ENDBRANCH  93  95
BRANCH  93  99
ATOM     99  C19 non d ame     -30.674   8.703  22.177  0.00  0.00    -0.073 C 
ATOM    100  H27 non d ame     -30.369   9.717  22.439  0.00  0.00     0.028 H 
ATOM    101  H28 non d ame     -29.795   8.059  22.136  0.00  0.00     0.028 H 
ATOM    102  H29 non d ame     -31.163   8.711  21.203  0.00  0.00     0.028 H 
ENDBRANCH  93  99
ENDBRANCH  90  93
ENDBRANCH   1  90
TORSDOF 26
ENDMDL
MODEL 8
REMARK VINA RESULT:      -6.8      3.173      9.956
REMARK  26 active torsions:
REMARK  status: ('A' for Active; 'I' for Inactive)
REMARK    1  A    between atoms: C2_2  and  C3_3 
REMARK    2  A    between atoms: C4_6  and  C5_7 
REMARK       I    between atoms: C5_7  and  N2_9 
REMARK    3  A    between atoms: N2_9  and  C6_10 
REMARK    4  A    between atoms: C6_10  and  C7_11 
REMARK    5  A    between atoms: C6_10  and  C8_13 
REMARK       I    between atoms: C7_11  and  N3_14 
REMARK    6  A    between atoms: N3_14  and  C9_15 
REMARK    7  A    between atoms: C9_15  and  C10_16 
REMARK    8  A    between atoms: C9_15  and  C11_18 
REMARK       I    between atoms: C10_16  and  N4_21 
REMARK    9  A    between atoms: C11_18  and  C12_19 
REMARK   10  A    between atoms: C11_18  and  C13_20 
REMARK   11  A    between atoms: N4_21  and  C14_22 
REMARK   12  A    between atoms: C14_22  and  C15_23 
REMARK   13  A    between atoms: C14_22  and  C16_25 
REMARK       I    between atoms: C15_23  and  N6_40 
REMARK   14  A    between atoms: C16_25  and  C17_26 
REMARK   15  A    between atoms: C17_26  and  C18_27 
REMARK   16  A    between atoms: C17_26  and  C19_28 
REMARK   17  A    between atoms: C20_29  and  C21_30 
REMARK   18  A    between atoms: C20_29  and  C24_33 
REMARK   19  A    between atoms: C20_29  and  N6_40 
REMARK   20  A    between atoms: C21_30  and  C22_31 
REMARK   21  A    between atoms: C22_31  and  C23_32 
REMARK   22  A    between atoms: C23_32  and  O8_43 
REMARK   23  A    between atoms: C24_33  and  C25_34 
REMARK   24  A    between atoms: C28_38  and  O6_39 
REMARK   25  A    between atoms: C29_42  and  O8_43 
REMARK   26  A    between atoms: C29_42  and  C35_49 
ROOT
ATOM      1  C14 non d ame     -36.250  13.326  26.317  0.00  0.00     0.089 C 
ATOM      2  H20 non d ame     -36.972  13.216  27.127  0.00  0.00     0.087 H 
ENDROOT
BRANCH   1   3
ATOM      3  N4  non d ame     -35.920  14.740  26.213  0.00  0.00    -0.346 N 
ATOM      4  C10 non d ame     -36.921  15.788  26.628  0.00  0.00     0.241 C 
ATOM      5  O4  non d ame     -37.988  15.469  27.040  0.00  0.00    -0.271 OA
ATOM      6  H19 non d ame     -35.008  14.990  25.858  0.00  0.00     0.163 HD
BRANCH   4   7
ATOM      7  C9  non d ame     -36.561  17.246  26.518  0.00  0.00     0.092 C 
ATOM      8  H11 non d ame     -36.799  17.746  27.457  0.00  0.00     0.088 H 
BRANCH   7   9
ATOM      9  N3  non d ame     -35.116  17.379  26.310  0.00  0.00    -0.346 N 
ATOM     10  C7  non d ame     -34.259  17.735  27.414  0.00  0.00     0.240 C 
ATOM     11  O3  non d ame     -34.716  17.920  28.476  0.00  0.00    -0.271 OA
ATOM     12  H10 non d ame     -34.708  17.224  25.400  0.00  0.00     0.163 HD
BRANCH  10  13
ATOM     13  C6  non d ame     -32.722  17.878  27.186  0.00  0.00     0.086 C 
ATOM     14  H6  non d ame     -32.134  17.323  27.918  0.00  0.00     0.086 H 
BRANCH  13  15
ATOM     15  N2  non d ame     -32.386  17.331  25.882  0.00  0.00    -0.343 N 
ATOM     16  C5  non d ame     -31.789  15.997  25.791  0.00  0.00     0.273 C 
ATOM     17  O2  non d ame     -31.580  15.373  26.773  0.00  0.00    -0.266 OA
ATOM     18  H5  non d ame     -32.566  17.872  25.048  0.00  0.00     0.163 HD
BRANCH  16  19
ATOM     19  C4  non d ame     -31.430  15.406  24.419  0.00  0.00     0.154 A 
ATOM     20  C1  non d ame     -31.374  16.098  23.168  0.00  0.00    -0.017 A 
ATOM     21  C2  non d ame     -31.000  15.114  22.225  0.00  0.00     0.077 A 
ATOM     22  H1  non d ame     -31.574  17.152  22.973  0.00  0.00     0.091 H 
ATOM     23  O1  non d ame     -30.859  13.993  22.870  0.00  0.00    -0.218 OA
ATOM     24  N1  non d ame     -31.105  14.138  24.152  0.00  0.00    -0.123 NA
BRANCH  21  25
ATOM     25  C3  non d ame     -30.798  15.328  20.731  0.00  0.00    -0.029 C 
ATOM     26  H2  non d ame     -31.768  15.402  20.240  0.00  0.00     0.036 H 
ATOM     27  H3  non d ame     -30.238  16.248  20.568  0.00  0.00     0.036 H 
ATOM     28  H4  non d ame     -30.244  14.487  20.315  0.00  0.00     0.036 H 
ENDBRANCH  21  25
ENDBRANCH  16  19
ENDBRANCH  13  15
BRANCH  13  29
ATOM     29  C8  non d ame     -32.335  19.333  27.252  0.00  0.00    -0.049 C 
ATOM     30  H7  non d ame     -33.222  19.937  27.438  0.00  0.00     0.030 H 
ATOM     31  H8  non d ame     -31.618  19.482  28.059  0.00  0.00     0.030 H 
ATOM     32  H9  non d ame     -31.884  19.632  26.305  0.00  0.00     0.030 H 
ENDBRANCH  13  29
ENDBRANCH  10  13
ENDBRANCH   7   9
BRANCH   7  33
ATOM     33  C11 non d ame     -37.316  17.878  25.312  0.00  0.00    -0.033 C 
ATOM     34  H12 non d ame     -38.345  18.054  25.624  0.00  0.00     0.042 H 
BRANCH  33  35
ATOM     35  C12 non d ame     -36.703  19.258  24.917  0.00  0.00    -0.071 C 
ATOM     36  H13 non d ame     -35.933  19.110  24.160  0.00  0.00     0.028 H 
ATOM     37  H14 non d ame     -37.486  19.902  24.518  0.00  0.00     0.028 H 
ATOM     38  H15 non d ame     -36.262  19.724  25.798  0.00  0.00     0.028 H 
ENDBRANCH  33  35
BRANCH  33  39
ATOM     39  C13 non d ame     -37.341  16.900  24.093  0.00  0.00    -0.071 C 
ATOM     40  H16 non d ame     -36.393  16.963  23.557  0.00  0.00     0.028 H 
ATOM     41  H17 non d ame     -37.490  15.880  24.449  0.00  0.00     0.028 H 
ATOM     42  H18 non d ame     -38.157  17.173  23.425  0.00  0.00     0.028 H 
ENDBRANCH  33  39
ENDBRANCH   7  33
ENDBRANCH   4   7
ENDBRANCH   1   3
BRANCH   1  43
ATOM     43  C15 non d ame     -34.940  12.530  26.587  0.00  0.00     0.240 C 
ATOM     44  O5  non d ame     -33.905  12.937  26.168  0.00  0.00    -0.271 OA
ATOM     45  N6  non d ame     -34.976  11.265  27.374  0.00  0.00    -0.355 N 
ATOM     46  H46 non d ame     -35.849  10.912  27.739  0.00  0.00     0.162 HD
BRANCH  45  47
ATOM     47  C20 non d ame     -33.722  10.521  27.623  0.00  0.00     0.013 C 
ATOM     48  H30 non d ame     -32.922  11.020  27.076  0.00  0.00     0.072 H 
BRANCH  47  49
ATOM     49  C21 non d ame     -33.877   9.101  27.129  0.00  0.00    -0.038 C 
ATOM     50  H31 non d ame     -34.639   8.649  27.765  0.00  0.00     0.036 H 
ATOM     51  H32 non d ame     -34.041   9.180  26.054  0.00  0.00     0.036 H 
BRANCH  49  52
ATOM     52  C22 non d ame     -32.597   8.258  27.315  0.00  0.00     0.018 C 
ATOM     53  H33 non d ame     -31.766   8.938  27.126  0.00  0.00     0.048 H 
ATOM     54  H34 non d ame     -32.698   7.778  28.288  0.00  0.00     0.048 H 
BRANCH  52  55
ATOM     55  C23 non d ame     -32.450   7.106  26.282  0.00  0.00     0.259 C 
ATOM     56  O7  non d ame     -31.894   6.098  26.578  0.00  0.00    -0.265 OA
BRANCH  55  57
ATOM     57  O8  non d ame     -32.976   7.274  24.971  0.00  0.00    -0.317 OA
BRANCH  57  58
ATOM     58  C29 non d ame     -32.079   6.883  23.929  0.00  0.00     0.052 C 
ATOM     59  H47 non d ame     -31.348   6.226  24.400  0.00  0.00     0.082 H 
ATOM     60  H48 non d ame     -32.708   6.509  23.122  0.00  0.00     0.082 H 
BRANCH  58  61
ATOM     61  C35 non d ame     -31.344   8.155  23.427  0.00  0.00    -0.034 A 
ATOM     62  C30 non d ame     -31.753   9.412  23.861  0.00  0.00    -0.075 A 
ATOM     63  C31 non d ame     -31.093  10.555  23.410  0.00  0.00    -0.082 A 
ATOM     64  H49 non d ame     -32.590   9.503  24.553  0.00  0.00     0.084 H 
ATOM     65  C32 non d ame     -30.022  10.437  22.521  0.00  0.00    -0.083 A 
ATOM     66  H50 non d ame     -31.415  11.538  23.753  0.00  0.00     0.083 H 
ATOM     67  C33 non d ame     -29.619   9.180  22.089  0.00  0.00    -0.082 A 
ATOM     68  H51 non d ame     -29.500  11.325  22.164  0.00  0.00     0.083 H 
ATOM     69  C34 non d ame     -30.274   8.036  22.538  0.00  0.00    -0.075 A 
ATOM     70  H52 non d ame     -28.784   9.092  21.393  0.00  0.00     0.083 H 
ATOM     71  H53 non d ame     -29.952   7.052  22.195  0.00  0.00     0.084 H 
ENDBRANCH  58  61
ENDBRANCH  57  58
ENDBRANCH  55  57
ENDBRANCH  52  55
ENDBRANCH  49  52
ENDBRANCH  47  49
BRANCH  47  72
ATOM     72  C24 non d ame     -33.416  10.510  29.119  0.00  0.00    -0.039 C 
ATOM     73  H35 non d ame     -34.380  10.381  29.612  0.00  0.00     0.036 H 
ATOM     74  H36 non d ame     -32.634   9.763  29.250  0.00  0.00     0.036 H 
BRANCH  72  75
ATOM     75  C25 non d ame     -32.817  11.912  29.612  0.00  0.00    -0.001 C 
ATOM     76  C26 non d ame     -31.491  12.299  28.720  0.00  0.00    -0.035 C 
ATOM     77  C27 non d ame     -30.473  12.599  29.562  0.00  0.00     0.085 C 
ATOM     78  H38 non d ame     -31.130  11.420  28.187  0.00  0.00     0.036 H 
ATOM     79  H39 non d ame     -31.661  13.232  28.183  0.00  0.00     0.036 H 
ATOM     80  N5  non d ame     -30.886  12.137  30.938  0.00  0.00    -0.049 N 
ATOM     81  H40 non d ame     -29.629  11.998  29.223  0.00  0.00     0.075 H 
ATOM     82  H41 non d ame     -30.403  13.687  29.558  0.00  0.00     0.075 H 
ATOM     83  C28 non d ame     -32.474  11.863  30.856  0.00  0.00     0.193 C 
ATOM     84  H42 non d ame     -30.415  11.258  31.098  0.00  0.00     0.280 HD
ATOM     85  H43 non d ame     -30.726  12.917  31.561  0.00  0.00     0.280 HD
ATOM     86  H44 non d ame     -33.182  12.572  31.285  0.00  0.00     0.129 H 
ATOM     87  H37 non d ame     -33.587  12.677  29.713  0.00  0.00     0.046 H 
BRANCH  83  88
ATOM     88  O6  non d ame     -32.788  10.602  31.452  0.00  0.00    -0.369 OA
ATOM     89  H45 non d ame     -33.700  10.609  31.752  0.00  0.00     0.212 HD
ENDBRANCH  83  88
ENDBRANCH  72  75
ENDBRANCH  47  72
ENDBRANCH  45  47
ENDBRANCH   1  43
BRANCH   1  90
ATOM     90  C16 non d ame     -36.869  12.863  25.008  0.00  0.00    -0.035 C 
ATOM     91  H21 non d ame     -36.904  13.750  24.376  0.00  0.00     0.037 H 
ATOM     92  H22 non d ame     -36.281  11.998  24.701  0.00  0.00     0.037 H 
BRANCH  90  93
ATOM     93  C17 non d ame     -38.343  12.367  25.154  0.00  0.00    -0.059 C 
ATOM     94  H23 non d ame     -38.439  11.444  24.582  0.00  0.00     0.038 H 
BRANCH  93  95
ATOM     95  C18 non d ame     -38.714  12.048  26.637  0.00  0.00    -0.073 C 
ATOM     96  H24 non d ame     -39.406  12.803  27.009  0.00  0.00     0.028 H 
ATOM     97  H25 non d ame     -39.184  11.067  26.692  0.00  0.00     0.028 H 
ATOM     98  H26 non d ame     -37.810  12.052  27.247  0.00  0.00     0.028 H 
ENDBRANCH  93  95
BRANCH  93  99
ATOM     99  C19 non d ame     -39.322  13.378  24.552  0.00  0.00    -0.073 C 
ATOM    100  H27 non d ame     -38.764  14.195  24.093  0.00  0.00     0.028 H 
ATOM    101  H28 non d ame     -39.934  12.887  23.796  0.00  0.00     0.028 H 
ATOM    102  H29 non d ame     -39.965  13.773  25.339  0.00  0.00     0.028 H 
ENDBRANCH  93  99
ENDBRANCH  90  93
ENDBRANCH   1  90
TORSDOF 26
ENDMDL
MODEL 9
REMARK VINA RESULT:      -6.8      2.519      5.028
REMARK  26 active torsions:
REMARK  status: ('A' for Active; 'I' for Inactive)
REMARK    1  A    between atoms: C2_2  and  C3_3 
REMARK    2  A    between atoms: C4_6  and  C5_7 
REMARK       I    between atoms: C5_7  and  N2_9 
REMARK    3  A    between atoms: N2_9  and  C6_10 
REMARK    4  A    between atoms: C6_10  and  C7_11 
REMARK    5  A    between atoms: C6_10  and  C8_13 
REMARK       I    between atoms: C7_11  and  N3_14 
REMARK    6  A    between atoms: N3_14  and  C9_15 
REMARK    7  A    between atoms: C9_15  and  C10_16 
REMARK    8  A    between atoms: C9_15  and  C11_18 
REMARK       I    between atoms: C10_16  and  N4_21 
REMARK    9  A    between atoms: C11_18  and  C12_19 
REMARK   10  A    between atoms: C11_18  and  C13_20 
REMARK   11  A    between atoms: N4_21  and  C14_22 
REMARK   12  A    between atoms: C14_22  and  C15_23 
REMARK   13  A    between atoms: C14_22  and  C16_25 
REMARK       I    between atoms: C15_23  and  N6_40 
REMARK   14  A    between atoms: C16_25  and  C17_26 
REMARK   15  A    between atoms: C17_26  and  C18_27 
REMARK   16  A    between atoms: C17_26  and  C19_28 
REMARK   17  A    between atoms: C20_29  and  C21_30 
REMARK   18  A    between atoms: C20_29  and  C24_33 
REMARK   19  A    between atoms: C20_29  and  N6_40 
REMARK   20  A    between atoms: C21_30  and  C22_31 
REMARK   21  A    between atoms: C22_31  and  C23_32 
REMARK   22  A    between atoms: C23_32  and  O8_43 
REMARK   23  A    between atoms: C24_33  and  C25_34 
REMARK   24  A    between atoms: C28_38  and  O6_39 
REMARK   25  A    between atoms: C29_42  and  O8_43 
REMARK   26  A    between atoms: C29_42  and  C35_49 
ROOT
ATOM      1  C14 non d ame     -32.238   9.643  24.622  0.00  0.00     0.089 C 
ATOM      2  H20 non d ame     -31.736   8.783  25.065  0.00  0.00     0.087 H 
ENDROOT
BRANCH   1   3
ATOM      3  N4  non d ame     -33.560   9.737  25.223  0.00  0.00    -0.346 N 
ATOM      4  C10 non d ame     -34.387   8.495  25.442  0.00  0.00     0.241 C 
ATOM      5  O4  non d ame     -33.967   7.431  25.125  0.00  0.00    -0.271 OA
ATOM      6  H19 non d ame     -33.900  10.652  25.484  0.00  0.00     0.163 HD
BRANCH   4   7
ATOM      7  C9  non d ame     -35.751   8.610  26.070  0.00  0.00     0.092 C 
ATOM      8  H11 non d ame     -36.115   7.613  26.321  0.00  0.00     0.088 H 
BRANCH   7   9
ATOM      9  N3  non d ame     -35.650   9.363  27.324  0.00  0.00    -0.346 N 
ATOM     10  C7  non d ame     -36.377   8.923  28.489  0.00  0.00     0.240 C 
ATOM     11  O3  non d ame     -37.049   7.966  28.435  0.00  0.00    -0.271 OA
ATOM     12  H10 non d ame     -35.077  10.192  27.385  0.00  0.00     0.163 HD
BRANCH  10  13
ATOM     13  C6  non d ame     -36.269   9.731  29.820  0.00  0.00     0.086 C 
ATOM     14  H6  non d ame     -36.092   9.094  30.686  0.00  0.00     0.086 H 
BRANCH  13  15
ATOM     15  N2  non d ame     -35.135  10.636  29.730  0.00  0.00    -0.343 N 
ATOM     16  C5  non d ame     -33.897  10.314  30.443  0.00  0.00     0.273 C 
ATOM     17  O2  non d ame     -33.824   9.325  31.087  0.00  0.00    -0.266 OA
ATOM     18  H5  non d ame     -35.207  11.480  29.180  0.00  0.00     0.163 HD
BRANCH  16  19
ATOM     19  C4  non d ame     -32.690  11.261  30.356  0.00  0.00     0.154 A 
ATOM     20  C1  non d ame     -32.362  12.147  29.281  0.00  0.00    -0.017 A 
ATOM     21  C2  non d ame     -31.170  12.787  29.689  0.00  0.00     0.077 A 
ATOM     22  H1  non d ame     -32.905  12.302  28.349  0.00  0.00     0.091 H 
ATOM     23  O1  non d ame     -30.860  12.318  30.862  0.00  0.00    -0.218 OA
ATOM     24  N1  non d ame     -31.732  11.425  31.272  0.00  0.00    -0.123 NA
BRANCH  21  25
ATOM     25  C3  non d ame     -30.394  13.834  28.901  0.00  0.00    -0.029 C 
ATOM     26  H2  non d ame     -30.540  13.668  27.835  0.00  0.00     0.036 H 
ATOM     27  H3  non d ame     -30.753  14.828  29.167  0.00  0.00     0.036 H 
ATOM     28  H4  non d ame     -29.334  13.756  29.140  0.00  0.00     0.036 H 
ENDBRANCH  21  25
ENDBRANCH  16  19
ENDBRANCH  13  15
BRANCH  13  29
ATOM     29  C8  non d ame     -37.539  10.513  30.040  0.00  0.00    -0.049 C 
ATOM     30  H7  non d ame     -38.377   9.980  29.592  0.00  0.00     0.030 H 
ATOM     31  H8  non d ame     -37.712  10.630  31.110  0.00  0.00     0.030 H 
ATOM     32  H9  non d ame     -37.445  11.496  29.578  0.00  0.00     0.030 H 
ENDBRANCH  13  29
ENDBRANCH  10  13
ENDBRANCH   7   9
BRANCH   7  33
ATOM     33  C11 non d ame     -36.709   9.355  25.096  0.00  0.00    -0.033 C 
ATOM     34  H12 non d ame     -37.720   8.995  25.289  0.00  0.00     0.042 H 
BRANCH  33  35
ATOM     35  C12 non d ame     -36.701  10.893  25.356  0.00  0.00    -0.071 C 
ATOM     36  H13 non d ame     -36.669  11.080  26.430  0.00  0.00     0.028 H 
ATOM     37  H14 non d ame     -35.826  11.337  24.884  0.00  0.00     0.028 H 
ATOM     38  H15 non d ame     -37.605  11.337  24.938  0.00  0.00     0.028 H 
ENDBRANCH  33  35
BRANCH  33  39
ATOM     39  C13 non d ame     -36.358   9.030  23.608  0.00  0.00    -0.071 C 
ATOM     40  H16 non d ame     -35.393   8.524  23.565  0.00  0.00     0.028 H 
ATOM     41  H17 non d ame     -37.127   8.383  23.186  0.00  0.00     0.028 H 
ATOM     42  H18 non d ame     -36.309   9.956  23.036  0.00  0.00     0.028 H 
ENDBRANCH  33  39
ENDBRANCH   7  33
ENDBRANCH   4   7
ENDBRANCH   1   3
BRANCH   1  43
ATOM     43  C15 non d ame     -31.475  10.972  24.894  0.00  0.00     0.240 C 
ATOM     44  O5  non d ame     -30.894  11.120  25.920  0.00  0.00    -0.271 OA
ATOM     45  N6  non d ame     -31.462  12.056  23.871  0.00  0.00    -0.355 N 
ATOM     46  H46 non d ame     -31.948  11.939  22.994  0.00  0.00     0.162 HD
BRANCH  45  47
ATOM     47  C20 non d ame     -30.732  13.312  24.144  0.00  0.00     0.013 C 
ATOM     48  H30 non d ame     -30.081  13.142  25.002  0.00  0.00     0.072 H 
BRANCH  47  49
ATOM     49  C21 non d ame     -31.724  14.409  24.458  0.00  0.00    -0.038 C 
ATOM     50  H31 non d ame     -31.221  15.343  24.202  0.00  0.00     0.036 H 
ATOM     51  H32 non d ame     -32.645  14.128  23.946  0.00  0.00     0.036 H 
BRANCH  49  52
ATOM     52  C22 non d ame     -32.067  14.495  25.961  0.00  0.00     0.018 C 
ATOM     53  H33 non d ame     -31.425  13.766  26.452  0.00  0.00     0.048 H 
ATOM     54  H34 non d ame     -31.992  15.551  26.221  0.00  0.00     0.048 H 
BRANCH  52  55
ATOM     55  C23 non d ame     -33.525  14.075  26.295  0.00  0.00     0.259 C 
ATOM     56  O7  non d ame     -33.931  13.003  25.979  0.00  0.00    -0.265 OA
BRANCH  55  57
ATOM     57  O8  non d ame     -34.377  14.991  26.972  0.00  0.00    -0.317 OA
BRANCH  57  58
ATOM     58  C29 non d ame     -34.821  16.082  26.160  0.00  0.00     0.052 C 
ATOM     59  H47 non d ame     -34.560  15.814  25.137  0.00  0.00     0.082 H 
ATOM     60  H48 non d ame     -35.864  16.246  26.431  0.00  0.00     0.082 H 
BRANCH  58  61
ATOM     61  C35 non d ame     -34.006  17.340  26.562  0.00  0.00    -0.034 A 
ATOM     62  C30 non d ame     -33.890  18.407  25.677  0.00  0.00    -0.075 A 
ATOM     63  C31 non d ame     -33.158  19.537  26.037  0.00  0.00    -0.082 A 
ATOM     64  H49 non d ame     -34.372  18.357  24.700  0.00  0.00     0.084 H 
ATOM     65  C32 non d ame     -32.539  19.598  27.288  0.00  0.00    -0.083 A 
ATOM     66  H50 non d ame     -33.070  20.372  25.341  0.00  0.00     0.083 H 
ATOM     67  C33 non d ame     -32.655  18.529  28.167  0.00  0.00    -0.082 A 
ATOM     68  H51 non d ame     -31.965  20.478  27.578  0.00  0.00     0.083 H 
ATOM     69  C34 non d ame     -33.387  17.399  27.812  0.00  0.00    -0.075 A 
ATOM     70  H52 non d ame     -32.168  18.579  29.142  0.00  0.00     0.083 H 
ATOM     71  H53 non d ame     -33.474  16.564  28.508  0.00  0.00     0.084 H 
ENDBRANCH  58  61
ENDBRANCH  57  58
ENDBRANCH  55  57
ENDBRANCH  52  55
ENDBRANCH  49  52
ENDBRANCH  47  49
BRANCH  47  72
ATOM     72  C24 non d ame     -29.906  13.706  22.921  0.00  0.00    -0.039 C 
ATOM     73  H35 non d ame     -28.897  13.882  23.297  0.00  0.00     0.036 H 
ATOM     74  H36 non d ame     -30.083  12.921  22.186  0.00  0.00     0.036 H 
BRANCH  72  75
ATOM     75  C25 non d ame     -30.417  15.081  22.278  0.00  0.00    -0.001 C 
ATOM     76  C26 non d ame     -31.100  14.792  20.810  0.00  0.00    -0.035 C 
ATOM     77  C27 non d ame     -30.542  15.624  19.898  0.00  0.00     0.085 C 
ATOM     78  H38 non d ame     -30.819  13.800  20.455  0.00  0.00     0.036 H 
ATOM     79  H39 non d ame     -32.148  15.090  20.819  0.00  0.00     0.036 H 
ATOM     80  N5  non d ame     -29.315  16.224  20.540  0.00  0.00    -0.049 N 
ATOM     81  H40 non d ame     -30.234  14.984  19.071  0.00  0.00     0.075 H 
ATOM     82  H41 non d ame     -31.278  16.411  19.734  0.00  0.00     0.075 H 
ATOM     83  C28 non d ame     -29.444  15.914  22.119  0.00  0.00     0.193 C 
ATOM     84  H42 non d ame     -28.523  15.714  20.176  0.00  0.00     0.280 HD
ATOM     85  H43 non d ame     -29.380  17.222  20.402  0.00  0.00     0.280 HD
ATOM     86  H44 non d ame     -29.740  16.699  22.815  0.00  0.00     0.129 H 
ATOM     87  H37 non d ame     -30.995  15.677  22.984  0.00  0.00     0.046 H 
BRANCH  83  88
ATOM     88  O6  non d ame     -28.209  15.402  22.623  0.00  0.00    -0.369 OA
ATOM     89  H45 non d ame     -27.727  14.971  21.913  0.00  0.00     0.212 HD
ENDBRANCH  83  88
ENDBRANCH  72  75
ENDBRANCH  47  72
ENDBRANCH  45  47
ENDBRANCH   1  43
BRANCH   1  90
ATOM     90  C16 non d ame     -32.387   9.437  23.123  0.00  0.00    -0.035 C 
ATOM     91  H21 non d ame     -33.393   9.042  22.985  0.00  0.00     0.037 H 
ATOM     92  H22 non d ame     -32.109  10.390  22.672  0.00  0.00     0.037 H 
BRANCH  90  93
ATOM     93  C17 non d ame     -31.410   8.369  22.538  0.00  0.00    -0.059 C 
ATOM     94  H23 non d ame     -31.203   7.643  23.324  0.00  0.00     0.038 H 
BRANCH  93  95
ATOM     95  C18 non d ame     -32.034   7.599  21.330  0.00  0.00    -0.073 C 
ATOM     96  H24 non d ame     -31.248   7.072  20.790  0.00  0.00     0.028 H 
ATOM     97  H25 non d ame     -32.766   6.880  21.697  0.00  0.00     0.028 H 
ATOM     98  H26 non d ame     -32.523   8.306  20.661  0.00  0.00     0.028 H 
ENDBRANCH  93  95
BRANCH  93  99
ATOM     99  C19 non d ame     -30.074   9.006  22.145  0.00  0.00    -0.073 C 
ATOM    100  H27 non d ame     -29.603   9.437  23.029  0.00  0.00     0.028 H 
ATOM    101  H28 non d ame     -29.419   8.246  21.719  0.00  0.00     0.028 H 
ATOM    102  H29 non d ame     -30.248   9.790  21.408  0.00  0.00     0.028 H 
ENDBRANCH  93  99
ENDBRANCH  90  93
ENDBRANCH   1  90
TORSDOF 26
ENDMDL
MODEL 10
REMARK VINA RESULT:      -6.8      2.644      9.322
REMARK  26 active torsions:
REMARK  status: ('A' for Active; 'I' for Inactive)
REMARK    1  A    between atoms: C2_2  and  C3_3 
REMARK    2  A    between atoms: C4_6  and  C5_7 
REMARK       I    between atoms: C5_7  and  N2_9 
REMARK    3  A    between atoms: N2_9  and  C6_10 
REMARK    4  A    between atoms: C6_10  and  C7_11 
REMARK    5  A    between atoms: C6_10  and  C8_13 
REMARK       I    between atoms: C7_11  and  N3_14 
REMARK    6  A    between atoms: N3_14  and  C9_15 
REMARK    7  A    between atoms: C9_15  and  C10_16 
REMARK    8  A    between atoms: C9_15  and  C11_18 
REMARK       I    between atoms: C10_16  and  N4_21 
REMARK    9  A    between atoms: C11_18  and  C12_19 
REMARK   10  A    between atoms: C11_18  and  C13_20 
REMARK   11  A    between atoms: N4_21  and  C14_22 
REMARK   12  A    between atoms: C14_22  and  C15_23 
REMARK   13  A    between atoms: C14_22  and  C16_25 
REMARK       I    between atoms: C15_23  and  N6_40 
REMARK   14  A    between atoms: C16_25  and  C17_26 
REMARK   15  A    between atoms: C17_26  and  C18_27 
REMARK   16  A    between atoms: C17_26  and  C19_28 
REMARK   17  A    between atoms: C20_29  and  C21_30 
REMARK   18  A    between atoms: C20_29  and  C24_33 
REMARK   19  A    between atoms: C20_29  and  N6_40 
REMARK   20  A    between atoms: C21_30  and  C22_31 
REMARK   21  A    between atoms: C22_31  and  C23_32 
REMARK   22  A    between atoms: C23_32  and  O8_43 
REMARK   23  A    between atoms: C24_33  and  C25_34 
REMARK   24  A    between atoms: C28_38  and  O6_39 
REMARK   25  A    between atoms: C29_42  and  O8_43 
REMARK   26  A    between atoms: C29_42  and  C35_49 
ROOT
ATOM      1  C14 non d ame     -33.659   9.496  24.643  0.00  0.00     0.089 C 
ATOM      2  H20 non d ame     -33.791   9.314  23.576  0.00  0.00     0.087 H 
ENDROOT
BRANCH   1   3
ATOM      3  N4  non d ame     -34.530  10.602  25.011  0.00  0.00    -0.346 N 
ATOM      4  C10 non d ame     -35.866  10.777  24.334  0.00  0.00     0.241 C 
ATOM      5  O4  non d ame     -36.217  10.015  23.494  0.00  0.00    -0.271 OA
ATOM      6  H19 non d ame     -34.211  11.240  25.727  0.00  0.00     0.163 HD
BRANCH   4   7
ATOM      7  C9  non d ame     -36.757  11.924  24.731  0.00  0.00     0.092 C 
ATOM      8  H11 non d ame     -37.098  11.775  25.756  0.00  0.00     0.088 H 
BRANCH   7   9
ATOM      9  N3  non d ame     -35.989  13.172  24.707  0.00  0.00    -0.346 N 
ATOM     10  C7  non d ame     -35.973  14.031  25.865  0.00  0.00     0.240 C 
ATOM     11  O3  non d ame     -36.575  13.735  26.824  0.00  0.00    -0.271 OA
ATOM     12  H10 non d ame     -35.466  13.442  23.886  0.00  0.00     0.163 HD
BRANCH  10  13
ATOM     13  C6  non d ame     -35.156  15.360  25.832  0.00  0.00     0.086 C 
ATOM     14  H6  non d ame     -34.627  15.553  26.765  0.00  0.00     0.086 H 
BRANCH  13  15
ATOM     15  N2  non d ame     -34.144  15.265  24.792  0.00  0.00    -0.343 N 
ATOM     16  C5  non d ame     -32.792  15.763  25.054  0.00  0.00     0.273 C 
ATOM     17  O2  non d ame     -32.529  16.241  26.103  0.00  0.00    -0.266 OA
ATOM     18  H5  non d ame     -34.378  14.858  23.898  0.00  0.00     0.163 HD
BRANCH  16  19
ATOM     19  C4  non d ame     -31.712  15.667  23.965  0.00  0.00     0.154 A 
ATOM     20  C1  non d ame     -31.906  15.371  22.578  0.00  0.00    -0.017 A 
ATOM     21  C2  non d ame     -30.611  15.404  22.015  0.00  0.00     0.077 A 
ATOM     22  H1  non d ame     -32.843  15.164  22.060  0.00  0.00     0.091 H 
ATOM     23  O1  non d ame     -29.779  15.689  22.973  0.00  0.00    -0.218 OA
ATOM     24  N1  non d ame     -30.397  15.846  24.120  0.00  0.00    -0.123 NA
BRANCH  21  25
ATOM     25  C3  non d ame     -30.257  15.155  20.555  0.00  0.00    -0.029 C 
ATOM     26  H2  non d ame     -29.257  14.728  20.491  0.00  0.00     0.036 H 
ATOM     27  H3  non d ame     -30.976  14.461  20.120  0.00  0.00     0.036 H 
ATOM     28  H4  non d ame     -30.285  16.097  20.007  0.00  0.00     0.036 H 
ENDBRANCH  21  25
ENDBRANCH  16  19
ENDBRANCH  13  15
BRANCH  13  29
ATOM     29  C8  non d ame     -36.081  16.516  25.548  0.00  0.00    -0.049 C 
ATOM     30  H7  non d ame     -36.482  16.899  26.486  0.00  0.00     0.030 H 
ATOM     31  H8  non d ame     -35.529  17.306  25.039  0.00  0.00     0.030 H 
ATOM     32  H9  non d ame     -36.901  16.178  24.913  0.00  0.00     0.030 H 
ENDBRANCH  13  29
ENDBRANCH  10  13
ENDBRANCH   7   9
BRANCH   7  33
ATOM     33  C11 non d ame     -37.944  12.029  23.729  0.00  0.00    -0.033 C 
ATOM     34  H12 non d ame     -37.920  11.142  23.096  0.00  0.00     0.042 H 
BRANCH  33  35
ATOM     35  C12 non d ame     -39.317  12.037  24.472  0.00  0.00    -0.071 C 
ATOM     36  H13 non d ame     -39.620  13.066  24.665  0.00  0.00     0.028 H 
ATOM     37  H14 non d ame     -40.067  11.546  23.854  0.00  0.00     0.028 H 
ATOM     38  H15 non d ame     -39.220  11.504  25.419  0.00  0.00     0.028 H 
ENDBRANCH  33  35
BRANCH  33  39
ATOM     39  C13 non d ame     -37.791  13.284  22.811  0.00  0.00    -0.071 C 
ATOM     40  H16 non d ame     -36.905  13.845  23.107  0.00  0.00     0.028 H 
ATOM     41  H17 non d ame     -37.688  12.964  21.773  0.00  0.00     0.028 H 
ATOM     42  H18 non d ame     -38.673  13.916  22.909  0.00  0.00     0.028 H 
ENDBRANCH  33  39
ENDBRANCH   7  33
ENDBRANCH   4   7
ENDBRANCH   1   3
BRANCH   1  43
ATOM     43  C15 non d ame     -34.042   8.257  25.502  0.00  0.00     0.240 C 
ATOM     44  O5  non d ame     -33.667   7.176  25.181  0.00  0.00    -0.271 OA
ATOM     45  N6  non d ame     -34.870   8.419  26.731  0.00  0.00    -0.355 N 
ATOM     46  H46 non d ame     -35.191   9.332  27.017  0.00  0.00     0.162 HD
BRANCH  45  47
ATOM     47  C20 non d ame     -35.225   7.231  27.538  0.00  0.00     0.013 C 
ATOM     48  H30 non d ame     -35.445   6.413  26.851  0.00  0.00     0.072 H 
BRANCH  47  49
ATOM     49  C21 non d ame     -36.443   7.543  28.377  0.00  0.00    -0.038 C 
ATOM     50  H31 non d ame     -36.883   8.438  27.938  0.00  0.00     0.036 H 
ATOM     51  H32 non d ame     -37.017   6.617  28.418  0.00  0.00     0.036 H 
BRANCH  49  52
ATOM     52  C22 non d ame     -36.089   7.901  29.837  0.00  0.00     0.018 C 
ATOM     53  H33 non d ame     -36.811   7.368  30.455  0.00  0.00     0.048 H 
ATOM     54  H34 non d ame     -35.024   7.695  29.941  0.00  0.00     0.048 H 
BRANCH  52  55
ATOM     55  C23 non d ame     -36.268   9.408  30.173  0.00  0.00     0.259 C 
ATOM     56  O7  non d ame     -37.297   9.810  30.611  0.00  0.00    -0.265 OA
BRANCH  55  57
ATOM     57  O8  non d ame     -35.191  10.307  29.939  0.00  0.00    -0.317 OA
BRANCH  57  58
ATOM     58  C29 non d ame     -33.921   9.821  30.383  0.00  0.00     0.052 C 
ATOM     59  H47 non d ame     -33.948   9.878  31.471  0.00  0.00     0.082 H 
ATOM     60  H48 non d ame     -33.784   8.859  29.891  0.00  0.00     0.082 H 
BRANCH  58  61
ATOM     61  C35 non d ame     -32.829  10.796  29.867  0.00  0.00    -0.034 A 
ATOM     62  C30 non d ame     -32.657  10.989  28.500  0.00  0.00    -0.075 A 
ATOM     63  C31 non d ame     -31.676  11.864  28.037  0.00  0.00    -0.082 A 
ATOM     64  H49 non d ame     -33.290  10.454  27.792  0.00  0.00     0.084 H 
ATOM     65  C32 non d ame     -30.863  12.546  28.946  0.00  0.00    -0.083 A 
ATOM     66  H50 non d ame     -31.544  12.014  26.965  0.00  0.00     0.083 H 
ATOM     67  C33 non d ame     -31.036  12.348  30.309  0.00  0.00    -0.082 A 
ATOM     68  H51 non d ame     -30.094  13.233  28.592  0.00  0.00     0.083 H 
ATOM     69  C34 non d ame     -32.017  11.476  30.777  0.00  0.00    -0.075 A 
ATOM     70  H52 non d ame     -30.399  12.880  31.016  0.00  0.00     0.083 H 
ATOM     71  H53 non d ame     -32.148  11.327  31.849  0.00  0.00     0.084 H 
ENDBRANCH  58  61
ENDBRANCH  57  58
ENDBRANCH  55  57
ENDBRANCH  52  55
ENDBRANCH  49  52
ENDBRANCH  47  49
BRANCH  47  72
ATOM     72  C24 non d ame     -34.058   6.859  28.450  0.00  0.00    -0.039 C 
ATOM     73  H35 non d ame     -33.199   7.405  28.059  0.00  0.00     0.036 H 
ATOM     74  H36 non d ame     -34.410   7.050  29.464  0.00  0.00     0.036 H 
BRANCH  72  75
ATOM     75  C25 non d ame     -33.708   5.298  28.358  0.00  0.00    -0.001 C 
ATOM     76  C26 non d ame     -33.845   4.605  29.843  0.00  0.00    -0.035 C 
ATOM     77  C27 non d ame     -32.708   3.918  30.110  0.00  0.00     0.085 C 
ATOM     78  H38 non d ame     -33.864   5.375  30.614  0.00  0.00     0.036 H 
ATOM     79  H39 non d ame     -34.612   3.831  29.826  0.00  0.00     0.036 H 
ATOM     80  N5  non d ame     -31.683   4.347  29.089  0.00  0.00    -0.049 N 
ATOM     81  H40 non d ame     -32.390   4.255  31.097  0.00  0.00     0.075 H 
ATOM     82  H41 non d ame     -32.956   2.870  29.946  0.00  0.00     0.075 H 
ATOM     83  C28 non d ame     -32.504   5.114  27.929  0.00  0.00     0.193 C 
ATOM     84  H42 non d ame     -31.080   5.014  29.550  0.00  0.00     0.280 HD
ATOM     85  H43 non d ame     -31.294   3.499  28.701  0.00  0.00     0.280 HD
ATOM     86  H44 non d ame     -32.706   4.623  26.977  0.00  0.00     0.129 H 
ATOM     87  H37 non d ame     -34.224   4.807  27.532  0.00  0.00     0.046 H 
BRANCH  83  88
ATOM     88  O6  non d ame     -31.856   6.343  27.596  0.00  0.00    -0.369 OA
ATOM     89  H45 non d ame     -30.905   6.230  27.658  0.00  0.00     0.212 HD
ENDBRANCH  83  88
ENDBRANCH  72  75
ENDBRANCH  47  72
ENDBRANCH  45  47
ENDBRANCH   1  43
BRANCH   1  90
ATOM     90  C16 non d ame     -32.216   9.886  24.924  0.00  0.00    -0.035 C 
ATOM     91  H21 non d ame     -32.262  10.570  25.771  0.00  0.00     0.037 H 
ATOM     92  H22 non d ame     -31.675   8.944  25.013  0.00  0.00     0.037 H 
BRANCH  90  93
ATOM     93  C17 non d ame     -31.542  10.674  23.757  0.00  0.00    -0.059 C 
ATOM     94  H23 non d ame     -32.291  10.816  22.978  0.00  0.00     0.038 H 
BRANCH  93  95
ATOM     95  C18 non d ame     -31.049  12.087  24.207  0.00  0.00    -0.073 C 
ATOM     96  H24 non d ame     -30.505  12.560  23.390  0.00  0.00     0.028 H 
ATOM     97  H25 non d ame     -31.907  12.703  24.476  0.00  0.00     0.028 H 
ATOM     98  H26 non d ame     -30.391  11.984  25.070  0.00  0.00     0.028 H 
ENDBRANCH  93  95
BRANCH  93  99
ATOM     99  C19 non d ame     -30.395   9.867  23.143  0.00  0.00    -0.073 C 
ATOM    100  H27 non d ame     -29.964  10.423  22.310  0.00  0.00     0.028 H 
ATOM    101  H28 non d ame     -29.628   9.693  23.898  0.00  0.00     0.028 H 
ATOM    102  H29 non d ame     -30.774   8.911  22.785  0.00  0.00     0.028 H 
ENDBRANCH  93  99
ENDBRANCH  90  93
ENDBRANCH   1  90
TORSDOF 26
ENDMDL
MODEL 11
REMARK VINA RESULT:      -6.7      3.153      7.311
REMARK  26 active torsions:
REMARK  status: ('A' for Active; 'I' for Inactive)
REMARK    1  A    between atoms: C2_2  and  C3_3 
REMARK    2  A    between atoms: C4_6  and  C5_7 
REMARK       I    between atoms: C5_7  and  N2_9 
REMARK    3  A    between atoms: N2_9  and  C6_10 
REMARK    4  A    between atoms: C6_10  and  C7_11 
REMARK    5  A    between atoms: C6_10  and  C8_13 
REMARK       I    between atoms: C7_11  and  N3_14 
REMARK    6  A    between atoms: N3_14  and  C9_15 
REMARK    7  A    between atoms: C9_15  and  C10_16 
REMARK    8  A    between atoms: C9_15  and  C11_18 
REMARK       I    between atoms: C10_16  and  N4_21 
REMARK    9  A    between atoms: C11_18  and  C12_19 
REMARK   10  A    between atoms: C11_18  and  C13_20 
REMARK   11  A    between atoms: N4_21  and  C14_22 
REMARK   12  A    between atoms: C14_22  and  C15_23 
REMARK   13  A    between atoms: C14_22  and  C16_25 
REMARK       I    between atoms: C15_23  and  N6_40 
REMARK   14  A    between atoms: C16_25  and  C17_26 
REMARK   15  A    between atoms: C17_26  and  C18_27 
REMARK   16  A    between atoms: C17_26  and  C19_28 
REMARK   17  A    between atoms: C20_29  and  C21_30 
REMARK   18  A    between atoms: C20_29  and  C24_33 
REMARK   19  A    between atoms: C20_29  and  N6_40 
REMARK   20  A    between atoms: C21_30  and  C22_31 
REMARK   21  A    between atoms: C22_31  and  C23_32 
REMARK   22  A    between atoms: C23_32  and  O8_43 
REMARK   23  A    between atoms: C24_33  and  C25_34 
REMARK   24  A    between atoms: C28_38  and  O6_39 
REMARK   25  A    between atoms: C29_42  and  O8_43 
REMARK   26  A    between atoms: C29_42  and  C35_49 
ROOT
ATOM      1  C14 non d ame     -35.227  10.515  24.873  0.00  0.00     0.089 C 
ATOM      2  H20 non d ame     -35.220  10.983  23.889  0.00  0.00     0.087 H 
ENDROOT
BRANCH   1   3
ATOM      3  N4  non d ame     -34.344   9.359  24.815  0.00  0.00    -0.346 N 
ATOM      4  C10 non d ame     -34.016   8.717  23.491  0.00  0.00     0.241 C 
ATOM      5  O4  non d ame     -34.477   9.147  22.485  0.00  0.00    -0.271 OA
ATOM      6  H19 non d ame     -33.964   9.007  25.683  0.00  0.00     0.163 HD
BRANCH   4   7
ATOM      7  C9  non d ame     -33.096   7.525  23.449  0.00  0.00     0.092 C 
ATOM      8  H11 non d ame     -33.336   6.918  22.576  0.00  0.00     0.088 H 
BRANCH   7   9
ATOM      9  N3  non d ame     -31.712   7.981  23.293  0.00  0.00    -0.346 N 
ATOM     10  C7  non d ame     -31.126   8.069  21.978  0.00  0.00     0.240 C 
ATOM     11  O3  non d ame     -31.754   7.775  21.035  0.00  0.00    -0.271 OA
ATOM     12  H10 non d ame     -31.157   8.236  24.097  0.00  0.00     0.163 HD
BRANCH  10  13
ATOM     13  C6  non d ame     -29.651   8.552  21.818  0.00  0.00     0.086 C 
ATOM     14  H6  non d ame     -29.168   8.145  20.930  0.00  0.00     0.086 H 
BRANCH  13  15
ATOM     15  N2  non d ame     -29.642   9.998  21.671  0.00  0.00    -0.343 N 
ATOM     16  C5  non d ame     -30.002  10.841  22.813  0.00  0.00     0.273 C 
ATOM     17  O2  non d ame     -30.301  10.346  23.844  0.00  0.00    -0.266 OA
ATOM     18  H5  non d ame     -29.388  10.412  20.786  0.00  0.00     0.163 HD
BRANCH  16  19
ATOM     19  C4  non d ame     -29.995  12.371  22.673  0.00  0.00     0.154 A 
ATOM     20  C1  non d ame     -30.734  13.315  23.455  0.00  0.00    -0.017 A 
ATOM     21  C2  non d ame     -30.379  14.578  22.932  0.00  0.00     0.077 A 
ATOM     22  H1  non d ame     -31.422  13.114  24.276  0.00  0.00     0.091 H 
ATOM     23  O1  non d ame     -29.534  14.373  21.964  0.00  0.00    -0.218 OA
ATOM     24  N1  non d ame     -29.295  13.093  21.794  0.00  0.00    -0.123 NA
BRANCH  21  25
ATOM     25  C3  non d ame     -30.890  15.929  23.413  0.00  0.00    -0.029 C 
ATOM     26  H2  non d ame     -30.615  16.071  24.458  0.00  0.00     0.036 H 
ATOM     27  H3  non d ame     -30.446  16.721  22.810  0.00  0.00     0.036 H 
ATOM     28  H4  non d ame     -31.975  15.964  23.315  0.00  0.00     0.036 H 
ENDBRANCH  21  25
ENDBRANCH  16  19
ENDBRANCH  13  15
BRANCH  13  29
ATOM     29  C8  non d ame     -28.854   8.151  23.033  0.00  0.00    -0.049 C 
ATOM     30  H7  non d ame     -29.052   7.105  23.269  0.00  0.00     0.030 H 
ATOM     31  H8  non d ame     -27.791   8.282  22.830  0.00  0.00     0.030 H 
ATOM     32  H9  non d ame     -29.142   8.775  23.879  0.00  0.00     0.030 H 
ENDBRANCH  13  29
ENDBRANCH  10  13
ENDBRANCH   7   9
BRANCH   7  33
ATOM     33  C11 non d ame     -33.228   6.721  24.776  0.00  0.00    -0.033 C 
ATOM     34  H12 non d ame     -33.560   7.415  25.548  0.00  0.00     0.042 H 
BRANCH  33  35
ATOM     35  C12 non d ame     -34.307   5.600  24.656  0.00  0.00    -0.071 C 
ATOM     36  H13 non d ame     -33.823   4.624  24.693  0.00  0.00     0.028 H 
ATOM     37  H14 non d ame     -35.014   5.687  25.481  0.00  0.00     0.028 H 
ATOM     38  H15 non d ame     -34.838   5.706  23.710  0.00  0.00     0.028 H 
ENDBRANCH  33  35
BRANCH  33  39
ATOM     39  C13 non d ame     -31.848   6.134  25.214  0.00  0.00    -0.071 C 
ATOM     40  H16 non d ame     -31.224   5.977  24.333  0.00  0.00     0.028 H 
ATOM     41  H17 non d ame     -31.354   6.833  25.890  0.00  0.00     0.028 H 
ATOM     42  H18 non d ame     -32.003   5.184  25.725  0.00  0.00     0.028 H 
ENDBRANCH  33  39
ENDBRANCH   7  33
ENDBRANCH   4   7
ENDBRANCH   1   3
BRANCH   1  43
ATOM     43  C15 non d ame     -34.713  11.475  25.984  0.00  0.00     0.240 C 
ATOM     44  O5  non d ame     -35.314  11.573  27.005  0.00  0.00    -0.271 OA
ATOM     45  N6  non d ame     -33.466  12.266  25.779  0.00  0.00    -0.355 N 
ATOM     46  H46 non d ame     -32.944  12.187  24.918  0.00  0.00     0.162 HD
BRANCH  45  47
ATOM     47  C20 non d ame     -32.990  13.173  26.846  0.00  0.00     0.013 C 
ATOM     48  H30 non d ame     -33.557  12.954  27.750  0.00  0.00     0.072 H 
BRANCH  47  49
ATOM     49  C21 non d ame     -33.225  14.606  26.424  0.00  0.00    -0.038 C 
ATOM     50  H31 non d ame     -32.245  15.082  26.439  0.00  0.00     0.036 H 
ATOM     51  H32 non d ame     -33.790  14.550  25.494  0.00  0.00     0.036 H 
BRANCH  49  52
ATOM     52  C22 non d ame     -34.106  15.388  27.423  0.00  0.00     0.018 C 
ATOM     53  H33 non d ame     -34.678  16.094  26.823  0.00  0.00     0.048 H 
ATOM     54  H34 non d ame     -34.622  14.632  28.016  0.00  0.00     0.048 H 
BRANCH  52  55
ATOM     55  C23 non d ame     -33.295  16.245  28.435  0.00  0.00     0.259 C 
ATOM     56  O7  non d ame     -32.631  15.724  29.271  0.00  0.00    -0.265 OA
BRANCH  55  57
ATOM     57  O8  non d ame     -33.365  17.664  28.359  0.00  0.00    -0.317 OA
BRANCH  57  58
ATOM     58  C29 non d ame     -33.156  18.188  27.045  0.00  0.00     0.052 C 
ATOM     59  H47 non d ame     -32.329  18.893  27.137  0.00  0.00     0.082 H 
ATOM     60  H48 non d ame     -33.062  17.320  26.393  0.00  0.00     0.082 H 
BRANCH  58  61
ATOM     61  C35 non d ame     -34.429  18.974  26.634  0.00  0.00    -0.034 A 
ATOM     62  C30 non d ame     -35.132  18.613  25.490  0.00  0.00    -0.075 A 
ATOM     63  C31 non d ame     -36.276  19.320  25.121  0.00  0.00    -0.082 A 
ATOM     64  H49 non d ame     -34.787  17.777  24.881  0.00  0.00     0.084 H 
ATOM     65  C32 non d ame     -36.715  20.393  25.900  0.00  0.00    -0.083 A 
ATOM     66  H50 non d ame     -36.826  19.033  24.224  0.00  0.00     0.083 H 
ATOM     67  C33 non d ame     -36.008  20.752  27.040  0.00  0.00    -0.082 A 
ATOM     68  H51 non d ame     -37.609  20.951  25.619  0.00  0.00     0.083 H 
ATOM     69  C34 non d ame     -34.866  20.047  27.414  0.00  0.00    -0.075 A 
ATOM     70  H52 non d ame     -36.352  21.592  27.645  0.00  0.00     0.083 H 
ATOM     71  H53 non d ame     -34.317  20.335  28.311  0.00  0.00     0.084 H 
ENDBRANCH  58  61
ENDBRANCH  57  58
ENDBRANCH  55  57
ENDBRANCH  52  55
ENDBRANCH  49  52
ENDBRANCH  47  49
BRANCH  47  72
ATOM     72  C24 non d ame     -31.499  12.950  27.086  0.00  0.00    -0.039 C 
ATOM     73  H35 non d ame     -31.177  12.269  26.298  0.00  0.00     0.036 H 
ATOM     74  H36 non d ame     -31.064  13.948  27.154  0.00  0.00     0.036 H 
BRANCH  72  75
ATOM     75  C25 non d ame     -31.226  12.219  28.485  0.00  0.00    -0.001 C 
ATOM     76  C26 non d ame     -32.654  11.884  29.229  0.00  0.00    -0.035 C 
ATOM     77  C27 non d ame     -32.605  12.354  30.498  0.00  0.00     0.085 C 
ATOM     78  H38 non d ame     -33.457  12.463  28.774  0.00  0.00     0.036 H 
ATOM     79  H39 non d ame     -32.764  10.808  29.360  0.00  0.00     0.036 H 
ATOM     80  N5  non d ame     -31.404  13.265  30.586  0.00  0.00    -0.049 N 
ATOM     81  H40 non d ame     -33.511  12.947  30.624  0.00  0.00     0.075 H 
ATOM     82  H41 non d ame     -32.434  11.480  31.126  0.00  0.00     0.075 H 
ATOM     83  C28 non d ame     -30.519  12.961  29.270  0.00  0.00     0.193 C 
ATOM     84  H42 non d ame     -31.756  14.209  30.525  0.00  0.00     0.280 HD
ATOM     85  H43 non d ame     -30.882  12.971  31.400  0.00  0.00     0.280 HD
ATOM     86  H44 non d ame     -29.610  12.364  29.341  0.00  0.00     0.129 H 
ATOM     87  H37 non d ame     -30.512  11.400  28.391  0.00  0.00     0.046 H 
BRANCH  83  88
ATOM     88  O6  non d ame     -30.126  14.184  28.647  0.00  0.00    -0.369 OA
ATOM     89  H45 non d ame     -30.086  14.881  29.307  0.00  0.00     0.212 HD
ENDBRANCH  83  88
ENDBRANCH  72  75
ENDBRANCH  47  72
ENDBRANCH  45  47
ENDBRANCH   1  43
BRANCH   1  90
ATOM     90  C16 non d ame     -36.634  10.048  25.211  0.00  0.00    -0.035 C 
ATOM     91  H21 non d ame     -36.962  10.689  26.029  0.00  0.00     0.037 H 
ATOM     92  H22 non d ame     -37.174  10.052  24.265  0.00  0.00     0.037 H 
BRANCH  90  93
ATOM     93  C17 non d ame     -36.696   8.583  25.749  0.00  0.00    -0.059 C 
ATOM     94  H23 non d ame     -35.686   8.175  25.713  0.00  0.00     0.038 H 
BRANCH  93  95
ATOM     95  C18 non d ame     -37.184   8.519  27.231  0.00  0.00    -0.073 C 
ATOM     96  H24 non d ame     -37.363   9.529  27.599  0.00  0.00     0.028 H 
ATOM     97  H25 non d ame     -38.108   7.944  27.286  0.00  0.00     0.028 H 
ATOM     98  H26 non d ame     -36.421   8.040  27.844  0.00  0.00     0.028 H 
ENDBRANCH  93  95
BRANCH  93  99
ATOM     99  C19 non d ame     -37.572   7.707  24.849  0.00  0.00    -0.073 C 
ATOM    100  H27 non d ame     -38.595   8.082  24.862  0.00  0.00     0.028 H 
ATOM    101  H28 non d ame     -37.188   7.735  23.829  0.00  0.00     0.028 H 
ATOM    102  H29 non d ame     -37.556   6.681  25.214  0.00  0.00     0.028 H 
ENDBRANCH  93  99
ENDBRANCH  90  93
ENDBRANCH   1  90
TORSDOF 26
ENDMDL
MODEL 12
REMARK VINA RESULT:      -6.6      3.671      8.353
REMARK  26 active torsions:
REMARK  status: ('A' for Active; 'I' for Inactive)
REMARK    1  A    between atoms: C2_2  and  C3_3 
REMARK    2  A    between atoms: C4_6  and  C5_7 
REMARK       I    between atoms: C5_7  and  N2_9 
REMARK    3  A    between atoms: N2_9  and  C6_10 
REMARK    4  A    between atoms: C6_10  and  C7_11 
REMARK    5  A    between atoms: C6_10  and  C8_13 
REMARK       I    between atoms: C7_11  and  N3_14 
REMARK    6  A    between atoms: N3_14  and  C9_15 
REMARK    7  A    between atoms: C9_15  and  C10_16 
REMARK    8  A    between atoms: C9_15  and  C11_18 
REMARK       I    between atoms: C10_16  and  N4_21 
REMARK    9  A    between atoms: C11_18  and  C12_19 
REMARK   10  A    between atoms: C11_18  and  C13_20 
REMARK   11  A    between atoms: N4_21  and  C14_22 
REMARK   12  A    between atoms: C14_22  and  C15_23 
REMARK   13  A    between atoms: C14_22  and  C16_25 
REMARK       I    between atoms: C15_23  and  N6_40 
REMARK   14  A    between atoms: C16_25  and  C17_26 
REMARK   15  A    between atoms: C17_26  and  C18_27 
REMARK   16  A    between atoms: C17_26  and  C19_28 
REMARK   17  A    between atoms: C20_29  and  C21_30 
REMARK   18  A    between atoms: C20_29  and  C24_33 
REMARK   19  A    between atoms: C20_29  and  N6_40 
REMARK   20  A    between atoms: C21_30  and  C22_31 
REMARK   21  A    between atoms: C22_31  and  C23_32 
REMARK   22  A    between atoms: C23_32  and  O8_43 
REMARK   23  A    between atoms: C24_33  and  C25_34 
REMARK   24  A    between atoms: C28_38  and  O6_39 
REMARK   25  A    between atoms: C29_42  and  O8_43 
REMARK   26  A    between atoms: C29_42  and  C35_49 
ROOT
ATOM      1  C14 non d ame     -36.163  10.112  31.459  0.00  0.00     0.089 C 
ATOM      2  H20 non d ame     -36.824  10.723  32.075  0.00  0.00     0.087 H 
ENDROOT
BRANCH   1   3
ATOM      3  N4  non d ame     -36.721  10.084  30.115  0.00  0.00    -0.346 N 
ATOM      4  C10 non d ame     -38.041  10.752  29.824  0.00  0.00     0.241 C 
ATOM      5  O4  non d ame     -38.638  11.305  30.688  0.00  0.00    -0.271 OA
ATOM      6  H19 non d ame     -36.199   9.606  29.394  0.00  0.00     0.163 HD
BRANCH   4   7
ATOM      7  C9  non d ame     -38.601  10.717  28.426  0.00  0.00     0.092 C 
ATOM      8  H11 non d ame     -39.466  11.379  28.369  0.00  0.00     0.088 H 
BRANCH   7   9
ATOM      9  N3  non d ame     -37.601  11.231  27.485  0.00  0.00    -0.346 N 
ATOM     10  C7  non d ame     -37.771  12.535  26.893  0.00  0.00     0.240 C 
ATOM     11  O3  non d ame     -38.708  13.183  27.161  0.00  0.00    -0.271 OA
ATOM     12  H10 non d ame     -36.788  10.682  27.243  0.00  0.00     0.163 HD
BRANCH  10  13
ATOM     13  C6  non d ame     -36.704  13.074  25.890  0.00  0.00     0.086 C 
ATOM     14  H6  non d ame     -36.742  12.572  24.924  0.00  0.00     0.086 H 
BRANCH  13  15
ATOM     15  N2  non d ame     -36.964  14.482  25.638  0.00  0.00    -0.343 N 
ATOM     16  C5  non d ame     -37.095  14.955  24.258  0.00  0.00     0.273 C 
ATOM     17  O2  non d ame     -36.986  14.196  23.358  0.00  0.00    -0.266 OA
ATOM     18  H5  non d ame     -37.053  15.124  26.413  0.00  0.00     0.163 HD
BRANCH  16  19
ATOM     19  C4  non d ame     -37.371  16.440  23.976  0.00  0.00     0.154 A 
ATOM     20  C1  non d ame     -36.870  17.566  24.704  0.00  0.00    -0.017 A 
ATOM     21  C2  non d ame     -37.413  18.693  24.048  0.00  0.00     0.077 A 
ATOM     22  H1  non d ame     -36.214  17.565  25.574  0.00  0.00     0.091 H 
ATOM     23  O1  non d ame     -38.138  18.255  23.061  0.00  0.00    -0.218 OA
ATOM     24  N1  non d ame     -38.129  16.944  22.998  0.00  0.00    -0.123 NA
BRANCH  21  25
ATOM     25  C3  non d ame     -37.189  20.151  24.428  0.00  0.00    -0.029 C 
ATOM     26  H2  non d ame     -36.545  20.204  25.304  0.00  0.00     0.036 H 
ATOM     27  H3  non d ame     -36.716  20.674  23.597  0.00  0.00     0.036 H 
ATOM     28  H4  non d ame     -38.148  20.620  24.652  0.00  0.00     0.036 H 
ENDBRANCH  21  25
ENDBRANCH  16  19
ENDBRANCH  13  15
BRANCH  13  29
ATOM     29  C8  non d ame     -35.326  12.900  26.476  0.00  0.00    -0.049 C 
ATOM     30  H7  non d ame     -34.901  13.879  26.702  0.00  0.00     0.030 H 
ATOM     31  H8  non d ame     -35.393  12.313  27.392  0.00  0.00     0.030 H 
ATOM     32  H9  non d ame     -34.688  12.384  25.759  0.00  0.00     0.030 H 
ENDBRANCH  13  29
ENDBRANCH  10  13
ENDBRANCH   7   9
BRANCH   7  33
ATOM     33  C11 non d ame     -38.960   9.250  28.047  0.00  0.00    -0.033 C 
ATOM     34  H12 non d ame     -38.949   8.662  28.965  0.00  0.00     0.042 H 
BRANCH  33  35
ATOM     35  C12 non d ame     -40.397   9.154  27.447  0.00  0.00    -0.071 C 
ATOM     36  H13 non d ame     -40.802  10.157  27.310  0.00  0.00     0.028 H 
ATOM     37  H14 non d ame     -40.355   8.645  26.484  0.00  0.00     0.028 H 
ATOM     38  H15 non d ame     -41.039   8.594  28.127  0.00  0.00     0.028 H 
ENDBRANCH  33  35
BRANCH  33  39
ATOM     39  C13 non d ame     -37.898   8.648  27.073  0.00  0.00    -0.071 C 
ATOM     40  H16 non d ame     -37.289   9.451  26.657  0.00  0.00     0.028 H 
ATOM     41  H17 non d ame     -37.259   7.952  27.618  0.00  0.00     0.028 H 
ATOM     42  H18 non d ame     -38.404   8.119  26.266  0.00  0.00     0.028 H 
ENDBRANCH  33  39
ENDBRANCH   7  33
ENDBRANCH   4   7
ENDBRANCH   1   3
BRANCH   1  43
ATOM     43  C15 non d ame     -34.723  10.696  31.385  0.00  0.00     0.240 C 
ATOM     44  O5  non d ame     -34.017  10.651  32.340  0.00  0.00    -0.271 OA
ATOM     45  N6  non d ame     -34.221  11.305  30.120  0.00  0.00    -0.355 N 
ATOM     46  H46 non d ame     -34.810  11.345  29.301  0.00  0.00     0.162 HD
BRANCH  45  47
ATOM     47  C20 non d ame     -32.849  11.854  30.065  0.00  0.00     0.013 C 
ATOM     48  H30 non d ame     -32.445  11.848  31.077  0.00  0.00     0.072 H 
BRANCH  47  49
ATOM     49  C21 non d ame     -32.899  13.270  29.537  0.00  0.00    -0.038 C 
ATOM     50  H31 non d ame     -33.053  13.179  28.462  0.00  0.00     0.036 H 
ATOM     51  H32 non d ame     -33.635  13.787  30.152  0.00  0.00     0.036 H 
BRANCH  49  52
ATOM     52  C22 non d ame     -31.565  14.026  29.724  0.00  0.00     0.018 C 
ATOM     53  H33 non d ame     -31.203  13.745  30.713  0.00  0.00     0.048 H 
ATOM     54  H34 non d ame     -30.970  13.798  28.840  0.00  0.00     0.048 H 
BRANCH  52  55
ATOM     55  C23 non d ame     -31.720  15.572  29.749  0.00  0.00     0.259 C 
ATOM     56  O7  non d ame     -30.952  16.246  30.356  0.00  0.00    -0.265 OA
BRANCH  55  57
ATOM     57  O8  non d ame     -32.801  16.175  29.047  0.00  0.00    -0.317 OA
BRANCH  57  58
ATOM     58  C29 non d ame     -32.607  16.249  27.632  0.00  0.00     0.052 C 
ATOM     59  H47 non d ame     -31.558  16.002  27.464  0.00  0.00     0.082 H 
ATOM     60  H48 non d ame     -33.389  15.629  27.194  0.00  0.00     0.082 H 
BRANCH  58  61
ATOM     61  C35 non d ame     -32.841  17.719  27.192  0.00  0.00    -0.034 A 
ATOM     62  C30 non d ame     -32.640  18.757  28.096  0.00  0.00    -0.075 A 
ATOM     63  C31 non d ame     -32.850  20.077  27.701  0.00  0.00    -0.082 A 
ATOM     64  H49 non d ame     -32.317  18.536  29.114  0.00  0.00     0.084 H 
ATOM     65  C32 non d ame     -33.266  20.358  26.397  0.00  0.00    -0.083 A 
ATOM     66  H50 non d ame     -32.690  20.889  28.412  0.00  0.00     0.083 H 
ATOM     67  C33 non d ame     -33.469  19.318  25.499  0.00  0.00    -0.082 A 
ATOM     68  H51 non d ame     -33.433  21.387  26.080  0.00  0.00     0.083 H 
ATOM     69  C34 non d ame     -33.258  17.997  25.889  0.00  0.00    -0.075 A 
ATOM     70  H52 non d ame     -33.796  19.540  24.483  0.00  0.00     0.083 H 
ATOM     71  H53 non d ame     -33.419  17.186  25.178  0.00  0.00     0.084 H 
ENDBRANCH  58  61
ENDBRANCH  57  58
ENDBRANCH  55  57
ENDBRANCH  52  55
ENDBRANCH  49  52
ENDBRANCH  47  49
BRANCH  47  72
ATOM     72  C24 non d ame     -31.985  10.996  29.143  0.00  0.00    -0.039 C 
ATOM     73  H35 non d ame     -31.224  11.670  28.749  0.00  0.00     0.036 H 
ATOM     74  H36 non d ame     -31.693  10.133  29.741  0.00  0.00     0.036 H 
BRANCH  72  75
ATOM     75  C25 non d ame     -32.821  10.444  27.893  0.00  0.00    -0.001 C 
ATOM     76  C26 non d ame     -33.003   8.814  28.016  0.00  0.00    -0.035 C 
ATOM     77  C27 non d ame     -32.613   8.242  26.852  0.00  0.00     0.085 C 
ATOM     78  H38 non d ame     -32.300   8.414  28.746  0.00  0.00     0.036 H 
ATOM     79  H39 non d ame     -34.061   8.560  28.083  0.00  0.00     0.036 H 
ATOM     80  N5  non d ame     -31.875   9.299  26.066  0.00  0.00    -0.049 N 
ATOM     81  H40 non d ame     -31.913   7.456  27.135  0.00  0.00     0.075 H 
ATOM     82  H41 non d ame     -33.534   7.989  26.329  0.00  0.00     0.075 H 
ATOM     83  C28 non d ame     -32.222  10.706  26.779  0.00  0.00     0.193 C 
ATOM     84  H42 non d ame     -30.890   9.111  26.188  0.00  0.00     0.280 HD
ATOM     85  H43 non d ame     -32.278   9.299  25.140  0.00  0.00     0.280 HD
ATOM     86  H44 non d ame     -32.937  11.394  26.326  0.00  0.00     0.129 H 
ATOM     87  H37 non d ame     -33.720  11.031  27.705  0.00  0.00     0.046 H 
BRANCH  83  88
ATOM     88  O6  non d ame     -31.029  11.467  26.973  0.00  0.00    -0.369 OA
ATOM     89  H45 non d ame     -31.213  12.396  26.815  0.00  0.00     0.212 HD
ENDBRANCH  83  88
ENDBRANCH  72  75
ENDBRANCH  47  72
ENDBRANCH  45  47
ENDBRANCH   1  43
BRANCH   1  90
ATOM     90  C16 non d ame     -36.113   8.695  32.005  0.00  0.00    -0.035 C 
ATOM     91  H21 non d ame     -35.085   8.550  32.338  0.00  0.00     0.037 H 
ATOM     92  H22 non d ame     -36.932   8.632  32.722  0.00  0.00     0.037 H 
BRANCH  90  93
ATOM     93  C17 non d ame     -36.385   7.597  30.927  0.00  0.00    -0.059 C 
ATOM     94  H23 non d ame     -36.396   8.086  29.953  0.00  0.00     0.038 H 
BRANCH  93  95
ATOM     95  C18 non d ame     -35.265   6.508  30.900  0.00  0.00    -0.073 C 
ATOM     96  H24 non d ame     -35.448   5.820  30.075  0.00  0.00     0.028 H 
ATOM     97  H25 non d ame     -34.296   6.986  30.765  0.00  0.00     0.028 H 
ATOM     98  H26 non d ame     -35.271   5.958  31.841  0.00  0.00     0.028 H 
ENDBRANCH  93  95
BRANCH  93  99
ATOM     99  C19 non d ame     -37.761   6.959  31.132  0.00  0.00    -0.073 C 
ATOM    100  H27 non d ame     -38.520   7.565  30.636  0.00  0.00     0.028 H 
ATOM    101  H28 non d ame     -37.763   5.955  30.708  0.00  0.00     0.028 H 
ATOM    102  H29 non d ame     -37.980   6.903  32.198  0.00  0.00     0.028 H 
ENDBRANCH  93  99
ENDBRANCH  90  93
ENDBRANCH   1  90
TORSDOF 26
ENDMDL
MODEL 13
REMARK VINA RESULT:      -6.6      2.239     10.067
REMARK  26 active torsions:
REMARK  status: ('A' for Active; 'I' for Inactive)
REMARK    1  A    between atoms: C2_2  and  C3_3 
REMARK    2  A    between atoms: C4_6  and  C5_7 
REMARK       I    between atoms: C5_7  and  N2_9 
REMARK    3  A    between atoms: N2_9  and  C6_10 
REMARK    4  A    between atoms: C6_10  and  C7_11 
REMARK    5  A    between atoms: C6_10  and  C8_13 
REMARK       I    between atoms: C7_11  and  N3_14 
REMARK    6  A    between atoms: N3_14  and  C9_15 
REMARK    7  A    between atoms: C9_15  and  C10_16 
REMARK    8  A    between atoms: C9_15  and  C11_18 
REMARK       I    between atoms: C10_16  and  N4_21 
REMARK    9  A    between atoms: C11_18  and  C12_19 
REMARK   10  A    between atoms: C11_18  and  C13_20 
REMARK   11  A    between atoms: N4_21  and  C14_22 
REMARK   12  A    between atoms: C14_22  and  C15_23 
REMARK   13  A    between atoms: C14_22  and  C16_25 
REMARK       I    between atoms: C15_23  and  N6_40 
REMARK   14  A    between atoms: C16_25  and  C17_26 
REMARK   15  A    between atoms: C17_26  and  C18_27 
REMARK   16  A    between atoms: C17_26  and  C19_28 
REMARK   17  A    between atoms: C20_29  and  C21_30 
REMARK   18  A    between atoms: C20_29  and  C24_33 
REMARK   19  A    between atoms: C20_29  and  N6_40 
REMARK   20  A    between atoms: C21_30  and  C22_31 
REMARK   21  A    between atoms: C22_31  and  C23_32 
REMARK   22  A    between atoms: C23_32  and  O8_43 
REMARK   23  A    between atoms: C24_33  and  C25_34 
REMARK   24  A    between atoms: C28_38  and  O6_39 
REMARK   25  A    between atoms: C29_42  and  O8_43 
REMARK   26  A    between atoms: C29_42  and  C35_49 
ROOT
ATOM      1  C14 non d ame     -34.824   8.617  31.160  0.00  0.00     0.089 C 
ATOM      2  H20 non d ame     -33.941   8.922  31.723  0.00  0.00     0.087 H 
ENDROOT
BRANCH   1   3
ATOM      3  N4  non d ame     -34.788   9.308  29.880  0.00  0.00    -0.346 N 
ATOM      4  C10 non d ame     -33.706  10.317  29.589  0.00  0.00     0.241 C 
ATOM      5  O4  non d ame     -32.876  10.559  30.403  0.00  0.00    -0.271 OA
ATOM      6  H19 non d ame     -35.505   9.090  29.202  0.00  0.00     0.163 HD
BRANCH   4   7
ATOM      7  C9  non d ame     -33.681  11.019  28.257  0.00  0.00     0.092 C 
ATOM      8  H11 non d ame     -34.630  11.533  28.105  0.00  0.00     0.088 H 
BRANCH   7   9
ATOM      9  N3  non d ame     -32.630  12.041  28.262  0.00  0.00    -0.346 N 
ATOM     10  C7  non d ame     -32.961  13.416  27.981  0.00  0.00     0.240 C 
ATOM     11  O3  non d ame     -34.068  13.718  27.748  0.00  0.00    -0.271 OA
ATOM     12  H10 non d ame     -31.670  11.795  28.460  0.00  0.00     0.163 HD
BRANCH  10  13
ATOM     13  C6  non d ame     -31.837  14.499  27.985  0.00  0.00     0.086 C 
ATOM     14  H6  non d ame     -30.850  14.082  28.183  0.00  0.00     0.086 H 
BRANCH  13  15
ATOM     15  N2  non d ame     -31.772  15.115  26.670  0.00  0.00    -0.343 N 
ATOM     16  C5  non d ame     -31.245  14.347  25.539  0.00  0.00     0.273 C 
ATOM     17  O2  non d ame     -30.874  13.236  25.699  0.00  0.00    -0.266 OA
ATOM     18  H5  non d ame     -32.088  16.066  26.543  0.00  0.00     0.163 HD
BRANCH  16  19
ATOM     19  C4  non d ame     -31.172  14.985  24.143  0.00  0.00     0.154 A 
ATOM     20  C1  non d ame     -30.823  14.339  22.915  0.00  0.00    -0.017 A 
ATOM     21  C2  non d ame     -30.905  15.354  21.935  0.00  0.00     0.077 A 
ATOM     22  H1  non d ame     -30.551  13.295  22.758  0.00  0.00     0.091 H 
ATOM     23  O1  non d ame     -31.261  16.449  22.540  0.00  0.00    -0.218 OA
ATOM     24  N1  non d ame     -31.423  16.259  23.829  0.00  0.00    -0.123 NA
BRANCH  21  25
ATOM     25  C3  non d ame     -30.628  15.193  20.446  0.00  0.00    -0.029 C 
ATOM     26  H2  non d ame     -29.605  14.848  20.301  0.00  0.00     0.036 H 
ATOM     27  H3  non d ame     -31.320  14.464  20.025  0.00  0.00     0.036 H 
ATOM     28  H4  non d ame     -30.763  16.152  19.946  0.00  0.00     0.036 H 
ENDBRANCH  21  25
ENDBRANCH  16  19
ENDBRANCH  13  15
BRANCH  13  29
ATOM     29  C8  non d ame     -32.144  15.542  29.029  0.00  0.00    -0.049 C 
ATOM     30  H7  non d ame     -31.569  16.445  28.821  0.00  0.00     0.030 H 
ATOM     31  H8  non d ame     -33.208  15.776  29.006  0.00  0.00     0.030 H 
ATOM     32  H9  non d ame     -31.877  15.160  30.014  0.00  0.00     0.030 H 
ENDBRANCH  13  29
ENDBRANCH  10  13
ENDBRANCH   7   9
BRANCH   7  33
ATOM     33  C11 non d ame     -33.389   9.984  27.131  0.00  0.00    -0.033 C 
ATOM     34  H12 non d ame     -33.471   8.989  27.570  0.00  0.00     0.042 H 
BRANCH  33  35
ATOM     35  C12 non d ame     -34.443  10.079  25.984  0.00  0.00    -0.071 C 
ATOM     36  H13 non d ame     -34.464   9.139  25.432  0.00  0.00     0.028 H 
ATOM     37  H14 non d ame     -35.427  10.272  26.410  0.00  0.00     0.028 H 
ATOM     38  H15 non d ame     -34.173  10.890  25.309  0.00  0.00     0.028 H 
ENDBRANCH  33  35
BRANCH  33  39
ATOM     39  C13 non d ame     -31.936  10.151  26.581  0.00  0.00    -0.071 C 
ATOM     40  H16 non d ame     -31.683  11.211  26.540  0.00  0.00     0.028 H 
ATOM     41  H17 non d ame     -31.236   9.635  27.238  0.00  0.00     0.028 H 
ATOM     42  H18 non d ame     -31.875   9.724  25.580  0.00  0.00     0.028 H 
ENDBRANCH  33  39
ENDBRANCH   7  33
ENDBRANCH   4   7
ENDBRANCH   1   3
BRANCH   1  43
ATOM     43  C15 non d ame     -34.852   7.084  30.895  0.00  0.00     0.240 C 
ATOM     44  O5  non d ame     -35.165   6.340  31.767  0.00  0.00    -0.271 OA
ATOM     45  N6  non d ame     -34.497   6.546  29.552  0.00  0.00    -0.355 N 
ATOM     46  H46 non d ame     -34.235   7.169  28.802  0.00  0.00     0.162 HD
BRANCH  45  47
ATOM     47  C20 non d ame     -34.530   5.086  29.315  0.00  0.00     0.013 C 
ATOM     48  H30 non d ame     -34.727   4.596  30.269  0.00  0.00     0.072 H 
BRANCH  47  49
ATOM     49  C21 non d ame     -33.193   4.638  28.771  0.00  0.00    -0.038 C 
ATOM     50  H31 non d ame     -32.468   5.367  29.133  0.00  0.00     0.036 H 
ATOM     51  H32 non d ame     -33.097   3.589  29.052  0.00  0.00     0.036 H 
BRANCH  49  52
ATOM     52  C22 non d ame     -33.127   4.685  27.229  0.00  0.00     0.018 C 
ATOM     53  H33 non d ame     -32.321   4.008  26.947  0.00  0.00     0.048 H 
ATOM     54  H34 non d ame     -34.144   4.495  26.884  0.00  0.00     0.048 H 
BRANCH  52  55
ATOM     55  C23 non d ame     -32.735   6.077  26.661  0.00  0.00     0.259 C 
ATOM     56  O7  non d ame     -31.771   6.643  27.064  0.00  0.00    -0.265 OA
BRANCH  55  57
ATOM     57  O8  non d ame     -33.549   6.675  25.659  0.00  0.00    -0.317 OA
BRANCH  57  58
ATOM     58  C29 non d ame     -33.310   6.177  24.340  0.00  0.00     0.052 C 
ATOM     59  H47 non d ame     -32.832   5.206  24.473  0.00  0.00     0.082 H 
ATOM     60  H48 non d ame     -34.265   6.247  23.820  0.00  0.00     0.082 H 
BRANCH  58  61
ATOM     61  C35 non d ame     -32.301   7.129  23.644  0.00  0.00    -0.034 A 
ATOM     62  C30 non d ame     -31.016   6.686  23.347  0.00  0.00    -0.075 A 
ATOM     63  C31 non d ame     -30.110   7.541  22.722  0.00  0.00    -0.082 A 
ATOM     64  H49 non d ame     -30.719   5.669  23.604  0.00  0.00     0.084 H 
ATOM     65  C32 non d ame     -30.492   8.846  22.396  0.00  0.00    -0.083 A 
ATOM     66  H50 non d ame     -29.104   7.191  22.489  0.00  0.00     0.083 H 
ATOM     67  C33 non d ame     -31.774   9.284  22.698  0.00  0.00    -0.082 A 
ATOM     68  H51 non d ame     -29.790   9.521  21.907  0.00  0.00     0.083 H 
ATOM     69  C34 non d ame     -32.684   8.432  23.320  0.00  0.00    -0.075 A 
ATOM     70  H52 non d ame     -32.068  10.303  22.444  0.00  0.00     0.083 H 
ATOM     71  H53 non d ame     -33.689   8.784  23.553  0.00  0.00     0.084 H 
ENDBRANCH  58  61
ENDBRANCH  57  58
ENDBRANCH  55  57
ENDBRANCH  52  55
ENDBRANCH  49  52
ENDBRANCH  47  49
BRANCH  47  72
ATOM     72  C24 non d ame     -35.629   4.750  28.309  0.00  0.00    -0.039 C 
ATOM     73  H35 non d ame     -35.162   4.842  27.328  0.00  0.00     0.036 H 
ATOM     74  H36 non d ame     -36.034   3.791  28.631  0.00  0.00     0.036 H 
BRANCH  72  75
ATOM     75  C25 non d ame     -36.827   5.812  28.363  0.00  0.00    -0.001 C 
ATOM     76  C26 non d ame     -38.118   5.161  29.147  0.00  0.00    -0.035 C 
ATOM     77  C27 non d ame     -39.220   5.317  28.376  0.00  0.00     0.085 C 
ATOM     78  H38 non d ame     -38.006   4.079  29.215  0.00  0.00     0.036 H 
ATOM     79  H39 non d ame     -38.346   5.743  30.040  0.00  0.00     0.036 H 
ATOM     80  N5  non d ame     -38.744   5.720  27.001  0.00  0.00    -0.049 N 
ATOM     81  H40 non d ame     -39.677   4.329  28.318  0.00  0.00     0.075 H 
ATOM     82  H41 non d ame     -39.770   6.147  28.819  0.00  0.00     0.075 H 
ATOM     83  C28 non d ame     -37.200   6.157  27.176  0.00  0.00     0.193 C 
ATOM     84  H42 non d ame     -38.780   4.888  26.430  0.00  0.00     0.280 HD
ATOM     85  H43 non d ame     -39.282   6.535  26.741  0.00  0.00     0.280 HD
ATOM     86  H44 non d ame     -36.920   7.211  27.178  0.00  0.00     0.129 H 
ATOM     87  H37 non d ame     -36.492   6.796  28.692  0.00  0.00     0.046 H 
BRANCH  83  88
ATOM     88  O6  non d ame     -36.398   5.550  26.161  0.00  0.00    -0.369 OA
ATOM     89  H45 non d ame     -36.433   4.595  26.254  0.00  0.00     0.212 HD
ENDBRANCH  83  88
ENDBRANCH  72  75
ENDBRANCH  47  72
ENDBRANCH  45  47
ENDBRANCH   1  43
BRANCH   1  90
ATOM     90  C16 non d ame     -36.080   9.029  31.911  0.00  0.00    -0.035 C 
ATOM     91  H21 non d ame     -36.289   8.208  32.596  0.00  0.00     0.037 H 
ATOM     92  H22 non d ame     -35.869  10.024  32.303  0.00  0.00     0.037 H 
BRANCH  90  93
ATOM     93  C17 non d ame     -37.338   9.172  30.997  0.00  0.00    -0.059 C 
ATOM     94  H23 non d ame     -37.030   8.956  29.974  0.00  0.00     0.038 H 
BRANCH  93  95
ATOM     95  C18 non d ame     -38.463   8.157  31.380  0.00  0.00    -0.073 C 
ATOM     96  H24 non d ame     -39.382   8.700  31.602  0.00  0.00     0.028 H 
ATOM     97  H25 non d ame     -38.637   7.476  30.548  0.00  0.00     0.028 H 
ATOM     98  H26 non d ame     -38.156   7.589  32.257  0.00  0.00     0.028 H 
ENDBRANCH  93  95
BRANCH  93  99
ATOM     99  C19 non d ame     -37.869  10.608  31.019  0.00  0.00    -0.073 C 
ATOM    100  H27 non d ame     -37.575  11.118  30.101  0.00  0.00     0.028 H 
ATOM    101  H28 non d ame     -38.957  10.592  31.093  0.00  0.00     0.028 H 
ATOM    102  H29 non d ame     -37.455  11.135  31.877  0.00  0.00     0.028 H 
ENDBRANCH  93  99
ENDBRANCH  90  93
ENDBRANCH   1  90
TORSDOF 26
ENDMDL
MODEL 14
REMARK VINA RESULT:      -6.6      2.519      4.598
REMARK  26 active torsions:
REMARK  status: ('A' for Active; 'I' for Inactive)
REMARK    1  A    between atoms: C2_2  and  C3_3 
REMARK    2  A    between atoms: C4_6  and  C5_7 
REMARK       I    between atoms: C5_7  and  N2_9 
REMARK    3  A    between atoms: N2_9  and  C6_10 
REMARK    4  A    between atoms: C6_10  and  C7_11 
REMARK    5  A    between atoms: C6_10  and  C8_13 
REMARK       I    between atoms: C7_11  and  N3_14 
REMARK    6  A    between atoms: N3_14  and  C9_15 
REMARK    7  A    between atoms: C9_15  and  C10_16 
REMARK    8  A    between atoms: C9_15  and  C11_18 
REMARK       I    between atoms: C10_16  and  N4_21 
REMARK    9  A    between atoms: C11_18  and  C12_19 
REMARK   10  A    between atoms: C11_18  and  C13_20 
REMARK   11  A    between atoms: N4_21  and  C14_22 
REMARK   12  A    between atoms: C14_22  and  C15_23 
REMARK   13  A    between atoms: C14_22  and  C16_25 
REMARK       I    between atoms: C15_23  and  N6_40 
REMARK   14  A    between atoms: C16_25  and  C17_26 
REMARK   15  A    between atoms: C17_26  and  C18_27 
REMARK   16  A    between atoms: C17_26  and  C19_28 
REMARK   17  A    between atoms: C20_29  and  C21_30 
REMARK   18  A    between atoms: C20_29  and  C24_33 
REMARK   19  A    between atoms: C20_29  and  N6_40 
REMARK   20  A    between atoms: C21_30  and  C22_31 
REMARK   21  A    between atoms: C22_31  and  C23_32 
REMARK   22  A    between atoms: C23_32  and  O8_43 
REMARK   23  A    between atoms: C24_33  and  C25_34 
REMARK   24  A    between atoms: C28_38  and  O6_39 
REMARK   25  A    between atoms: C29_42  and  O8_43 
REMARK   26  A    between atoms: C29_42  and  C35_49 
ROOT
ATOM      1  C14 non d ame     -32.164   9.246  24.928  0.00  0.00     0.089 C 
ATOM      2  H20 non d ame     -31.241   8.672  24.845  0.00  0.00     0.087 H 
ENDROOT
BRANCH   1   3
ATOM      3  N4  non d ame     -33.142   8.406  25.603  0.00  0.00    -0.346 N 
ATOM      4  C10 non d ame     -32.991   6.906  25.599  0.00  0.00     0.241 C 
ATOM      5  O4  non d ame     -32.074   6.397  25.043  0.00  0.00    -0.271 OA
ATOM      6  H19 non d ame     -33.916   8.859  26.069  0.00  0.00     0.163 HD
BRANCH   4   7
ATOM      7  C9  non d ame     -34.010   6.053  26.308  0.00  0.00     0.092 C 
ATOM      8  H11 non d ame     -33.496   5.268  26.863  0.00  0.00     0.088 H 
BRANCH   7   9
ATOM      9  N3  non d ame     -34.737   6.869  27.284  0.00  0.00    -0.346 N 
ATOM     10  C7  non d ame     -35.304   6.253  28.459  0.00  0.00     0.240 C 
ATOM     11  O3  non d ame     -35.186   5.102  28.633  0.00  0.00    -0.271 OA
ATOM     12  H10 non d ame     -34.849   7.863  27.147  0.00  0.00     0.163 HD
BRANCH  10  13
ATOM     13  C6  non d ame     -36.080   7.127  29.493  0.00  0.00     0.086 C 
ATOM     14  H6  non d ame     -36.064   6.705  30.497  0.00  0.00     0.086 H 
BRANCH  13  15
ATOM     15  N2  non d ame     -35.444   8.431  29.579  0.00  0.00    -0.343 N 
ATOM     16  C5  non d ame     -34.569   8.733  30.714  0.00  0.00     0.273 C 
ATOM     17  O2  non d ame     -34.385   7.921  31.553  0.00  0.00    -0.266 OA
ATOM     18  H5  non d ame     -35.609   9.120  28.859  0.00  0.00     0.163 HD
BRANCH  16  19
ATOM     19  C4  non d ame     -33.889  10.107  30.818  0.00  0.00     0.154 A 
ATOM     20  C1  non d ame     -32.946  10.676  29.904  0.00  0.00    -0.017 A 
ATOM     21  C2  non d ame     -32.631  11.941  30.448  0.00  0.00     0.077 A 
ATOM     22  H1  non d ame     -32.551  10.238  28.987  0.00  0.00     0.091 H 
ATOM     23  O1  non d ame     -33.318  12.073  31.545  0.00  0.00    -0.218 OA
ATOM     24  N1  non d ame     -34.060  11.016  31.782  0.00  0.00    -0.123 NA
BRANCH  21  25
ATOM     25  C3  non d ame     -31.665  12.961  29.859  0.00  0.00    -0.029 C 
ATOM     26  H2  non d ame     -32.025  13.280  28.881  0.00  0.00     0.036 H 
ATOM     27  H3  non d ame     -31.600  13.824  30.521  0.00  0.00     0.036 H 
ATOM     28  H4  non d ame     -30.679  12.509  29.753  0.00  0.00     0.036 H 
ENDBRANCH  21  25
ENDBRANCH  16  19
ENDBRANCH  13  15
BRANCH  13  29
ATOM     29  C8  non d ame     -37.513   7.279  29.051  0.00  0.00    -0.049 C 
ATOM     30  H7  non d ame     -38.144   7.461  29.921  0.00  0.00     0.030 H 
ATOM     31  H8  non d ame     -37.593   8.120  28.362  0.00  0.00     0.030 H 
ATOM     32  H9  non d ame     -37.839   6.367  28.551  0.00  0.00     0.030 H 
ENDBRANCH  13  29
ENDBRANCH  10  13
ENDBRANCH   7   9
BRANCH   7  33
ATOM     33  C11 non d ame     -35.014   5.474  25.269  0.00  0.00    -0.033 C 
ATOM     34  H12 non d ame     -35.968   5.333  25.778  0.00  0.00     0.042 H 
BRANCH  33  35
ATOM     35  C12 non d ame     -35.253   6.471  24.092  0.00  0.00    -0.071 C 
ATOM     36  H13 non d ame     -34.537   6.270  23.295  0.00  0.00     0.028 H 
ATOM     37  H14 non d ame     -36.266   6.347  23.711  0.00  0.00     0.028 H 
ATOM     38  H15 non d ame     -35.121   7.492  24.449  0.00  0.00     0.028 H 
ENDBRANCH  33  35
BRANCH  33  39
ATOM     39  C13 non d ame     -34.536   4.082  24.744  0.00  0.00    -0.071 C 
ATOM     40  H16 non d ame     -33.480   3.948  24.981  0.00  0.00     0.028 H 
ATOM     41  H17 non d ame     -35.119   3.293  25.222  0.00  0.00     0.028 H 
ATOM     42  H18 non d ame     -34.677   4.033  23.665  0.00  0.00     0.028 H 
ENDBRANCH  33  39
ENDBRANCH   7  33
ENDBRANCH   4   7
ENDBRANCH   1   3
BRANCH   1  43
ATOM     43  C15 non d ame     -31.974  10.549  25.756  0.00  0.00     0.240 C 
ATOM     44  O5  non d ame     -31.379  10.514  26.784  0.00  0.00    -0.271 OA
ATOM     45  N6  non d ame     -32.526  11.843  25.262  0.00  0.00    -0.355 N 
ATOM     46  H46 non d ame     -33.029  11.885  24.387  0.00  0.00     0.162 HD
BRANCH  45  47
ATOM     47  C20 non d ame     -32.335  13.073  26.060  0.00  0.00     0.013 C 
ATOM     48  H30 non d ame     -32.211  12.781  27.102  0.00  0.00     0.072 H 
BRANCH  47  49
ATOM     49  C21 non d ame     -33.553  13.957  25.913  0.00  0.00    -0.038 C 
ATOM     50  H31 non d ame     -33.220  14.827  25.347  0.00  0.00     0.036 H 
ATOM     51  H32 non d ame     -34.337  13.314  25.514  0.00  0.00     0.036 H 
BRANCH  49  52
ATOM     52  C22 non d ame     -34.073  14.490  27.266  0.00  0.00     0.018 C 
ATOM     53  H33 non d ame     -35.108  14.781  27.091  0.00  0.00     0.048 H 
ATOM     54  H34 non d ame     -33.840  13.716  27.998  0.00  0.00     0.048 H 
BRANCH  52  55
ATOM     55  C23 non d ame     -33.346  15.773  27.755  0.00  0.00     0.259 C 
ATOM     56  O7  non d ame     -33.194  15.976  28.916  0.00  0.00    -0.265 OA
BRANCH  55  57
ATOM     57  O8  non d ame     -32.873  16.713  26.798  0.00  0.00    -0.317 OA
BRANCH  57  58
ATOM     58  C29 non d ame     -32.740  18.044  27.305  0.00  0.00     0.052 C 
ATOM     59  H47 non d ame     -32.669  17.942  28.388  0.00  0.00     0.082 H 
ATOM     60  H48 non d ame     -31.920  18.493  26.745  0.00  0.00     0.082 H 
BRANCH  58  61
ATOM     61  C35 non d ame     -34.044  18.816  26.970  0.00  0.00    -0.034 A 
ATOM     62  C30 non d ame     -34.713  19.521  27.966  0.00  0.00    -0.075 A 
ATOM     63  C31 non d ame     -35.884  20.214  27.665  0.00  0.00    -0.082 A 
ATOM     64  H49 non d ame     -34.319  19.529  28.982  0.00  0.00     0.084 H 
ATOM     65  C32 non d ame     -36.388  20.199  26.362  0.00  0.00    -0.083 A 
ATOM     66  H50 non d ame     -36.405  20.766  28.448  0.00  0.00     0.083 H 
ATOM     67  C33 non d ame     -35.720  19.492  25.371  0.00  0.00    -0.082 A 
ATOM     68  H51 non d ame     -37.303  20.739  26.117  0.00  0.00     0.083 H 
ATOM     69  C34 non d ame     -34.548  18.800  25.667  0.00  0.00    -0.075 A 
ATOM     70  H52 non d ame     -36.117  19.481  24.356  0.00  0.00     0.083 H 
ATOM     71  H53 non d ame     -34.027  18.248  24.884  0.00  0.00     0.084 H 
ENDBRANCH  58  61
ENDBRANCH  57  58
ENDBRANCH  55  57
ENDBRANCH  52  55
ENDBRANCH  49  52
ENDBRANCH  47  49
BRANCH  47  72
ATOM     72  C24 non d ame     -31.099  13.822  25.567  0.00  0.00    -0.039 C 
ATOM     73  H35 non d ame     -31.036  14.717  26.187  0.00  0.00     0.036 H 
ATOM     74  H36 non d ame     -30.291  13.090  25.582  0.00  0.00     0.036 H 
BRANCH  72  75
ATOM     75  C25 non d ame     -31.267  14.310  24.050  0.00  0.00    -0.001 C 
ATOM     76  C26 non d ame     -30.295  13.421  23.065  0.00  0.00    -0.035 C 
ATOM     77  C27 non d ame     -29.559  14.265  22.302  0.00  0.00     0.085 C 
ATOM     78  H38 non d ame     -29.546  12.894  23.656  0.00  0.00     0.036 H 
ATOM     79  H39 non d ame     -30.896  12.878  22.337  0.00  0.00     0.036 H 
ATOM     80  N5  non d ame     -29.702  15.642  22.904  0.00  0.00    -0.049 N 
ATOM     81  H40 non d ame     -28.527  13.933  22.414  0.00  0.00     0.075 H 
ATOM     82  H41 non d ame     -30.032  14.256  21.320  0.00  0.00     0.075 H 
ATOM     83  C28 non d ame     -30.951  15.555  23.922  0.00  0.00     0.193 C 
ATOM     84  H42 non d ame     -28.862  15.809  23.439  0.00  0.00     0.280 HD
ATOM     85  H43 non d ame     -29.948  16.261  22.144  0.00  0.00     0.280 HD
ATOM     86  H44 non d ame     -31.919  15.978  23.649  0.00  0.00     0.129 H 
ATOM     87  H37 non d ame     -32.314  14.404  23.760  0.00  0.00     0.046 H 
BRANCH  83  88
ATOM     88  O6  non d ame     -30.611  16.157  25.172  0.00  0.00    -0.369 OA
ATOM     89  H45 non d ame     -31.402  16.249  25.709  0.00  0.00     0.212 HD
ENDBRANCH  83  88
ENDBRANCH  72  75
ENDBRANCH  47  72
ENDBRANCH  45  47
ENDBRANCH   1  43
BRANCH   1  90
ATOM     90  C16 non d ame     -32.681   9.592  23.541  0.00  0.00    -0.035 C 
ATOM     91  H21 non d ame     -33.623   9.054  23.441  0.00  0.00     0.037 H 
ATOM     92  H22 non d ame     -32.668  10.681  23.491  0.00  0.00     0.037 H 
BRANCH  90  93
ATOM     93  C17 non d ame     -31.760   9.087  22.385  0.00  0.00    -0.059 C 
ATOM     94  H23 non d ame     -31.801   9.825  21.583  0.00  0.00     0.038 H 
BRANCH  93  95
ATOM     95  C18 non d ame     -30.270   8.954  22.834  0.00  0.00    -0.073 C 
ATOM     96  H24 non d ame     -29.981   9.838  23.401  0.00  0.00     0.028 H 
ATOM     97  H25 non d ame     -30.156   8.069  23.459  0.00  0.00     0.028 H 
ATOM     98  H26 non d ame     -29.632   8.863  21.955  0.00  0.00     0.028 H 
ENDBRANCH  93  95
BRANCH  93  99
ATOM     99  C19 non d ame     -32.277   7.765  21.812  0.00  0.00    -0.073 C 
ATOM    100  H27 non d ame     -33.367   7.767  21.817  0.00  0.00     0.028 H 
ATOM    101  H28 non d ame     -31.918   7.646  20.790  0.00  0.00     0.028 H 
ATOM    102  H29 non d ame     -31.913   6.938  22.422  0.00  0.00     0.028 H 
ENDBRANCH  93  99
ENDBRANCH  90  93
ENDBRANCH   1  90
TORSDOF 26
ENDMDL
MODEL 15
REMARK VINA RESULT:      -6.6      2.444      9.726
REMARK  26 active torsions:
REMARK  status: ('A' for Active; 'I' for Inactive)
REMARK    1  A    between atoms: C2_2  and  C3_3 
REMARK    2  A    between atoms: C4_6  and  C5_7 
REMARK       I    between atoms: C5_7  and  N2_9 
REMARK    3  A    between atoms: N2_9  and  C6_10 
REMARK    4  A    between atoms: C6_10  and  C7_11 
REMARK    5  A    between atoms: C6_10  and  C8_13 
REMARK       I    between atoms: C7_11  and  N3_14 
REMARK    6  A    between atoms: N3_14  and  C9_15 
REMARK    7  A    between atoms: C9_15  and  C10_16 
REMARK    8  A    between atoms: C9_15  and  C11_18 
REMARK       I    between atoms: C10_16  and  N4_21 
REMARK    9  A    between atoms: C11_18  and  C12_19 
REMARK   10  A    between atoms: C11_18  and  C13_20 
REMARK   11  A    between atoms: N4_21  and  C14_22 
REMARK   12  A    between atoms: C14_22  and  C15_23 
REMARK   13  A    between atoms: C14_22  and  C16_25 
REMARK       I    between atoms: C15_23  and  N6_40 
REMARK   14  A    between atoms: C16_25  and  C17_26 
REMARK   15  A    between atoms: C17_26  and  C18_27 
REMARK   16  A    between atoms: C17_26  and  C19_28 
REMARK   17  A    between atoms: C20_29  and  C21_30 
REMARK   18  A    between atoms: C20_29  and  C24_33 
REMARK   19  A    between atoms: C20_29  and  N6_40 
REMARK   20  A    between atoms: C21_30  and  C22_31 
REMARK   21  A    between atoms: C22_31  and  C23_32 
REMARK   22  A    between atoms: C23_32  and  O8_43 
REMARK   23  A    between atoms: C24_33  and  C25_34 
REMARK   24  A    between atoms: C28_38  and  O6_39 
REMARK   25  A    between atoms: C29_42  and  O8_43 
REMARK   26  A    between atoms: C29_42  and  C35_49 
ROOT
ATOM      1  C14 non d ame     -34.886   8.151  31.257  0.00  0.00     0.089 C 
ATOM      2  H20 non d ame     -34.431   8.190  32.248  0.00  0.00     0.087 H 
ENDROOT
BRANCH   1   3
ATOM      3  N4  non d ame     -34.055   8.943  30.362  0.00  0.00    -0.346 N 
ATOM      4  C10 non d ame     -33.564  10.305  30.784  0.00  0.00     0.241 C 
ATOM      5  O4  non d ame     -33.854  10.744  31.848  0.00  0.00    -0.271 OA
ATOM      6  H19 non d ame     -33.822   8.552  29.460  0.00  0.00     0.163 HD
BRANCH   4   7
ATOM      7  C9  non d ame     -32.700  11.108  29.847  0.00  0.00     0.092 C 
ATOM      8  H11 non d ame     -31.984  10.445  29.362  0.00  0.00     0.088 H 
BRANCH   7   9
ATOM      9  N3  non d ame     -33.534  11.691  28.792  0.00  0.00    -0.346 N 
ATOM     10  C7  non d ame     -33.171  11.517  27.407  0.00  0.00     0.240 C 
ATOM     11  O3  non d ame     -32.210  10.912  27.125  0.00  0.00    -0.271 OA
ATOM     12  H10 non d ame     -34.365  12.218  29.021  0.00  0.00     0.163 HD
BRANCH  10  13
ATOM     13  C6  non d ame     -34.060  12.143  26.289  0.00  0.00     0.086 C 
ATOM     14  H6  non d ame     -34.741  12.905  26.668  0.00  0.00     0.086 H 
BRANCH  13  15
ATOM     15  N2  non d ame     -33.203  12.799  25.316  0.00  0.00    -0.343 N 
ATOM     16  C5  non d ame     -32.701  14.147  25.590  0.00  0.00     0.273 C 
ATOM     17  O2  non d ame     -32.995  14.697  26.594  0.00  0.00    -0.266 OA
ATOM     18  H5  non d ame     -32.958  12.323  24.459  0.00  0.00     0.163 HD
BRANCH  16  19
ATOM     19  C4  non d ame     -31.792  14.852  24.570  0.00  0.00     0.154 A 
ATOM     20  C1  non d ame     -30.643  14.307  23.914  0.00  0.00    -0.017 A 
ATOM     21  C2  non d ame     -30.169  15.348  23.086  0.00  0.00     0.077 A 
ATOM     22  H1  non d ame     -30.218  13.309  24.023  0.00  0.00     0.091 H 
ATOM     23  O1  non d ame     -30.961  16.367  23.253  0.00  0.00    -0.218 OA
ATOM     24  N1  non d ame     -31.915  16.102  24.115  0.00  0.00    -0.123 NA
BRANCH  21  25
ATOM     25  C3  non d ame     -28.956  15.288  22.167  0.00  0.00    -0.029 C 
ATOM     26  H2  non d ame     -28.428  14.348  22.323  0.00  0.00     0.036 H 
ATOM     27  H3  non d ame     -29.283  15.352  21.129  0.00  0.00     0.036 H 
ATOM     28  H4  non d ame     -28.290  16.121  22.389  0.00  0.00     0.036 H 
ENDBRANCH  21  25
ENDBRANCH  16  19
ENDBRANCH  13  15
BRANCH  13  29
ATOM     29  C8  non d ame     -34.867  11.059  25.619  0.00  0.00    -0.049 C 
ATOM     30  H7  non d ame     -34.981  10.217  26.302  0.00  0.00     0.030 H 
ATOM     31  H8  non d ame     -35.850  11.449  25.355  0.00  0.00     0.030 H 
ATOM     32  H9  non d ame     -34.352  10.728  24.717  0.00  0.00     0.030 H 
ENDBRANCH  13  29
ENDBRANCH  10  13
ENDBRANCH   7   9
BRANCH   7  33
ATOM     33  C11 non d ame     -31.998  12.249  30.640  0.00  0.00    -0.033 C 
ATOM     34  H12 non d ame     -32.511  12.349  31.596  0.00  0.00     0.042 H 
BRANCH  33  35
ATOM     35  C12 non d ame     -30.508  11.898  30.941  0.00  0.00    -0.071 C 
ATOM     36  H13 non d ame     -30.425  10.836  31.175  0.00  0.00     0.028 H 
ATOM     37  H14 non d ame     -29.897  12.127  30.069  0.00  0.00     0.028 H 
ATOM     38  H15 non d ame     -30.161  12.484  31.792  0.00  0.00     0.028 H 
ENDBRANCH  33  35
BRANCH  33  39
ATOM     39  C13 non d ame     -32.117  13.611  29.883  0.00  0.00    -0.071 C 
ATOM     40  H16 non d ame     -33.115  14.023  30.030  0.00  0.00     0.028 H 
ATOM     41  H17 non d ame     -31.374  14.309  30.271  0.00  0.00     0.028 H 
ATOM     42  H18 non d ame     -31.942  13.452  28.819  0.00  0.00     0.028 H 
ENDBRANCH  33  39
ENDBRANCH   7  33
ENDBRANCH   4   7
ENDBRANCH   1   3
BRANCH   1  43
ATOM     43  C15 non d ame     -34.967   6.700  30.704  0.00  0.00     0.240 C 
ATOM     44  O5  non d ame     -35.467   5.844  31.360  0.00  0.00    -0.271 OA
ATOM     45  N6  non d ame     -34.429   6.378  29.351  0.00  0.00    -0.355 N 
ATOM     46  H46 non d ame     -34.007   7.098  28.782  0.00  0.00     0.162 HD
BRANCH  45  47
ATOM     47  C20 non d ame     -34.515   4.994  28.839  0.00  0.00     0.013 C 
ATOM     48  H30 non d ame     -34.308   4.316  29.667  0.00  0.00     0.072 H 
BRANCH  47  49
ATOM     49  C21 non d ame     -33.490   4.802  27.744  0.00  0.00    -0.038 C 
ATOM     50  H31 non d ame     -32.932   3.906  28.017  0.00  0.00     0.036 H 
ATOM     51  H32 non d ame     -34.049   4.833  26.809  0.00  0.00     0.036 H 
BRANCH  49  52
ATOM     52  C22 non d ame     -32.462   5.952  27.677  0.00  0.00     0.018 C 
ATOM     53  H33 non d ame     -32.624   6.546  28.576  0.00  0.00     0.048 H 
ATOM     54  H34 non d ame     -31.497   5.476  27.505  0.00  0.00     0.048 H 
BRANCH  52  55
ATOM     55  C23 non d ame     -32.682   6.919  26.481  0.00  0.00     0.259 C 
ATOM     56  O7  non d ame     -33.447   7.824  26.569  0.00  0.00    -0.265 OA
BRANCH  55  57
ATOM     57  O8  non d ame     -31.967   6.703  25.270  0.00  0.00    -0.317 OA
BRANCH  57  58
ATOM     58  C29 non d ame     -32.599   7.260  24.114  0.00  0.00     0.052 C 
ATOM     59  H47 non d ame     -32.667   6.444  23.393  0.00  0.00     0.082 H 
ATOM     60  H48 non d ame     -33.506   7.743  24.477  0.00  0.00     0.082 H 
BRANCH  58  61
ATOM     61  C35 non d ame     -31.660   8.351  23.533  0.00  0.00    -0.034 A 
ATOM     62  C30 non d ame     -30.677   8.006  22.611  0.00  0.00    -0.075 A 
ATOM     63  C31 non d ame     -29.834   8.986  22.090  0.00  0.00    -0.082 A 
ATOM     64  H49 non d ame     -30.567   6.968  22.297  0.00  0.00     0.084 H 
ATOM     65  C32 non d ame     -29.975  10.316  22.497  0.00  0.00    -0.083 A 
ATOM     66  H50 non d ame     -29.066   8.713  21.367  0.00  0.00     0.083 H 
ATOM     67  C33 non d ame     -30.955  10.655  23.419  0.00  0.00    -0.082 A 
ATOM     68  H51 non d ame     -29.320  11.089  22.094  0.00  0.00     0.083 H 
ATOM     69  C34 non d ame     -31.801   9.679  23.941  0.00  0.00    -0.075 A 
ATOM     70  H52 non d ame     -31.061  11.693  23.736  0.00  0.00     0.083 H 
ATOM     71  H53 non d ame     -32.570   9.953  24.665  0.00  0.00     0.084 H 
ENDBRANCH  58  61
ENDBRANCH  57  58
ENDBRANCH  55  57
ENDBRANCH  52  55
ENDBRANCH  49  52
ENDBRANCH  47  49
BRANCH  47  72
ATOM     72  C24 non d ame     -35.913   4.736  28.279  0.00  0.00    -0.039 C 
ATOM     73  H35 non d ame     -36.022   3.651  28.260  0.00  0.00     0.036 H 
ATOM     74  H36 non d ame     -36.585   5.340  28.889  0.00  0.00     0.036 H 
BRANCH  72  75
ATOM     75  C25 non d ame     -36.051   5.252  26.769  0.00  0.00    -0.001 C 
ATOM     76  C26 non d ame     -36.794   6.719  26.744  0.00  0.00    -0.035 C 
ATOM     77  C27 non d ame     -37.824   6.672  25.866  0.00  0.00     0.085 C 
ATOM     78  H38 non d ame     -37.282   6.907  27.700  0.00  0.00     0.036 H 
ATOM     79  H39 non d ame     -36.127   7.468  26.316  0.00  0.00     0.036 H 
ATOM     80  N5  non d ame     -38.055   5.218  25.534  0.00  0.00    -0.049 N 
ATOM     81  H40 non d ame     -38.687   7.055  26.410  0.00  0.00     0.075 H 
ATOM     82  H41 non d ame     -37.469   7.188  24.974  0.00  0.00     0.075 H 
ATOM     83  C28 non d ame     -36.746   4.430  26.056  0.00  0.00     0.193 C 
ATOM     84  H42 non d ame     -38.849   4.922  26.082  0.00  0.00     0.280 HD
ATOM     85  H43 non d ame     -38.086   5.157  24.526  0.00  0.00     0.280 HD
ATOM     86  H44 non d ame     -35.988   4.088  25.352  0.00  0.00     0.129 H 
ATOM     87  H37 non d ame     -35.118   5.159  26.214  0.00  0.00     0.046 H 
BRANCH  83  88
ATOM     88  O6  non d ame     -37.132   3.269  26.794  0.00  0.00    -0.369 OA
ATOM     89  H45 non d ame     -37.193   2.517  26.200  0.00  0.00     0.212 HD
ENDBRANCH  83  88
ENDBRANCH  72  75
ENDBRANCH  47  72
ENDBRANCH  45  47
ENDBRANCH   1  43
BRANCH   1  90
ATOM     90  C16 non d ame     -36.279   8.758  31.307  0.00  0.00    -0.035 C 
ATOM     91  H21 non d ame     -36.857   8.100  31.955  0.00  0.00     0.037 H 
ATOM     92  H22 non d ame     -36.130   9.802  31.584  0.00  0.00     0.037 H 
BRANCH  90  93
ATOM     93  C17 non d ame     -37.008   8.768  29.926  0.00  0.00    -0.059 C 
ATOM     94  H23 non d ame     -36.347   8.295  29.200  0.00  0.00     0.038 H 
BRANCH  93  95
ATOM     95  C18 non d ame     -38.341   7.953  29.957  0.00  0.00    -0.073 C 
ATOM     96  H24 non d ame     -39.070   8.473  30.579  0.00  0.00     0.028 H 
ATOM     97  H25 non d ame     -38.732   7.857  28.945  0.00  0.00     0.028 H 
ATOM     98  H26 non d ame     -38.152   6.963  30.370  0.00  0.00     0.028 H 
ENDBRANCH  93  95
BRANCH  93  99
ATOM     99  C19 non d ame     -37.257  10.201  29.449  0.00  0.00    -0.073 C 
ATOM    100  H27 non d ame     -37.667  10.182  28.439  0.00  0.00     0.028 H 
ATOM    101  H28 non d ame     -37.964  10.690  30.119  0.00  0.00     0.028 H 
ATOM    102  H29 non d ame     -36.317  10.752  29.449  0.00  0.00     0.028 H 
ENDBRANCH  93  99
ENDBRANCH  90  93
ENDBRANCH   1  90
TORSDOF 26
ENDMDL
MODEL 16
REMARK VINA RESULT:      -6.6      3.009      8.171
REMARK  26 active torsions:
REMARK  status: ('A' for Active; 'I' for Inactive)
REMARK    1  A    between atoms: C2_2  and  C3_3 
REMARK    2  A    between atoms: C4_6  and  C5_7 
REMARK       I    between atoms: C5_7  and  N2_9 
REMARK    3  A    between atoms: N2_9  and  C6_10 
REMARK    4  A    between atoms: C6_10  and  C7_11 
REMARK    5  A    between atoms: C6_10  and  C8_13 
REMARK       I    between atoms: C7_11  and  N3_14 
REMARK    6  A    between atoms: N3_14  and  C9_15 
REMARK    7  A    between atoms: C9_15  and  C10_16 
REMARK    8  A    between atoms: C9_15  and  C11_18 
REMARK       I    between atoms: C10_16  and  N4_21 
REMARK    9  A    between atoms: C11_18  and  C12_19 
REMARK   10  A    between atoms: C11_18  and  C13_20 
REMARK   11  A    between atoms: N4_21  and  C14_22 
REMARK   12  A    between atoms: C14_22  and  C15_23 
REMARK   13  A    between atoms: C14_22  and  C16_25 
REMARK       I    between atoms: C15_23  and  N6_40 
REMARK   14  A    between atoms: C16_25  and  C17_26 
REMARK   15  A    between atoms: C17_26  and  C18_27 
REMARK   16  A    between atoms: C17_26  and  C19_28 
REMARK   17  A    between atoms: C20_29  and  C21_30 
REMARK   18  A    between atoms: C20_29  and  C24_33 
REMARK   19  A    between atoms: C20_29  and  N6_40 
REMARK   20  A    between atoms: C21_30  and  C22_31 
REMARK   21  A    between atoms: C22_31  and  C23_32 
REMARK   22  A    between atoms: C23_32  and  O8_43 
REMARK   23  A    between atoms: C24_33  and  C25_34 
REMARK   24  A    between atoms: C28_38  and  O6_39 
REMARK   25  A    between atoms: C29_42  and  O8_43 
REMARK   26  A    between atoms: C29_42  and  C35_49 
ROOT
ATOM      1  C14 non d ame     -36.608  10.171  31.294  0.00  0.00     0.089 C 
ATOM      2  H20 non d ame     -37.110  10.941  31.880  0.00  0.00     0.087 H 
ENDROOT
BRANCH   1   3
ATOM      3  N4  non d ame     -37.010  10.343  29.906  0.00  0.00    -0.346 N 
ATOM      4  C10 non d ame     -38.324  11.004  29.570  0.00  0.00     0.241 C 
ATOM      5  O4  non d ame     -39.042  11.386  30.435  0.00  0.00    -0.271 OA
ATOM      6  H19 non d ame     -36.386  10.009  29.185  0.00  0.00     0.163 HD
BRANCH   4   7
ATOM      7  C9  non d ame     -38.722  11.179  28.128  0.00  0.00     0.092 C 
ATOM      8  H11 non d ame     -39.431  12.003  28.050  0.00  0.00     0.088 H 
BRANCH   7   9
ATOM      9  N3  non d ame     -37.543  11.545  27.337  0.00  0.00    -0.346 N 
ATOM     10  C7  non d ame     -37.448  12.861  26.752  0.00  0.00     0.240 C 
ATOM     11  O3  non d ame     -38.311  13.636  26.908  0.00  0.00    -0.271 OA
ATOM     12  H10 non d ame     -36.792  10.887  27.193  0.00  0.00     0.163 HD
BRANCH  10  13
ATOM     13  C6  non d ame     -36.193  13.243  25.908  0.00  0.00     0.086 C 
ATOM     14  H6  non d ame     -36.448  13.767  24.987  0.00  0.00     0.086 H 
BRANCH  13  15
ATOM     15  N2  non d ame     -35.361  14.148  26.684  0.00  0.00    -0.343 N 
ATOM     16  C5  non d ame     -35.283  15.560  26.304  0.00  0.00     0.273 C 
ATOM     17  O2  non d ame     -35.890  15.958  25.371  0.00  0.00    -0.266 OA
ATOM     18  H5  non d ame     -34.843  13.799  27.478  0.00  0.00     0.163 HD
BRANCH  16  19
ATOM     19  C4  non d ame     -34.409  16.529  27.116  0.00  0.00     0.154 A 
ATOM     20  C1  non d ame     -34.001  17.848  26.740  0.00  0.00    -0.017 A 
ATOM     21  C2  non d ame     -33.218  18.308  27.822  0.00  0.00     0.077 A 
ATOM     22  H1  non d ame     -34.237  18.388  25.823  0.00  0.00     0.091 H 
ATOM     23  O1  non d ame     -33.187  17.358  28.710  0.00  0.00    -0.218 OA
ATOM     24  N1  non d ame     -33.874  16.309  28.320  0.00  0.00    -0.123 NA
BRANCH  21  25
ATOM     25  C3  non d ame     -32.538  19.667  27.929  0.00  0.00    -0.029 C 
ATOM     26  H2  non d ame     -32.971  20.226  28.757  0.00  0.00     0.036 H 
ATOM     27  H3  non d ame     -31.471  19.526  28.104  0.00  0.00     0.036 H 
ATOM     28  H4  non d ame     -32.683  20.220  27.001  0.00  0.00     0.036 H 
ENDBRANCH  21  25
ENDBRANCH  16  19
ENDBRANCH  13  15
BRANCH  13  29
ATOM     29  C8  non d ame     -35.418  11.997  25.562  0.00  0.00    -0.049 C 
ATOM     30  H7  non d ame     -34.350  12.198  25.649  0.00  0.00     0.030 H 
ATOM     31  H8  non d ame     -35.693  11.196  26.248  0.00  0.00     0.030 H 
ATOM     32  H9  non d ame     -35.649  11.697  24.540  0.00  0.00     0.030 H 
ENDBRANCH  13  29
ENDBRANCH  10  13
ENDBRANCH   7   9
BRANCH   7  33
ATOM     33  C11 non d ame     -39.312   9.844  27.587  0.00  0.00    -0.033 C 
ATOM     34  H12 non d ame     -39.638   9.257  28.446  0.00  0.00     0.042 H 
BRANCH  33  35
ATOM     35  C12 non d ame     -40.565  10.099  26.691  0.00  0.00    -0.071 C 
ATOM     36  H13 non d ame     -40.672   9.283  25.977  0.00  0.00     0.028 H 
ATOM     37  H14 non d ame     -41.454  10.153  27.318  0.00  0.00     0.028 H 
ATOM     38  H15 non d ame     -40.441  11.038  26.153  0.00  0.00     0.028 H 
ENDBRANCH  33  35
BRANCH  33  39
ATOM     39  C13 non d ame     -38.226   9.022  26.823  0.00  0.00    -0.071 C 
ATOM     40  H16 non d ame     -37.588   8.507  27.541  0.00  0.00     0.028 H 
ATOM     41  H17 non d ame     -38.713   8.289  26.177  0.00  0.00     0.028 H 
ATOM     42  H18 non d ame     -37.622   9.695  26.215  0.00  0.00     0.028 H 
ENDBRANCH  33  39
ENDBRANCH   7  33
ENDBRANCH   4   7
ENDBRANCH   1   3
BRANCH   1  43
ATOM     43  C15 non d ame     -35.059  10.285  31.378  0.00  0.00     0.240 C 
ATOM     44  O5  non d ame     -34.486   9.863  32.330  0.00  0.00    -0.271 OA
ATOM     45  N6  non d ame     -34.288  10.914  30.268  0.00  0.00    -0.355 N 
ATOM     46  H46 non d ame     -34.763  11.272  29.452  0.00  0.00     0.162 HD
BRANCH  45  47
ATOM     47  C20 non d ame     -32.816  11.013  30.362  0.00  0.00     0.013 C 
ATOM     48  H30 non d ame     -32.498  10.456  31.243  0.00  0.00     0.072 H 
BRANCH  47  49
ATOM     49  C21 non d ame     -32.421  12.466  30.500  0.00  0.00    -0.038 C 
ATOM     50  H31 non d ame     -33.080  13.016  29.828  0.00  0.00     0.036 H 
ATOM     51  H32 non d ame     -32.436  12.675  31.570  0.00  0.00     0.036 H 
BRANCH  49  52
ATOM     52  C22 non d ame     -30.979  12.744  30.022  0.00  0.00     0.018 C 
ATOM     53  H33 non d ame     -30.359  12.705  30.916  0.00  0.00     0.048 H 
ATOM     54  H34 non d ame     -30.801  12.047  29.203  0.00  0.00     0.048 H 
BRANCH  52  55
ATOM     55  C23 non d ame     -30.780  14.165  29.425  0.00  0.00     0.259 C 
ATOM     56  O7  non d ame     -30.810  15.123  30.127  0.00  0.00    -0.265 OA
BRANCH  55  57
ATOM     57  O8  non d ame     -30.574  14.310  28.025  0.00  0.00    -0.317 OA
BRANCH  57  58
ATOM     58  C29 non d ame     -31.656  13.826  27.224  0.00  0.00     0.052 C 
ATOM     59  H47 non d ame     -31.632  12.741  27.321  0.00  0.00     0.082 H 
ATOM     60  H48 non d ame     -32.535  14.383  27.548  0.00  0.00     0.082 H 
BRANCH  58  61
ATOM     61  C35 non d ame     -31.359  14.194  25.746  0.00  0.00    -0.034 A 
ATOM     62  C30 non d ame     -31.359  15.527  25.346  0.00  0.00    -0.075 A 
ATOM     63  C31 non d ame     -31.093  15.857  24.018  0.00  0.00    -0.082 A 
ATOM     64  H49 non d ame     -31.568  16.312  26.073  0.00  0.00     0.084 H 
ATOM     65  C32 non d ame     -30.828  14.849  23.088  0.00  0.00    -0.083 A 
ATOM     66  H50 non d ame     -31.092  16.903  23.708  0.00  0.00     0.083 H 
ATOM     67  C33 non d ame     -30.832  13.520  23.491  0.00  0.00    -0.082 A 
ATOM     68  H51 non d ame     -30.618  15.099  22.048  0.00  0.00     0.083 H 
ATOM     69  C34 non d ame     -31.096  13.186  24.817  0.00  0.00    -0.075 A 
ATOM     70  H52 non d ame     -30.628  12.736  22.762  0.00  0.00     0.083 H 
ATOM     71  H53 non d ame     -31.096  12.140  25.126  0.00  0.00     0.084 H 
ENDBRANCH  58  61
ENDBRANCH  57  58
ENDBRANCH  55  57
ENDBRANCH  52  55
ENDBRANCH  49  52
ENDBRANCH  47  49
BRANCH  47  72
ATOM     72  C24 non d ame     -32.176  10.428  29.105  0.00  0.00    -0.039 C 
ATOM     73  H35 non d ame     -31.649  11.259  28.634  0.00  0.00     0.036 H 
ATOM     74  H36 non d ame     -31.622   9.552  29.441  0.00  0.00     0.036 H 
BRANCH  72  75
ATOM     75  C25 non d ame     -33.280   9.918  28.062  0.00  0.00    -0.001 C 
ATOM     76  C26 non d ame     -33.799   8.416  28.486  0.00  0.00    -0.035 C 
ATOM     77  C27 non d ame     -33.712   7.603  27.407  0.00  0.00     0.085 C 
ATOM     78  H38 non d ame     -33.107   7.969  29.199  0.00  0.00     0.036 H 
ATOM     79  H39 non d ame     -34.867   8.438  28.703  0.00  0.00     0.036 H 
ATOM     80  N5  non d ame     -32.876   8.324  26.377  0.00  0.00    -0.049 N 
ATOM     81  H40 non d ame     -33.172   6.721  27.750  0.00  0.00     0.075 H 
ATOM     82  H41 non d ame     -34.731   7.506  27.032  0.00  0.00     0.075 H 
ATOM     83  C28 non d ame     -32.800   9.861  26.864  0.00  0.00     0.193 C 
ATOM     84  H42 non d ame     -31.950   7.924  26.429  0.00  0.00     0.280 HD
ATOM     85  H43 non d ame     -33.395   8.286  25.511  0.00  0.00     0.280 HD
ATOM     86  H44 non d ame     -33.401  10.628  26.374  0.00  0.00     0.129 H 
ATOM     87  H37 non d ame     -34.044  10.671  27.867  0.00  0.00     0.046 H 
BRANCH  83  88
ATOM     88  O6  non d ame     -31.453  10.332  26.800  0.00  0.00    -0.369 OA
ATOM     89  H45 non d ame     -31.083  10.365  27.685  0.00  0.00     0.212 HD
ENDBRANCH  83  88
ENDBRANCH  72  75
ENDBRANCH  47  72
ENDBRANCH  45  47
ENDBRANCH   1  43
BRANCH   1  90
ATOM     90  C16 non d ame     -37.046   8.795  31.770  0.00  0.00    -0.035 C 
ATOM     91  H21 non d ame     -36.364   8.540  32.581  0.00  0.00     0.037 H 
ATOM     92  H22 non d ame     -38.115   8.883  31.964  0.00  0.00     0.037 H 
BRANCH  90  93
ATOM     93  C17 non d ame     -36.884   7.678  30.691  0.00  0.00    -0.059 C 
ATOM     94  H23 non d ame     -36.570   8.157  29.763  0.00  0.00     0.038 H 
BRANCH  93  95
ATOM     95  C18 non d ame     -35.788   6.635  31.082  0.00  0.00    -0.073 C 
ATOM     96  H24 non d ame     -35.567   6.001  30.224  0.00  0.00     0.028 H 
ATOM     97  H25 non d ame     -34.883   7.157  31.390  0.00  0.00     0.028 H 
ATOM     98  H26 non d ame     -36.150   6.019  31.905  0.00  0.00     0.028 H 
ENDBRANCH  93  95
BRANCH  93  99
ATOM     99  C19 non d ame     -38.221   6.985  30.416  0.00  0.00    -0.073 C 
ATOM    100  H27 non d ame     -38.364   6.884  29.340  0.00  0.00     0.028 H 
ATOM    101  H28 non d ame     -38.221   5.997  30.876  0.00  0.00     0.028 H 
ATOM    102  H29 non d ame     -39.032   7.580  30.836  0.00  0.00     0.028 H 
ENDBRANCH  93  99
ENDBRANCH  90  93
ENDBRANCH   1  90
TORSDOF 26
ENDMDL
MODEL 17
REMARK VINA RESULT:      -6.5      2.407      6.200
REMARK  26 active torsions:
REMARK  status: ('A' for Active; 'I' for Inactive)
REMARK    1  A    between atoms: C2_2  and  C3_3 
REMARK    2  A    between atoms: C4_6  and  C5_7 
REMARK       I    between atoms: C5_7  and  N2_9 
REMARK    3  A    between atoms: N2_9  and  C6_10 
REMARK    4  A    between atoms: C6_10  and  C7_11 
REMARK    5  A    between atoms: C6_10  and  C8_13 
REMARK       I    between atoms: C7_11  and  N3_14 
REMARK    6  A    between atoms: N3_14  and  C9_15 
REMARK    7  A    between atoms: C9_15  and  C10_16 
REMARK    8  A    between atoms: C9_15  and  C11_18 
REMARK       I    between atoms: C10_16  and  N4_21 
REMARK    9  A    between atoms: C11_18  and  C12_19 
REMARK   10  A    between atoms: C11_18  and  C13_20 
REMARK   11  A    between atoms: N4_21  and  C14_22 
REMARK   12  A    between atoms: C14_22  and  C15_23 
REMARK   13  A    between atoms: C14_22  and  C16_25 
REMARK       I    between atoms: C15_23  and  N6_40 
REMARK   14  A    between atoms: C16_25  and  C17_26 
REMARK   15  A    between atoms: C17_26  and  C18_27 
REMARK   16  A    between atoms: C17_26  and  C19_28 
REMARK   17  A    between atoms: C20_29  and  C21_30 
REMARK   18  A    between atoms: C20_29  and  C24_33 
REMARK   19  A    between atoms: C20_29  and  N6_40 
REMARK   20  A    between atoms: C21_30  and  C22_31 
REMARK   21  A    between atoms: C22_31  and  C23_32 
REMARK   22  A    between atoms: C23_32  and  O8_43 
REMARK   23  A    between atoms: C24_33  and  C25_34 
REMARK   24  A    between atoms: C28_38  and  O6_39 
REMARK   25  A    between atoms: C29_42  and  O8_43 
REMARK   26  A    between atoms: C29_42  and  C35_49 
ROOT
ATOM      1  C14 non d ame     -32.580   8.077  25.955  0.00  0.00     0.089 C 
ATOM      2  H20 non d ame     -31.614   7.816  26.389  0.00  0.00     0.087 H 
ENDROOT
BRANCH   1   3
ATOM      3  N4  non d ame     -33.589   7.258  26.610  0.00  0.00    -0.346 N 
ATOM      4  C10 non d ame     -33.180   6.093  27.476  0.00  0.00     0.241 C 
ATOM      5  O4  non d ame     -32.032   5.833  27.629  0.00  0.00    -0.271 OA
ATOM      6  H19 non d ame     -34.560   7.495  26.465  0.00  0.00     0.163 HD
BRANCH   4   7
ATOM      7  C9  non d ame     -34.238   5.260  28.151  0.00  0.00     0.092 C 
ATOM      8  H11 non d ame     -33.811   4.785  29.034  0.00  0.00     0.088 H 
BRANCH   7   9
ATOM      9  N3  non d ame     -35.326   6.128  28.610  0.00  0.00    -0.346 N 
ATOM     10  C7  non d ame     -35.538   6.334  30.022  0.00  0.00     0.240 C 
ATOM     11  O3  non d ame     -34.843   5.807  30.802  0.00  0.00    -0.271 OA
ATOM     12  H10 non d ame     -35.935   6.588  27.948  0.00  0.00     0.163 HD
BRANCH  10  13
ATOM     13  C6  non d ame     -36.700   7.257  30.504  0.00  0.00     0.086 C 
ATOM     14  H6  non d ame     -36.461   7.790  31.424  0.00  0.00     0.086 H 
BRANCH  13  15
ATOM     15  N2  non d ame     -36.950   8.268  29.490  0.00  0.00    -0.343 N 
ATOM     16  C5  non d ame     -37.364   9.612  29.899  0.00  0.00     0.273 C 
ATOM     17  O2  non d ame     -37.496   9.869  31.045  0.00  0.00    -0.266 OA
ATOM     18  H5  non d ame     -36.837   8.039  28.512  0.00  0.00     0.163 HD
BRANCH  16  19
ATOM     19  C4  non d ame     -37.630  10.692  28.838  0.00  0.00     0.154 A 
ATOM     20  C1  non d ame     -36.790  11.046  27.735  0.00  0.00    -0.017 A 
ATOM     21  C2  non d ame     -37.482  12.083  27.070  0.00  0.00     0.077 A 
ATOM     22  H1  non d ame     -35.827  10.617  27.460  0.00  0.00     0.091 H 
ATOM     23  O1  non d ame     -38.588  12.291  27.721  0.00  0.00    -0.218 OA
ATOM     24  N1  non d ame     -38.697  11.491  28.757  0.00  0.00    -0.123 NA
BRANCH  21  25
ATOM     25  C3  non d ame     -37.017  12.819  25.820  0.00  0.00    -0.029 C 
ATOM     26  H2  non d ame     -36.154  12.307  25.396  0.00  0.00     0.036 H 
ATOM     27  H3  non d ame     -37.824  12.837  25.088  0.00  0.00     0.036 H 
ATOM     28  H4  non d ame     -36.742  13.841  26.082  0.00  0.00     0.036 H 
ENDBRANCH  21  25
ENDBRANCH  16  19
ENDBRANCH  13  15
BRANCH  13  29
ATOM     29  C8  non d ame     -37.941   6.431  30.727  0.00  0.00    -0.049 C 
ATOM     30  H7  non d ame     -37.662   5.455  31.121  0.00  0.00     0.030 H 
ATOM     31  H8  non d ame     -38.591   6.939  31.440  0.00  0.00     0.030 H 
ATOM     32  H9  non d ame     -38.468   6.304  29.781  0.00  0.00     0.030 H 
ENDBRANCH  13  29
ENDBRANCH  10  13
ENDBRANCH   7   9
BRANCH   7  33
ATOM     33  C11 non d ame     -34.800   4.218  27.140  0.00  0.00    -0.033 C 
ATOM     34  H12 non d ame     -34.735   4.657  26.145  0.00  0.00     0.042 H 
BRANCH  33  35
ATOM     35  C12 non d ame     -33.945   2.913  27.134  0.00  0.00    -0.071 C 
ATOM     36  H13 non d ame     -34.228   2.288  27.982  0.00  0.00     0.028 H 
ATOM     37  H14 non d ame     -34.120   2.368  26.207  0.00  0.00     0.028 H 
ATOM     38  H15 non d ame     -32.888   3.171  27.211  0.00  0.00     0.028 H 
ENDBRANCH  33  35
BRANCH  33  39
ATOM     39  C13 non d ame     -36.303   3.908  27.434  0.00  0.00    -0.071 C 
ATOM     40  H16 non d ame     -36.490   2.844  27.288  0.00  0.00     0.028 H 
ATOM     41  H17 non d ame     -36.536   4.180  28.464  0.00  0.00     0.028 H 
ATOM     42  H18 non d ame     -36.932   4.485  26.756  0.00  0.00     0.028 H 
ENDBRANCH  33  39
ENDBRANCH   7  33
ENDBRANCH   4   7
ENDBRANCH   1   3
BRANCH   1  43
ATOM     43  C15 non d ame     -32.938   9.574  26.176  0.00  0.00     0.240 C 
ATOM     44  O5  non d ame     -33.963  10.005  25.756  0.00  0.00    -0.271 OA
ATOM     45  N6  non d ame     -32.006  10.471  26.918  0.00  0.00    -0.355 N 
ATOM     46  H46 non d ame     -31.134  10.115  27.283  0.00  0.00     0.162 HD
BRANCH  45  47
ATOM     47  C20 non d ame     -32.362  11.892  27.120  0.00  0.00     0.013 C 
ATOM     48  H30 non d ame     -32.901  12.232  26.236  0.00  0.00     0.072 H 
BRANCH  47  49
ATOM     49  C21 non d ame     -31.098  12.703  27.298  0.00  0.00    -0.038 C 
ATOM     50  H31 non d ame     -30.511  12.173  28.048  0.00  0.00     0.036 H 
ATOM     51  H32 non d ame     -30.697  12.847  26.294  0.00  0.00     0.036 H 
BRANCH  49  52
ATOM     52  C22 non d ame     -31.366  14.112  27.868  0.00  0.00     0.018 C 
ATOM     53  H33 non d ame     -32.150  13.985  28.613  0.00  0.00     0.048 H 
ATOM     54  H34 non d ame     -30.391  14.501  28.164  0.00  0.00     0.048 H 
BRANCH  52  55
ATOM     55  C23 non d ame     -31.927  15.115  26.822  0.00  0.00     0.259 C 
ATOM     56  O7  non d ame     -32.519  16.084  27.173  0.00  0.00    -0.265 OA
BRANCH  55  57
ATOM     57  O8  non d ame     -31.737  14.856  25.436  0.00  0.00    -0.317 OA
BRANCH  57  58
ATOM     58  C29 non d ame     -31.480  16.026  24.655  0.00  0.00     0.052 C 
ATOM     59  H47 non d ame     -32.450  16.503  24.511  0.00  0.00     0.082 H 
ATOM     60  H48 non d ame     -30.683  16.558  25.173  0.00  0.00     0.082 H 
BRANCH  58  61
ATOM     61  C35 non d ame     -30.947  15.570  23.271  0.00  0.00    -0.034 A 
ATOM     62  C30 non d ame     -31.184  16.348  22.142  0.00  0.00    -0.075 A 
ATOM     63  C31 non d ame     -30.706  15.938  20.899  0.00  0.00    -0.082 A 
ATOM     64  H49 non d ame     -31.746  17.278  22.231  0.00  0.00     0.084 H 
ATOM     65  C32 non d ame     -29.989  14.744  20.786  0.00  0.00    -0.083 A 
ATOM     66  H50 non d ame     -30.892  16.551  20.016  0.00  0.00     0.083 H 
ATOM     67  C33 non d ame     -29.757  13.970  21.914  0.00  0.00    -0.082 A 
ATOM     68  H51 non d ame     -29.610  14.417  19.817  0.00  0.00     0.083 H 
ATOM     69  C34 non d ame     -30.232  14.376  23.159  0.00  0.00    -0.075 A 
ATOM     70  H52 non d ame     -29.199  13.037  21.822  0.00  0.00     0.083 H 
ATOM     71  H53 non d ame     -30.045  13.763  24.041  0.00  0.00     0.084 H 
ENDBRANCH  58  61
ENDBRANCH  57  58
ENDBRANCH  55  57
ENDBRANCH  52  55
ENDBRANCH  49  52
ENDBRANCH  47  49
BRANCH  47  72
ATOM     72  C24 non d ame     -33.237  12.033  28.363  0.00  0.00    -0.039 C 
ATOM     73  H35 non d ame     -33.161  13.081  28.654  0.00  0.00     0.036 H 
ATOM     74  H36 non d ame     -34.204  11.613  28.086  0.00  0.00     0.036 H 
BRANCH  72  75
ATOM     75  C25 non d ame     -32.677  11.162  29.585  0.00  0.00    -0.001 C 
ATOM     76  C26 non d ame     -33.629   9.841  29.815  0.00  0.00    -0.035 C 
ATOM     77  C27 non d ame     -33.987   9.783  31.120  0.00  0.00     0.085 C 
ATOM     78  H38 non d ame     -34.578   9.970  29.296  0.00  0.00     0.036 H 
ATOM     79  H39 non d ame     -33.047   8.931  29.669  0.00  0.00     0.036 H 
ATOM     80  N5  non d ame     -33.638  11.117  31.734  0.00  0.00    -0.049 N 
ATOM     81  H40 non d ame     -35.070   9.663  31.119  0.00  0.00     0.075 H 
ATOM     82  H41 non d ame     -33.354   9.013  31.561  0.00  0.00     0.075 H 
ATOM     83  C28 non d ame     -32.658  11.848  30.679  0.00  0.00     0.193 C 
ATOM     84  H42 non d ame     -34.500  11.641  31.789  0.00  0.00     0.280 HD
ATOM     85  H43 non d ame     -33.114  10.916  32.574  0.00  0.00     0.280 HD
ATOM     86  H44 non d ame     -31.585  11.899  30.863  0.00  0.00     0.129 H 
ATOM     87  H37 non d ame     -31.602  10.992  29.513  0.00  0.00     0.046 H 
BRANCH  83  88
ATOM     88  O6  non d ame     -33.075  13.199  30.474  0.00  0.00    -0.369 OA
ATOM     89  H45 non d ame     -34.032  13.253  30.543  0.00  0.00     0.212 HD
ENDBRANCH  83  88
ENDBRANCH  72  75
ENDBRANCH  47  72
ENDBRANCH  45  47
ENDBRANCH   1  43
BRANCH   1  90
ATOM     90  C16 non d ame     -32.577   7.765  24.467  0.00  0.00    -0.035 C 
ATOM     91  H21 non d ame     -33.613   7.536  24.218  0.00  0.00     0.037 H 
ATOM     92  H22 non d ame     -32.078   8.612  23.996  0.00  0.00     0.037 H 
BRANCH  90  93
ATOM     93  C17 non d ame     -31.744   6.498  24.094  0.00  0.00    -0.059 C 
ATOM     94  H23 non d ame     -31.096   6.268  24.939  0.00  0.00     0.038 H 
BRANCH  93  95
ATOM     95  C18 non d ame     -32.651   5.252  23.835  0.00  0.00    -0.073 C 
ATOM     96  H24 non d ame     -33.654   5.582  23.567  0.00  0.00     0.028 H 
ATOM     97  H25 non d ame     -32.234   4.662  23.019  0.00  0.00     0.028 H 
ATOM     98  H26 non d ame     -32.697   4.643  24.737  0.00  0.00     0.028 H 
ENDBRANCH  93  95
BRANCH  93  99
ATOM     99  C19 non d ame     -30.840   6.774  22.889  0.00  0.00    -0.073 C 
ATOM    100  H27 non d ame     -30.078   7.502  23.166  0.00  0.00     0.028 H 
ATOM    101  H28 non d ame     -30.360   5.847  22.575  0.00  0.00     0.028 H 
ATOM    102  H29 non d ame     -31.439   7.168  22.068  0.00  0.00     0.028 H 
ENDBRANCH  93  99
ENDBRANCH  90  93
ENDBRANCH   1  90
TORSDOF 26
ENDMDL
MODEL 18
REMARK VINA RESULT:      -6.5      2.565      5.183
REMARK  26 active torsions:
REMARK  status: ('A' for Active; 'I' for Inactive)
REMARK    1  A    between atoms: C2_2  and  C3_3 
REMARK    2  A    between atoms: C4_6  and  C5_7 
REMARK       I    between atoms: C5_7  and  N2_9 
REMARK    3  A    between atoms: N2_9  and  C6_10 
REMARK    4  A    between atoms: C6_10  and  C7_11 
REMARK    5  A    between atoms: C6_10  and  C8_13 
REMARK       I    between atoms: C7_11  and  N3_14 
REMARK    6  A    between atoms: N3_14  and  C9_15 
REMARK    7  A    between atoms: C9_15  and  C10_16 
REMARK    8  A    between atoms: C9_15  and  C11_18 
REMARK       I    between atoms: C10_16  and  N4_21 
REMARK    9  A    between atoms: C11_18  and  C12_19 
REMARK   10  A    between atoms: C11_18  and  C13_20 
REMARK   11  A    between atoms: N4_21  and  C14_22 
REMARK   12  A    between atoms: C14_22  and  C15_23 
REMARK   13  A    between atoms: C14_22  and  C16_25 
REMARK       I    between atoms: C15_23  and  N6_40 
REMARK   14  A    between atoms: C16_25  and  C17_26 
REMARK   15  A    between atoms: C17_26  and  C18_27 
REMARK   16  A    between atoms: C17_26  and  C19_28 
REMARK   17  A    between atoms: C20_29  and  C21_30 
REMARK   18  A    between atoms: C20_29  and  C24_33 
REMARK   19  A    between atoms: C20_29  and  N6_40 
REMARK   20  A    between atoms: C21_30  and  C22_31 
REMARK   21  A    between atoms: C22_31  and  C23_32 
REMARK   22  A    between atoms: C23_32  and  O8_43 
REMARK   23  A    between atoms: C24_33  and  C25_34 
REMARK   24  A    between atoms: C28_38  and  O6_39 
REMARK   25  A    between atoms: C29_42  and  O8_43 
REMARK   26  A    between atoms: C29_42  and  C35_49 
ROOT
ATOM      1  C14 non d ame     -32.411   9.436  25.710  0.00  0.00     0.089 C 
ATOM      2  H20 non d ame     -31.510   8.825  25.656  0.00  0.00     0.087 H 
ENDROOT
BRANCH   1   3
ATOM      3  N4  non d ame     -33.327   8.785  26.636  0.00  0.00    -0.346 N 
ATOM      4  C10 non d ame     -32.998   7.428  27.204  0.00  0.00     0.241 C 
ATOM      5  O4  non d ame     -31.991   6.877  26.899  0.00  0.00    -0.271 OA
ATOM      6  H19 non d ame     -34.179   9.269  26.880  0.00  0.00     0.163 HD
BRANCH   4   7
ATOM      7  C9  non d ame     -33.954   6.771  28.165  0.00  0.00     0.092 C 
ATOM      8  H11 non d ame     -33.472   5.901  28.611  0.00  0.00     0.088 H 
BRANCH   7   9
ATOM      9  N3  non d ame     -34.267   7.700  29.255  0.00  0.00    -0.346 N 
ATOM     10  C7  non d ame     -35.272   8.718  29.067  0.00  0.00     0.240 C 
ATOM     11  O3  non d ame     -35.836   8.805  28.045  0.00  0.00    -0.271 OA
ATOM     12  H10 non d ame     -33.788   7.639  30.141  0.00  0.00     0.163 HD
BRANCH  10  13
ATOM     13  C6  non d ame     -35.599   9.706  30.229  0.00  0.00     0.086 C 
ATOM     14  H6  non d ame     -35.320   9.314  31.207  0.00  0.00     0.086 H 
BRANCH  13  15
ATOM     15  N2  non d ame     -34.834  10.928  30.039  0.00  0.00    -0.343 N 
ATOM     16  C5  non d ame     -33.452  10.996  30.518  0.00  0.00     0.273 C 
ATOM     17  O2  non d ame     -32.965  10.064  31.058  0.00  0.00    -0.266 OA
ATOM     18  H5  non d ame     -35.259  11.720  29.579  0.00  0.00     0.163 HD
BRANCH  16  19
ATOM     19  C4  non d ame     -32.632  12.281  30.322  0.00  0.00     0.154 A 
ATOM     20  C1  non d ame     -33.020  13.452  29.598  0.00  0.00    -0.017 A 
ATOM     21  C2  non d ame     -31.924  14.335  29.720  0.00  0.00     0.077 A 
ATOM     22  H1  non d ame     -33.954  13.634  29.066  0.00  0.00     0.091 H 
ATOM     23  O1  non d ame     -31.018  13.732  30.433  0.00  0.00    -0.218 OA
ATOM     24  N1  non d ame     -31.408  12.532  30.796  0.00  0.00    -0.123 NA
BRANCH  21  25
ATOM     25  C3  non d ame     -31.822  15.734  29.126  0.00  0.00    -0.029 C 
ATOM     26  H2  non d ame     -32.580  16.375  29.575  0.00  0.00     0.036 H 
ATOM     27  H3  non d ame     -30.833  16.143  29.330  0.00  0.00     0.036 H 
ATOM     28  H4  non d ame     -31.979  15.684  28.049  0.00  0.00     0.036 H 
ENDBRANCH  21  25
ENDBRANCH  16  19
ENDBRANCH  13  15
BRANCH  13  29
ATOM     29  C8  non d ame     -37.074  10.015  30.230  0.00  0.00    -0.049 C 
ATOM     30  H7  non d ame     -37.291  10.757  29.462  0.00  0.00     0.030 H 
ATOM     31  H8  non d ame     -37.636   9.104  30.024  0.00  0.00     0.030 H 
ATOM     32  H9  non d ame     -37.363  10.407  31.206  0.00  0.00     0.030 H 
ENDBRANCH  13  29
ENDBRANCH  10  13
ENDBRANCH   7   9
BRANCH   7  33
ATOM     33  C11 non d ame     -35.265   6.394  27.415  0.00  0.00    -0.033 C 
ATOM     34  H12 non d ame     -35.892   7.285  27.382  0.00  0.00     0.042 H 
BRANCH  33  35
ATOM     35  C12 non d ame     -34.976   5.969  25.942  0.00  0.00    -0.071 C 
ATOM     36  H13 non d ame     -34.122   6.532  25.562  0.00  0.00     0.028 H 
ATOM     37  H14 non d ame     -34.752   4.903  25.908  0.00  0.00     0.028 H 
ATOM     38  H15 non d ame     -35.850   6.177  25.325  0.00  0.00     0.028 H 
ENDBRANCH  33  35
BRANCH  33  39
ATOM     39  C13 non d ame     -36.048   5.281  28.182  0.00  0.00    -0.071 C 
ATOM     40  H16 non d ame     -36.148   4.402  27.545  0.00  0.00     0.028 H 
ATOM     41  H17 non d ame     -35.504   5.013  29.089  0.00  0.00     0.028 H 
ATOM     42  H18 non d ame     -37.038   5.651  28.450  0.00  0.00     0.028 H 
ENDBRANCH  33  39
ENDBRANCH   7  33
ENDBRANCH   4   7
ENDBRANCH   1   3
BRANCH   1  43
ATOM     43  C15 non d ame     -32.118  10.872  26.232  0.00  0.00     0.240 C 
ATOM     44  O5  non d ame     -31.430  11.024  27.190  0.00  0.00    -0.271 OA
ATOM     45  N6  non d ame     -32.687  12.059  25.533  0.00  0.00    -0.355 N 
ATOM     46  H46 non d ame     -33.269  11.943  24.715  0.00  0.00     0.162 HD
BRANCH  45  47
ATOM     47  C20 non d ame     -32.397  13.417  26.040  0.00  0.00     0.013 C 
ATOM     48  H30 non d ame     -32.330  13.362  27.127  0.00  0.00     0.072 H 
BRANCH  47  49
ATOM     49  C21 non d ame     -33.517  14.351  25.638  0.00  0.00    -0.038 C 
ATOM     50  H31 non d ame     -33.068  15.342  25.582  0.00  0.00     0.036 H 
ATOM     51  H32 non d ame     -33.967  13.904  24.751  0.00  0.00     0.036 H 
BRANCH  49  52
ATOM     52  C22 non d ame     -34.635  14.437  26.699  0.00  0.00     0.018 C 
ATOM     53  H33 non d ame     -35.066  13.438  26.756  0.00  0.00     0.048 H 
ATOM     54  H34 non d ame     -34.172  14.882  27.580  0.00  0.00     0.048 H 
BRANCH  52  55
ATOM     55  C23 non d ame     -35.802  15.384  26.304  0.00  0.00     0.259 C 
ATOM     56  O7  non d ame     -36.813  15.389  26.927  0.00  0.00    -0.265 OA
BRANCH  55  57
ATOM     57  O8  non d ame     -35.653  16.240  25.177  0.00  0.00    -0.317 OA
BRANCH  57  58
ATOM     58  C29 non d ame     -36.017  17.601  25.427  0.00  0.00     0.052 C 
ATOM     59  H47 non d ame     -36.079  18.074  24.448  0.00  0.00     0.082 H 
ATOM     60  H48 non d ame     -36.897  17.558  26.069  0.00  0.00     0.082 H 
BRANCH  58  61
ATOM     61  C35 non d ame     -34.862  18.267  26.223  0.00  0.00    -0.034 A 
ATOM     62  C30 non d ame     -33.544  18.089  25.817  0.00  0.00    -0.075 A 
ATOM     63  C31 non d ame     -32.507  18.687  26.531  0.00  0.00    -0.082 A 
ATOM     64  H49 non d ame     -33.323  17.481  24.939  0.00  0.00     0.084 H 
ATOM     65  C32 non d ame     -32.792  19.464  27.657  0.00  0.00    -0.083 A 
ATOM     66  H50 non d ame     -31.474  18.547  26.209  0.00  0.00     0.083 H 
ATOM     67  C33 non d ame     -34.109  19.635  28.061  0.00  0.00    -0.082 A 
ATOM     68  H51 non d ame     -31.987  19.935  28.221  0.00  0.00     0.083 H 
ATOM     69  C34 non d ame     -35.149  19.041  27.349  0.00  0.00    -0.075 A 
ATOM     70  H52 non d ame     -34.329  20.239  28.941  0.00  0.00     0.083 H 
ATOM     71  H53 non d ame     -36.181  19.181  27.671  0.00  0.00     0.084 H 
ENDBRANCH  58  61
ENDBRANCH  57  58
ENDBRANCH  55  57
ENDBRANCH  52  55
ENDBRANCH  49  52
ENDBRANCH  47  49
BRANCH  47  72
ATOM     72  C24 non d ame     -31.080  13.918  25.452  0.00  0.00    -0.039 C 
ATOM     73  H35 non d ame     -30.821  14.804  26.033  0.00  0.00     0.036 H 
ATOM     74  H36 non d ame     -30.415  13.054  25.452  0.00  0.00     0.036 H 
BRANCH  72  75
ATOM     75  C25 non d ame     -31.250  14.385  23.929  0.00  0.00    -0.001 C 
ATOM     76  C26 non d ame     -30.316  13.450  22.950  0.00  0.00    -0.035 C 
ATOM     77  C27 non d ame     -29.564  14.258  22.164  0.00  0.00     0.085 C 
ATOM     78  H38 non d ame     -29.578  12.910  23.541  0.00  0.00     0.036 H 
ATOM     79  H39 non d ame     -30.943  12.913  22.237  0.00  0.00     0.036 H 
ATOM     80  N5  non d ame     -29.657  15.649  22.743  0.00  0.00    -0.049 N 
ATOM     81  H40 non d ame     -28.541  13.896  22.270  0.00  0.00     0.075 H 
ATOM     82  H41 non d ame     -30.047  14.246  21.188  0.00  0.00     0.075 H 
ATOM     83  C28 non d ame     -30.897  15.618  23.776  0.00  0.00     0.193 C 
ATOM     84  H42 non d ame     -28.806  15.799  23.266  0.00  0.00     0.280 HD
ATOM     85  H43 non d ame     -29.893  16.262  21.975  0.00  0.00     0.280 HD
ATOM     86  H44 non d ame     -31.854  16.065  23.506  0.00  0.00     0.129 H 
ATOM     87  H37 non d ame     -32.296  14.506  23.649  0.00  0.00     0.046 H 
BRANCH  83  88
ATOM     88  O6  non d ame     -30.524  16.230  25.012  0.00  0.00    -0.369 OA
ATOM     89  H45 non d ame     -31.047  15.855  25.725  0.00  0.00     0.212 HD
ENDBRANCH  83  88
ENDBRANCH  72  75
ENDBRANCH  47  72
ENDBRANCH  45  47
ENDBRANCH   1  43
BRANCH   1  90
ATOM     90  C16 non d ame     -33.064   9.514  24.339  0.00  0.00    -0.035 C 
ATOM     91  H21 non d ame     -33.985   8.938  24.425  0.00  0.00     0.037 H 
ATOM     92  H22 non d ame     -33.106  10.577  24.100  0.00  0.00     0.037 H 
BRANCH  90  93
ATOM     93  C17 non d ame     -32.226   8.839  23.207  0.00  0.00    -0.059 C 
ATOM     94  H23 non d ame     -31.784   7.932  23.619  0.00  0.00     0.038 H 
BRANCH  93  95
ATOM     95  C18 non d ame     -33.109   8.428  21.986  0.00  0.00    -0.073 C 
ATOM     96  H24 non d ame     -33.851   9.203  21.796  0.00  0.00     0.028 H 
ATOM     97  H25 non d ame     -32.478   8.308  21.105  0.00  0.00     0.028 H 
ATOM     98  H26 non d ame     -33.613   7.487  22.203  0.00  0.00     0.028 H 
ENDBRANCH  93  95
BRANCH  93  99
ATOM     99  C19 non d ame     -31.074   9.746  22.766  0.00  0.00    -0.073 C 
ATOM    100  H27 non d ame     -31.348  10.788  22.931  0.00  0.00     0.028 H 
ATOM    101  H28 non d ame     -30.182   9.509  23.346  0.00  0.00     0.028 H 
ATOM    102  H29 non d ame     -30.870   9.586  21.707  0.00  0.00     0.028 H 
ENDBRANCH  93  99
ENDBRANCH  90  93
ENDBRANCH   1  90
TORSDOF 26
ENDMDL
MODEL 19
REMARK VINA RESULT:      -6.5      3.092      9.846
REMARK  26 active torsions:
REMARK  status: ('A' for Active; 'I' for Inactive)
REMARK    1  A    between atoms: C2_2  and  C3_3 
REMARK    2  A    between atoms: C4_6  and  C5_7 
REMARK       I    between atoms: C5_7  and  N2_9 
REMARK    3  A    between atoms: N2_9  and  C6_10 
REMARK    4  A    between atoms: C6_10  and  C7_11 
REMARK    5  A    between atoms: C6_10  and  C8_13 
REMARK       I    between atoms: C7_11  and  N3_14 
REMARK    6  A    between atoms: N3_14  and  C9_15 
REMARK    7  A    between atoms: C9_15  and  C10_16 
REMARK    8  A    between atoms: C9_15  and  C11_18 
REMARK       I    between atoms: C10_16  and  N4_21 
REMARK    9  A    between atoms: C11_18  and  C12_19 
REMARK   10  A    between atoms: C11_18  and  C13_20 
REMARK   11  A    between atoms: N4_21  and  C14_22 
REMARK   12  A    between atoms: C14_22  and  C15_23 
REMARK   13  A    between atoms: C14_22  and  C16_25 
REMARK       I    between atoms: C15_23  and  N6_40 
REMARK   14  A    between atoms: C16_25  and  C17_26 
REMARK   15  A    between atoms: C17_26  and  C18_27 
REMARK   16  A    between atoms: C17_26  and  C19_28 
REMARK   17  A    between atoms: C20_29  and  C21_30 
REMARK   18  A    between atoms: C20_29  and  C24_33 
REMARK   19  A    between atoms: C20_29  and  N6_40 
REMARK   20  A    between atoms: C21_30  and  C22_31 
REMARK   21  A    between atoms: C22_31  and  C23_32 
REMARK   22  A    between atoms: C23_32  and  O8_43 
REMARK   23  A    between atoms: C24_33  and  C25_34 
REMARK   24  A    between atoms: C28_38  and  O6_39 
REMARK   25  A    between atoms: C29_42  and  O8_43 
REMARK   26  A    between atoms: C29_42  and  C35_49 
ROOT
ATOM      1  C14 non d ame     -35.932  13.037  26.115  0.00  0.00     0.089 C 
ATOM      2  H20 non d ame     -36.624  12.874  26.942  0.00  0.00     0.087 H 
ENDROOT
BRANCH   1   3
ATOM      3  N4  non d ame     -35.767  14.475  25.960  0.00  0.00    -0.346 N 
ATOM      4  C10 non d ame     -36.827  15.422  26.464  0.00  0.00     0.241 C 
ATOM      5  O4  non d ame     -37.805  15.003  26.989  0.00  0.00    -0.271 OA
ATOM      6  H19 non d ame     -34.929  14.811  25.508  0.00  0.00     0.163 HD
BRANCH   4   7
ATOM      7  C9  non d ame     -36.637  16.907  26.300  0.00  0.00     0.092 C 
ATOM      8  H11 non d ame     -36.975  17.414  27.204  0.00  0.00     0.088 H 
BRANCH   7   9
ATOM      9  N3  non d ame     -35.210  17.204  26.144  0.00  0.00    -0.346 N 
ATOM     10  C7  non d ame     -34.429  17.606  27.287  0.00  0.00     0.240 C 
ATOM     11  O3  non d ame     -34.933  17.698  28.340  0.00  0.00    -0.271 OA
ATOM     12  H10 non d ame     -34.762  17.130  25.242  0.00  0.00     0.163 HD
BRANCH  10  13
ATOM     13  C6  non d ame     -32.911  17.923  27.115  0.00  0.00     0.086 C 
ATOM     14  H6  non d ame     -32.290  17.434  27.865  0.00  0.00     0.086 H 
BRANCH  13  15
ATOM     15  N2  non d ame     -32.470  17.427  25.822  0.00  0.00    -0.343 N 
ATOM     16  C5  non d ame     -31.782  16.136  25.741  0.00  0.00     0.273 C 
ATOM     17  O2  non d ame     -31.587  15.506  26.723  0.00  0.00    -0.266 OA
ATOM     18  H5  non d ame     -32.639  17.973  24.989  0.00  0.00     0.163 HD
BRANCH  16  19
ATOM     19  C4  non d ame     -31.312  15.598  24.381  0.00  0.00     0.154 A 
ATOM     20  C1  non d ame     -30.546  14.413  24.138  0.00  0.00    -0.017 A 
ATOM     21  C2  non d ame     -30.382  14.369  22.735  0.00  0.00     0.077 A 
ATOM     22  H1  non d ame     -30.168  13.696  24.867  0.00  0.00     0.091 H 
ATOM     23  O1  non d ame     -30.986  15.409  22.241  0.00  0.00    -0.218 OA
ATOM     24  N1  non d ame     -31.537  16.142  23.182  0.00  0.00    -0.123 NA
BRANCH  21  25
ATOM     25  C3  non d ame     -29.635  13.300  21.948  0.00  0.00    -0.029 C 
ATOM     26  H2  non d ame     -30.209  13.034  21.061  0.00  0.00     0.036 H 
ATOM     27  H3  non d ame     -28.660  13.684  21.648  0.00  0.00     0.036 H 
ATOM     28  H4  non d ame     -29.500  12.417  22.573  0.00  0.00     0.036 H 
ENDBRANCH  21  25
ENDBRANCH  16  19
ENDBRANCH  13  15
BRANCH  13  29
ATOM     29  C8  non d ame     -32.693  19.413  27.197  0.00  0.00    -0.049 C 
ATOM     30  H7  non d ame     -33.299  19.911  26.440  0.00  0.00     0.030 H 
ATOM     31  H8  non d ame     -32.983  19.768  28.186  0.00  0.00     0.030 H 
ATOM     32  H9  non d ame     -31.640  19.637  27.025  0.00  0.00     0.030 H 
ENDBRANCH  13  29
ENDBRANCH  10  13
ENDBRANCH   7   9
BRANCH   7  33
ATOM     33  C11 non d ame     -37.406  17.391  25.036  0.00  0.00    -0.033 C 
ATOM     34  H12 non d ame     -36.834  18.209  24.596  0.00  0.00     0.042 H 
BRANCH  33  35
ATOM     35  C12 non d ame     -37.507  16.261  23.964  0.00  0.00    -0.071 C 
ATOM     36  H13 non d ame     -37.331  16.682  22.974  0.00  0.00     0.028 H 
ATOM     37  H14 non d ame     -36.760  15.496  24.172  0.00  0.00     0.028 H 
ATOM     38  H15 non d ame     -38.502  15.817  23.998  0.00  0.00     0.028 H 
ENDBRANCH  33  35
BRANCH  33  39
ATOM     39  C13 non d ame     -38.819  17.940  25.416  0.00  0.00    -0.071 C 
ATOM     40  H16 non d ame     -39.199  18.558  24.603  0.00  0.00     0.028 H 
ATOM     41  H17 non d ame     -39.499  17.104  25.587  0.00  0.00     0.028 H 
ATOM     42  H18 non d ame     -38.744  18.537  26.324  0.00  0.00     0.028 H 
ENDBRANCH  33  39
ENDBRANCH   7  33
ENDBRANCH   4   7
ENDBRANCH   1   3
BRANCH   1  43
ATOM     43  C15 non d ame     -34.537  12.405  26.384  0.00  0.00     0.240 C 
ATOM     44  O5  non d ame     -33.559  12.922  25.948  0.00  0.00    -0.271 OA
ATOM     45  N6  non d ame     -34.418  11.158  27.192  0.00  0.00    -0.355 N 
ATOM     46  H46 non d ame     -35.240  10.712  27.571  0.00  0.00     0.162 HD
BRANCH  45  47
ATOM     47  C20 non d ame     -33.083  10.570  27.440  0.00  0.00     0.013 C 
ATOM     48  H30 non d ame     -32.342  11.203  26.952  0.00  0.00     0.072 H 
BRANCH  47  49
ATOM     49  C21 non d ame     -33.036   9.175  26.857  0.00  0.00    -0.038 C 
ATOM     50  H31 non d ame     -33.810   9.150  26.089  0.00  0.00     0.036 H 
ATOM     51  H32 non d ame     -31.994   9.005  26.587  0.00  0.00     0.036 H 
BRANCH  49  52
ATOM     52  C22 non d ame     -33.406   8.084  27.885  0.00  0.00     0.018 C 
ATOM     53  H33 non d ame     -32.750   7.241  27.669  0.00  0.00     0.048 H 
ATOM     54  H34 non d ame     -33.366   8.570  28.860  0.00  0.00     0.048 H 
BRANCH  52  55
ATOM     55  C23 non d ame     -34.856   7.547  27.733  0.00  0.00     0.259 C 
ATOM     56  O7  non d ame     -35.670   8.169  27.133  0.00  0.00    -0.265 OA
BRANCH  55  57
ATOM     57  O8  non d ame     -35.205   6.305  28.333  0.00  0.00    -0.317 OA
BRANCH  57  58
ATOM     58  C29 non d ame     -34.929   6.238  29.735  0.00  0.00     0.052 C 
ATOM     59  H47 non d ame     -35.125   5.205  30.025  0.00  0.00     0.082 H 
ATOM     60  H48 non d ame     -33.932   6.658  29.860  0.00  0.00     0.082 H 
BRANCH  58  61
ATOM     61  C35 non d ame     -35.944   7.155  30.468  0.00  0.00    -0.034 A 
ATOM     62  C30 non d ame     -35.493   8.256  31.189  0.00  0.00    -0.075 A 
ATOM     63  C31 non d ame     -36.404   9.080  31.848  0.00  0.00    -0.082 A 
ATOM     64  H49 non d ame     -34.425   8.473  31.239  0.00  0.00     0.084 H 
ATOM     65  C32 non d ame     -37.771   8.799  31.785  0.00  0.00    -0.083 A 
ATOM     66  H50 non d ame     -36.047   9.943  32.411  0.00  0.00     0.083 H 
ATOM     67  C33 non d ame     -38.216   7.697  31.067  0.00  0.00    -0.082 A 
ATOM     68  H51 non d ame     -38.491   9.439  32.297  0.00  0.00     0.083 H 
ATOM     69  C34 non d ame     -37.309   6.872  30.406  0.00  0.00    -0.075 A 
ATOM     70  H52 non d ame     -39.284   7.479  31.022  0.00  0.00     0.083 H 
ATOM     71  H53 non d ame     -37.667   6.009  29.843  0.00  0.00     0.084 H 
ENDBRANCH  58  61
ENDBRANCH  57  58
ENDBRANCH  55  57
ENDBRANCH  52  55
ENDBRANCH  49  52
ENDBRANCH  47  49
BRANCH  47  72
ATOM     72  C24 non d ame     -32.819  10.504  28.942  0.00  0.00    -0.039 C 
ATOM     73  H35 non d ame     -33.657   9.946  29.360  0.00  0.00     0.036 H 
ATOM     74  H36 non d ame     -31.804  10.118  29.042  0.00  0.00     0.036 H 
BRANCH  72  75
ATOM     75  C25 non d ame     -32.839  11.959  29.612  0.00  0.00    -0.001 C 
ATOM     76  C26 non d ame     -31.666  12.899  28.946  0.00  0.00    -0.035 C 
ATOM     77  C27 non d ame     -30.926  13.444  29.941  0.00  0.00     0.085 C 
ATOM     78  H38 non d ame     -30.950  12.277  28.408  0.00  0.00     0.036 H 
ATOM     79  H39 non d ame     -32.112  13.764  28.456  0.00  0.00     0.036 H 
ATOM     80  N5  non d ame     -31.280  12.706  31.209  0.00  0.00    -0.049 N 
ATOM     81  H40 non d ame     -29.889  13.231  29.683  0.00  0.00     0.075 H 
ATOM     82  H41 non d ame     -31.266  14.476  30.024  0.00  0.00     0.075 H 
ATOM     83  C28 non d ame     -32.635  11.891  30.885  0.00  0.00     0.193 C 
ATOM     84  H42 non d ame     -30.536  12.043  31.372  0.00  0.00     0.280 HD
ATOM     85  H43 non d ame     -31.487  13.412  31.902  0.00  0.00     0.280 HD
ATOM     86  H44 non d ame     -33.596  12.243  31.260  0.00  0.00     0.129 H 
ATOM     87  H37 non d ame     -33.844  12.379  29.658  0.00  0.00     0.046 H 
BRANCH  83  88
ATOM     88  O6  non d ame     -32.518  10.541  31.341  0.00  0.00    -0.369 OA
ATOM     89  H45 non d ame     -31.622  10.230  31.193  0.00  0.00     0.212 HD
ENDBRANCH  83  88
ENDBRANCH  72  75
ENDBRANCH  47  72
ENDBRANCH  45  47
ENDBRANCH   1  43
BRANCH   1  90
ATOM     90  C16 non d ame     -36.516  12.463  24.834  0.00  0.00    -0.035 C 
ATOM     91  H21 non d ame     -36.610  13.310  24.155  0.00  0.00     0.037 H 
ATOM     92  H22 non d ame     -35.869  11.625  24.573  0.00  0.00     0.037 H 
BRANCH  90  93
ATOM     93  C17 non d ame     -37.952  11.875  25.008  0.00  0.00    -0.059 C 
ATOM     94  H23 non d ame     -38.008  10.959  24.421  0.00  0.00     0.038 H 
BRANCH  93  95
ATOM     95  C18 non d ame     -38.263  11.508  26.494  0.00  0.00    -0.073 C 
ATOM     96  H24 non d ame     -37.372  11.668  27.102  0.00  0.00     0.028 H 
ATOM     97  H25 non d ame     -39.071  12.139  26.863  0.00  0.00     0.028 H 
ATOM     98  H26 non d ame     -38.561  10.462  26.555  0.00  0.00     0.028 H 
ENDBRANCH  93  95
BRANCH  93  99
ATOM     99  C19 non d ame     -39.007  12.836  24.452  0.00  0.00    -0.073 C 
ATOM    100  H27 non d ame     -39.969  12.630  24.922  0.00  0.00     0.028 H 
ATOM    101  H28 non d ame     -38.711  13.863  24.665  0.00  0.00     0.028 H 
ATOM    102  H29 non d ame     -39.091  12.699  23.375  0.00  0.00     0.028 H 
ENDBRANCH  93  99
ENDBRANCH  90  93
ENDBRANCH   1  90
TORSDOF 26
ENDMDL
MODEL 20
REMARK VINA RESULT:      -6.5      2.702      9.329
REMARK  26 active torsions:
REMARK  status: ('A' for Active; 'I' for Inactive)
REMARK    1  A    between atoms: C2_2  and  C3_3 
REMARK    2  A    between atoms: C4_6  and  C5_7 
REMARK       I    between atoms: C5_7  and  N2_9 
REMARK    3  A    between atoms: N2_9  and  C6_10 
REMARK    4  A    between atoms: C6_10  and  C7_11 
REMARK    5  A    between atoms: C6_10  and  C8_13 
REMARK       I    between atoms: C7_11  and  N3_14 
REMARK    6  A    between atoms: N3_14  and  C9_15 
REMARK    7  A    between atoms: C9_15  and  C10_16 
REMARK    8  A    between atoms: C9_15  and  C11_18 
REMARK       I    between atoms: C10_16  and  N4_21 
REMARK    9  A    between atoms: C11_18  and  C12_19 
REMARK   10  A    between atoms: C11_18  and  C13_20 
REMARK   11  A    between atoms: N4_21  and  C14_22 
REMARK   12  A    between atoms: C14_22  and  C15_23 
REMARK   13  A    between atoms: C14_22  and  C16_25 
REMARK       I    between atoms: C15_23  and  N6_40 
REMARK   14  A    between atoms: C16_25  and  C17_26 
REMARK   15  A    between atoms: C17_26  and  C18_27 
REMARK   16  A    between atoms: C17_26  and  C19_28 
REMARK   17  A    between atoms: C20_29  and  C21_30 
REMARK   18  A    between atoms: C20_29  and  C24_33 
REMARK   19  A    between atoms: C20_29  and  N6_40 
REMARK   20  A    between atoms: C21_30  and  C22_31 
REMARK   21  A    between atoms: C22_31  and  C23_32 
REMARK   22  A    between atoms: C23_32  and  O8_43 
REMARK   23  A    between atoms: C24_33  and  C25_34 
REMARK   24  A    between atoms: C28_38  and  O6_39 
REMARK   25  A    between atoms: C29_42  and  O8_43 
REMARK   26  A    between atoms: C29_42  and  C35_49 
ROOT
ATOM      1  C14 non d ame     -34.804   8.531  30.392  0.00  0.00     0.089 C 
ATOM      2  H20 non d ame     -34.651   8.638  31.466  0.00  0.00     0.087 H 
ENDROOT
BRANCH   1   3
ATOM      3  N4  non d ame     -33.762   9.296  29.723  0.00  0.00    -0.346 N 
ATOM      4  C10 non d ame     -33.163  10.510  30.386  0.00  0.00     0.241 C 
ATOM      5  O4  non d ame     -33.538  10.855  31.457  0.00  0.00    -0.271 OA
ATOM      6  H19 non d ame     -33.458   8.987  28.810  0.00  0.00     0.163 HD
BRANCH   4   7
ATOM      7  C9  non d ame     -32.082  11.286  29.681  0.00  0.00     0.092 C 
ATOM      8  H11 non d ame     -31.368  10.589  29.243  0.00  0.00     0.088 H 
BRANCH   7   9
ATOM      9  N3  non d ame     -32.669  12.054  28.579  0.00  0.00    -0.346 N 
ATOM     10  C7  non d ame     -31.981  12.141  27.314  0.00  0.00     0.240 C 
ATOM     11  O3  non d ame     -30.953  11.601  27.167  0.00  0.00    -0.271 OA
ATOM     12  H10 non d ame     -33.555  12.526  28.691  0.00  0.00     0.163 HD
BRANCH  10  13
ATOM     13  C6  non d ame     -32.610  12.962  26.146  0.00  0.00     0.086 C 
ATOM     14  H6  non d ame     -33.686  12.814  26.058  0.00  0.00     0.086 H 
BRANCH  13  15
ATOM     15  N2  non d ame     -32.404  14.378  26.401  0.00  0.00    -0.343 N 
ATOM     16  C5  non d ame     -33.375  15.113  27.214  0.00  0.00     0.273 C 
ATOM     17  O2  non d ame     -34.320  14.557  27.656  0.00  0.00    -0.266 OA
ATOM     18  H5  non d ame     -31.595  14.846  26.017  0.00  0.00     0.163 HD
BRANCH  16  19
ATOM     19  C4  non d ame     -33.170  16.610  27.493  0.00  0.00     0.154 A 
ATOM     20  C1  non d ame     -33.418  17.699  26.597  0.00  0.00    -0.017 A 
ATOM     21  C2  non d ame     -33.072  18.857  27.329  0.00  0.00     0.077 A 
ATOM     22  H1  non d ame     -33.792  17.655  25.574  0.00  0.00     0.091 H 
ATOM     23  O1  non d ame     -32.675  18.468  28.505  0.00  0.00    -0.218 OA
ATOM     24  N1  non d ame     -32.722  17.162  28.624  0.00  0.00    -0.123 NA
BRANCH  21  25
ATOM     25  C3  non d ame     -33.152  20.294  26.831  0.00  0.00    -0.029 C 
ATOM     26  H2  non d ame     -32.485  20.921  27.423  0.00  0.00     0.036 H 
ATOM     27  H3  non d ame     -32.853  20.333  25.784  0.00  0.00     0.036 H 
ATOM     28  H4  non d ame     -34.175  20.657  26.931  0.00  0.00     0.036 H 
ENDBRANCH  21  25
ENDBRANCH  16  19
ENDBRANCH  13  15
BRANCH  13  29
ATOM     29  C8  non d ame     -31.957  12.571  24.845  0.00  0.00    -0.049 C 
ATOM     30  H7  non d ame     -30.978  12.137  25.046  0.00  0.00     0.030 H 
ATOM     31  H8  non d ame     -32.580  11.839  24.331  0.00  0.00     0.030 H 
ATOM     32  H9  non d ame     -31.841  13.455  24.216  0.00  0.00     0.030 H 
ENDBRANCH  13  29
ENDBRANCH  10  13
ENDBRANCH   7   9
BRANCH   7  33
ATOM     33  C11 non d ame     -31.405  12.263  30.686  0.00  0.00    -0.033 C 
ATOM     34  H12 non d ame     -31.993  12.251  31.603  0.00  0.00     0.042 H 
BRANCH  33  35
ATOM     35  C12 non d ame     -29.961  11.794  31.050  0.00  0.00    -0.071 C 
ATOM     36  H13 non d ame     -29.595  12.371  31.899  0.00  0.00     0.028 H 
ATOM     37  H14 non d ame     -29.977  10.736  31.309  0.00  0.00     0.028 H 
ATOM     38  H15 non d ame     -29.303  11.950  30.195  0.00  0.00     0.028 H 
ENDBRANCH  33  35
BRANCH  33  39
ATOM     39  C13 non d ame     -31.403  13.724  30.132  0.00  0.00    -0.071 C 
ATOM     40  H16 non d ame     -30.822  13.762  29.211  0.00  0.00     0.028 H 
ATOM     41  H17 non d ame     -32.428  14.036  29.929  0.00  0.00     0.028 H 
ATOM     42  H18 non d ame     -30.960  14.392  30.870  0.00  0.00     0.028 H 
ENDBRANCH  33  39
ENDBRANCH   7  33
ENDBRANCH   4   7
ENDBRANCH   1   3
BRANCH   1  43
ATOM     43  C15 non d ame     -34.706   7.049  29.929  0.00  0.00     0.240 C 
ATOM     44  O5  non d ame     -35.169   6.188  30.605  0.00  0.00    -0.271 OA
ATOM     45  N6  non d ame     -34.044   6.705  28.639  0.00  0.00    -0.355 N 
ATOM     46  H46 non d ame     -33.652   7.429  28.055  0.00  0.00     0.162 HD
BRANCH  45  47
ATOM     47  C20 non d ame     -33.960   5.292  28.213  0.00  0.00     0.013 C 
ATOM     48  H30 non d ame     -33.977   4.670  29.108  0.00  0.00     0.072 H 
BRANCH  47  49
ATOM     49  C21 non d ame     -32.670   5.073  27.456  0.00  0.00    -0.038 C 
ATOM     50  H31 non d ame     -31.950   4.721  28.195  0.00  0.00     0.036 H 
ATOM     51  H32 non d ame     -32.930   4.443  26.605  0.00  0.00     0.036 H 
BRANCH  49  52
ATOM     52  C22 non d ame     -32.090   6.379  26.870  0.00  0.00     0.018 C 
ATOM     53  H33 non d ame     -32.722   7.180  27.252  0.00  0.00     0.048 H 
ATOM     54  H34 non d ame     -31.026   6.364  27.109  0.00  0.00     0.048 H 
BRANCH  52  55
ATOM     55  C23 non d ame     -32.180   6.465  25.321  0.00  0.00     0.259 C 
ATOM     56  O7  non d ame     -32.271   5.478  24.667  0.00  0.00    -0.265 OA
BRANCH  55  57
ATOM     57  O8  non d ame     -32.138   7.739  24.691  0.00  0.00    -0.317 OA
BRANCH  57  58
ATOM     58  C29 non d ame     -32.414   8.834  25.570  0.00  0.00     0.052 C 
ATOM     59  H47 non d ame     -32.318   8.433  26.579  0.00  0.00     0.082 H 
ATOM     60  H48 non d ame     -31.765   9.646  25.243  0.00  0.00     0.082 H 
BRANCH  58  61
ATOM     61  C35 non d ame     -33.888   9.264  25.351  0.00  0.00    -0.034 A 
ATOM     62  C30 non d ame     -34.432   9.262  24.070  0.00  0.00    -0.075 A 
ATOM     63  C31 non d ame     -35.756   9.649  23.873  0.00  0.00    -0.082 A 
ATOM     64  H49 non d ame     -33.820   8.957  23.221  0.00  0.00     0.084 H 
ATOM     65  C32 non d ame     -36.538  10.042  24.962  0.00  0.00    -0.083 A 
ATOM     66  H50 non d ame     -36.180   9.645  22.868  0.00  0.00     0.083 H 
ATOM     67  C33 non d ame     -35.990  10.046  26.238  0.00  0.00    -0.082 A 
ATOM     68  H51 non d ame     -37.575  10.346  24.817  0.00  0.00     0.083 H 
ATOM     69  C34 non d ame     -34.668   9.658  26.440  0.00  0.00    -0.075 A 
ATOM     70  H52 non d ame     -36.602  10.356  27.086  0.00  0.00     0.083 H 
ATOM     71  H53 non d ame     -34.245   9.663  27.445  0.00  0.00     0.084 H 
ENDBRANCH  58  61
ENDBRANCH  57  58
ENDBRANCH  55  57
ENDBRANCH  52  55
ENDBRANCH  49  52
ENDBRANCH  47  49
BRANCH  47  72
ATOM     72  C24 non d ame     -35.145   4.954  27.309  0.00  0.00    -0.039 C 
ATOM     73  H35 non d ame     -34.743   4.295  26.539  0.00  0.00     0.036 H 
ATOM     74  H36 non d ame     -35.927   4.595  27.979  0.00  0.00     0.036 H 
BRANCH  72  75
ATOM     75  C25 non d ame     -35.715   6.255  26.569  0.00  0.00    -0.001 C 
ATOM     76  C26 non d ame     -37.221   6.604  27.131  0.00  0.00    -0.035 C 
ATOM     77  C27 non d ame     -38.058   6.747  26.076  0.00  0.00     0.085 C 
ATOM     78  H38 non d ame     -37.628   5.746  27.665  0.00  0.00     0.036 H 
ATOM     79  H39 non d ame     -37.227   7.589  27.597  0.00  0.00     0.036 H 
ATOM     80  N5  non d ame     -37.338   6.207  24.864  0.00  0.00    -0.049 N 
ATOM     81  H40 non d ame     -38.914   6.109  26.295  0.00  0.00     0.075 H 
ATOM     82  H41 non d ame     -38.196   7.821  25.958  0.00  0.00     0.075 H 
ATOM     83  C28 non d ame     -35.787   6.073  25.293  0.00  0.00     0.193 C 
ATOM     84  H42 non d ame     -37.708   5.282  24.700  0.00  0.00     0.280 HD
ATOM     85  H43 non d ame     -37.414   6.915  24.148  0.00  0.00     0.280 HD
ATOM     86  H44 non d ame     -35.052   6.800  24.947  0.00  0.00     0.129 H 
ATOM     87  H37 non d ame     -34.992   7.070  26.550  0.00  0.00     0.046 H 
BRANCH  83  88
ATOM     88  O6  non d ame     -35.276   4.797  24.901  0.00  0.00    -0.369 OA
ATOM     89  H45 non d ame     -35.561   4.131  25.531  0.00  0.00     0.212 HD
ENDBRANCH  83  88
ENDBRANCH  72  75
ENDBRANCH  47  72
ENDBRANCH  45  47
ENDBRANCH   1  43
BRANCH   1  90
ATOM     90  C16 non d ame     -36.161   9.099  30.007  0.00  0.00    -0.035 C 
ATOM     91  H21 non d ame     -35.949  10.060  29.540  0.00  0.00     0.037 H 
ATOM     92  H22 non d ame     -36.651   8.311  29.435  0.00  0.00     0.037 H 
BRANCH  90  93
ATOM     93  C17 non d ame     -37.085   9.397  31.230  0.00  0.00    -0.059 C 
ATOM     94  H23 non d ame     -37.507  10.393  31.090  0.00  0.00     0.038 H 
BRANCH  93  95
ATOM     95  C18 non d ame     -38.273   8.387  31.331  0.00  0.00    -0.073 C 
ATOM     96  H24 non d ame     -38.584   8.090  30.330  0.00  0.00     0.028 H 
ATOM     97  H25 non d ame     -37.953   7.506  31.888  0.00  0.00     0.028 H 
ATOM     98  H26 non d ame     -39.108   8.859  31.847  0.00  0.00     0.028 H 
ENDBRANCH  93  95
BRANCH  93  99
ATOM     99  C19 non d ame     -36.279   9.424  32.531  0.00  0.00    -0.073 C 
ATOM    100  H27 non d ame     -35.238   9.182  32.318  0.00  0.00     0.028 H 
ATOM    101  H28 non d ame     -36.338  10.417  32.975  0.00  0.00     0.028 H 
ATOM    102  H29 non d ame     -36.688   8.691  33.226  0.00  0.00     0.028 H 
ENDBRANCH  93  99
ENDBRANCH  90  93
ENDBRANCH   1  90
TORSDOF 26
ENDMDL
