MODEL 1
REMARK VINA RESULT:      -7.1      0.000      0.000
REMARK  26 active torsions:
REMARK  status: ('A' for Active; 'I' for Inactive)
REMARK    1  A    between atoms: C2_2  and  C3_3 
REMARK    2  A    between atoms: C4_6  and  C5_7 
REMARK       I    between atoms: C5_7  and  N2_9 
REMARK    3  A    between atoms: N2_9  and  C6_10 
REMARK    4  A    between atoms: C6_10  and  C7_11 
REMARK    5  A    between atoms: C6_10  and  C8_13 
REMARK       I    between atoms: C7_11  and  N3_14 
REMARK    6  A    between atoms: N3_14  and  C9_15 
REMARK    7  A    between atoms: C9_15  and  C10_16 
REMARK    8  A    between atoms: C9_15  and  C11_18 
REMARK       I    between atoms: C10_16  and  N4_21 
REMARK    9  A    between atoms: C11_18  and  C12_19 
REMARK   10  A    between atoms: C11_18  and  C13_20 
REMARK   11  A    between atoms: N4_21  and  C14_22 
REMARK   12  A    between atoms: C14_22  and  C15_23 
REMARK   13  A    between atoms: C14_22  and  C16_25 
REMARK       I    between atoms: C15_23  and  N6_40 
REMARK   14  A    between atoms: C16_25  and  C17_26 
REMARK   15  A    between atoms: C17_26  and  C18_27 
REMARK   16  A    between atoms: C17_26  and  C19_28 
REMARK   17  A    between atoms: C20_29  and  C21_30 
REMARK   18  A    between atoms: C20_29  and  C24_33 
REMARK   19  A    between atoms: C20_29  and  N6_40 
REMARK   20  A    between atoms: C21_30  and  C22_31 
REMARK   21  A    between atoms: C22_31  and  C23_32 
REMARK   22  A    between atoms: C23_32  and  O8_43 
REMARK   23  A    between atoms: C24_33  and  C25_34 
REMARK   24  A    between atoms: C28_38  and  O6_39 
REMARK   25  A    between atoms: C29_42  and  O8_43 
REMARK   26  A    between atoms: C29_42  and  C35_49 
ROOT
ATOM      1  C14 non d ame     -30.786  14.447  23.956  0.00  0.00     0.089 C 
ATOM      2  H20 non d ame     -29.701  14.489  23.857  0.00  0.00     0.087 H 
ENDROOT
BRANCH   1   3
ATOM      3  N4  non d ame     -31.147  13.064  24.231  0.00  0.00    -0.346 N 
ATOM      4  C10 non d ame     -30.565  11.946  23.403  0.00  0.00     0.241 C 
ATOM      5  O4  non d ame     -29.810  12.184  22.519  0.00  0.00    -0.271 OA
ATOM      6  H19 non d ame     -31.793  12.883  24.986  0.00  0.00     0.163 HD
BRANCH   4   7
ATOM      7  C9  non d ame     -30.946  10.520  23.705  0.00  0.00     0.092 C 
ATOM      8  H11 non d ame     -30.385  10.176  24.574  0.00  0.00     0.088 H 
BRANCH   7   9
ATOM      9  N3  non d ame     -32.368  10.457  24.054  0.00  0.00    -0.346 N 
ATOM     10  C7  non d ame     -32.765  10.190  25.415  0.00  0.00     0.240 C 
ATOM     11  O3  non d ame     -31.953  10.022  26.241  0.00  0.00    -0.271 OA
ATOM     12  H10 non d ame     -33.080  10.598  23.352  0.00  0.00     0.163 HD
BRANCH  10  13
ATOM     13  C6  non d ame     -34.280  10.121  25.780  0.00  0.00     0.086 C 
ATOM     14  H6  non d ame     -34.458  10.164  26.854  0.00  0.00     0.086 H 
BRANCH  13  15
ATOM     15  N2  non d ame     -34.958  11.268  25.199  0.00  0.00    -0.343 N 
ATOM     16  C5  non d ame     -35.750  12.150  26.060  0.00  0.00     0.273 C 
ATOM     17  O2  non d ame     -35.838  11.925  27.217  0.00  0.00    -0.266 OA
ATOM     18  H5  non d ame     -34.879  11.451  24.209  0.00  0.00     0.163 HD
BRANCH  16  19
ATOM     19  C4  non d ame     -36.470  13.367  25.460  0.00  0.00     0.154 A 
ATOM     20  C1  non d ame     -36.907  13.534  24.108  0.00  0.00    -0.017 A 
ATOM     21  C2  non d ame     -37.505  14.813  24.074  0.00  0.00     0.077 A 
ATOM     22  H1  non d ame     -36.805  12.834  23.278  0.00  0.00     0.091 H 
ATOM     23  O1  non d ame     -37.418  15.313  25.272  0.00  0.00    -0.218 OA
ATOM     24  N1  non d ame     -36.817  14.489  26.098  0.00  0.00    -0.123 NA
BRANCH  21  25
ATOM     25  C3  non d ame     -38.136  15.482  22.860  0.00  0.00    -0.029 C 
ATOM     26  H2  non d ame     -39.011  16.051  23.172  0.00  0.00     0.036 H 
ATOM     27  H3  non d ame     -37.412  16.152  22.397  0.00  0.00     0.036 H 
ATOM     28  H4  non d ame     -38.436  14.720  22.140  0.00  0.00     0.036 H 
ENDBRANCH  21  25
ENDBRANCH  16  19
ENDBRANCH  13  15
BRANCH  13  29
ATOM     29  C8  non d ame     -34.872   8.844  25.239  0.00  0.00    -0.049 C 
ATOM     30  H7  non d ame     -35.059   8.154  26.062  0.00  0.00     0.030 H 
ATOM     31  H8  non d ame     -35.810   9.065  24.731  0.00  0.00     0.030 H 
ATOM     32  H9  non d ame     -34.175   8.389  24.535  0.00  0.00     0.030 H 
ENDBRANCH  13  29
ENDBRANCH  10  13
ENDBRANCH   7   9
BRANCH   7  33
ATOM     33  C11 non d ame     -30.683   9.637  22.451  0.00  0.00    -0.033 C 
ATOM     34  H12 non d ame     -30.593  10.303  21.592  0.00  0.00     0.042 H 
BRANCH  33  35
ATOM     35  C12 non d ame     -29.339   8.854  22.578  0.00  0.00    -0.071 C 
ATOM     36  H13 non d ame     -28.972   8.926  23.602  0.00  0.00     0.028 H 
ATOM     37  H14 non d ame     -29.502   7.807  22.324  0.00  0.00     0.028 H 
ATOM     38  H15 non d ame     -28.602   9.283  21.899  0.00  0.00     0.028 H 
ENDBRANCH  33  35
BRANCH  33  39
ATOM     39  C13 non d ame     -31.880   8.667  22.188  0.00  0.00    -0.071 C 
ATOM     40  H16 non d ame     -31.652   7.687  22.607  0.00  0.00     0.028 H 
ATOM     41  H17 non d ame     -32.779   9.065  22.660  0.00  0.00     0.028 H 
ATOM     42  H18 non d ame     -32.044   8.576  21.114  0.00  0.00     0.028 H 
ENDBRANCH  33  39
ENDBRANCH   7  33
ENDBRANCH   4   7
ENDBRANCH   1   3
BRANCH   1  43
ATOM     43  C15 non d ame     -31.304  15.335  25.124  0.00  0.00     0.240 C 
ATOM     44  O5  non d ame     -31.313  16.518  25.007  0.00  0.00    -0.271 OA
ATOM     45  N6  non d ame     -31.795  14.710  26.385  0.00  0.00    -0.355 N 
ATOM     46  H46 non d ame     -31.796  13.707  26.494  0.00  0.00     0.162 HD
BRANCH  45  47
ATOM     47  C20 non d ame     -32.286  15.569  27.485  0.00  0.00     0.013 C 
ATOM     48  H30 non d ame     -31.835  16.554  27.368  0.00  0.00     0.072 H 
BRANCH  47  49
ATOM     49  C21 non d ame     -31.874  14.967  28.810  0.00  0.00    -0.038 C 
ATOM     50  H31 non d ame     -30.819  14.715  28.704  0.00  0.00     0.036 H 
ATOM     51  H32 non d ame     -32.191  15.682  29.569  0.00  0.00     0.036 H 
BRANCH  49  52
ATOM     52  C22 non d ame     -32.609  13.645  29.121  0.00  0.00     0.018 C 
ATOM     53  H33 non d ame     -32.964  13.739  30.147  0.00  0.00     0.048 H 
ATOM     54  H34 non d ame     -33.322  13.504  28.308  0.00  0.00     0.048 H 
BRANCH  52  55
ATOM     55  C23 non d ame     -31.686  12.395  29.102  0.00  0.00     0.259 C 
ATOM     56  O7  non d ame     -30.772  12.332  28.345  0.00  0.00    -0.265 OA
BRANCH  55  57
ATOM     57  O8  non d ame     -31.952  11.318  29.992  0.00  0.00    -0.317 OA
BRANCH  57  58
ATOM     58  C29 non d ame     -32.970  10.423  29.535  0.00  0.00     0.052 C 
ATOM     59  H47 non d ame     -33.535  10.977  28.786  0.00  0.00     0.082 H 
ATOM     60  H48 non d ame     -32.453   9.505  29.258  0.00  0.00     0.082 H 
BRANCH  58  61
ATOM     61  C35 non d ame     -33.909  10.115  30.731  0.00  0.00    -0.034 A 
ATOM     62  C30 non d ame     -34.197  11.106  31.664  0.00  0.00    -0.075 A 
ATOM     63  C31 non d ame     -35.040  10.829  32.739  0.00  0.00    -0.082 A 
ATOM     64  H49 non d ame     -33.761  12.099  31.554  0.00  0.00     0.084 H 
ATOM     65  C32 non d ame     -35.595   9.554  32.881  0.00  0.00    -0.083 A 
ATOM     66  H50 non d ame     -35.265  11.609  33.468  0.00  0.00     0.083 H 
ATOM     67  C33 non d ame     -35.302   8.568  31.949  0.00  0.00    -0.082 A 
ATOM     68  H51 non d ame     -36.256   9.330  33.718  0.00  0.00     0.083 H 
ATOM     69  C34 non d ame     -34.462   8.841  30.872  0.00  0.00    -0.075 A 
ATOM     70  H52 non d ame     -35.735   7.574  32.064  0.00  0.00     0.083 H 
ATOM     71  H53 non d ame     -34.237   8.061  30.144  0.00  0.00     0.084 H 
ENDBRANCH  58  61
ENDBRANCH  57  58
ENDBRANCH  55  57
ENDBRANCH  52  55
ENDBRANCH  49  52
ENDBRANCH  47  49
BRANCH  47  72
ATOM     72  C24 non d ame     -33.808  15.670  27.422  0.00  0.00    -0.039 C 
ATOM     73  H35 non d ame     -34.101  15.098  26.541  0.00  0.00     0.036 H 
ATOM     74  H36 non d ame     -34.160  15.369  28.409  0.00  0.00     0.036 H 
BRANCH  72  75
ATOM     75  C25 non d ame     -34.292  17.179  27.187  0.00  0.00    -0.001 C 
ATOM     76  C26 non d ame     -35.569  17.516  28.167  0.00  0.00    -0.035 C 
ATOM     77  C27 non d ame     -36.570  18.036  27.416  0.00  0.00     0.085 C 
ATOM     78  H38 non d ame     -35.996  16.592  28.555  0.00  0.00     0.036 H 
ATOM     79  H39 non d ame     -35.314  18.328  28.849  0.00  0.00     0.036 H 
ATOM     80  N5  non d ame     -36.215  17.782  25.971  0.00  0.00    -0.049 N 
ATOM     81  H40 non d ame     -37.457  17.457  27.672  0.00  0.00     0.075 H 
ATOM     82  H41 non d ame     -36.546  19.109  27.604  0.00  0.00     0.075 H 
ATOM     83  C28 non d ame     -34.655  17.369  25.963  0.00  0.00     0.193 C 
ATOM     84  H42 non d ame     -36.761  16.984  25.679  0.00  0.00     0.280 HD
ATOM     85  H43 non d ame     -36.317  18.666  25.493  0.00  0.00     0.280 HD
ATOM     86  H44 non d ame     -33.895  18.081  25.639  0.00  0.00     0.129 H 
ATOM     87  H37 non d ame     -33.462  17.885  27.195  0.00  0.00     0.046 H 
BRANCH  83  88
ATOM     88  O6  non d ame     -34.457  16.206  25.156  0.00  0.00    -0.369 OA
ATOM     89  H45 non d ame     -34.825  16.357  24.282  0.00  0.00     0.212 HD
ENDBRANCH  83  88
ENDBRANCH  72  75
ENDBRANCH  47  72
ENDBRANCH  45  47
ENDBRANCH   1  43
BRANCH   1  90
ATOM     90  C16 non d ame     -31.440  14.881  22.655  0.00  0.00    -0.035 C 
ATOM     91  H21 non d ame     -31.692  13.957  22.136  0.00  0.00     0.037 H 
ATOM     92  H22 non d ame     -32.229  15.575  22.946  0.00  0.00     0.037 H 
BRANCH  90  93
ATOM     93  C17 non d ame     -30.484  15.672  21.706  0.00  0.00    -0.059 C 
ATOM     94  H23 non d ame     -30.737  16.729  21.788  0.00  0.00     0.038 H 
BRANCH  93  95
ATOM     95  C18 non d ame     -28.984  15.508  22.112  0.00  0.00    -0.073 C 
ATOM     96  H24 non d ame     -28.909  14.834  22.964  0.00  0.00     0.028 H 
ATOM     97  H25 non d ame     -28.423  15.096  21.273  0.00  0.00     0.028 H 
ATOM     98  H26 non d ame     -28.572  16.481  22.381  0.00  0.00     0.028 H 
ENDBRANCH  93  95
BRANCH  93  99
ATOM     99  C19 non d ame     -30.701  15.265  20.247  0.00  0.00    -0.073 C 
ATOM    100  H27 non d ame     -30.594  16.140  19.605  0.00  0.00     0.028 H 
ATOM    101  H28 non d ame     -29.962  14.515  19.965  0.00  0.00     0.028 H 
ATOM    102  H29 non d ame     -31.702  14.849  20.131  0.00  0.00     0.028 H 
ENDBRANCH  93  99
ENDBRANCH  90  93
ENDBRANCH   1  90
TORSDOF 26
ENDMDL
MODEL 2
REMARK VINA RESULT:      -7.0      1.781      2.670
REMARK  26 active torsions:
REMARK  status: ('A' for Active; 'I' for Inactive)
REMARK    1  A    between atoms: C2_2  and  C3_3 
REMARK    2  A    between atoms: C4_6  and  C5_7 
REMARK       I    between atoms: C5_7  and  N2_9 
REMARK    3  A    between atoms: N2_9  and  C6_10 
REMARK    4  A    between atoms: C6_10  and  C7_11 
REMARK    5  A    between atoms: C6_10  and  C8_13 
REMARK       I    between atoms: C7_11  and  N3_14 
REMARK    6  A    between atoms: N3_14  and  C9_15 
REMARK    7  A    between atoms: C9_15  and  C10_16 
REMARK    8  A    between atoms: C9_15  and  C11_18 
REMARK       I    between atoms: C10_16  and  N4_21 
REMARK    9  A    between atoms: C11_18  and  C12_19 
REMARK   10  A    between atoms: C11_18  and  C13_20 
REMARK   11  A    between atoms: N4_21  and  C14_22 
REMARK   12  A    between atoms: C14_22  and  C15_23 
REMARK   13  A    between atoms: C14_22  and  C16_25 
REMARK       I    between atoms: C15_23  and  N6_40 
REMARK   14  A    between atoms: C16_25  and  C17_26 
REMARK   15  A    between atoms: C17_26  and  C18_27 
REMARK   16  A    between atoms: C17_26  and  C19_28 
REMARK   17  A    between atoms: C20_29  and  C21_30 
REMARK   18  A    between atoms: C20_29  and  C24_33 
REMARK   19  A    between atoms: C20_29  and  N6_40 
REMARK   20  A    between atoms: C21_30  and  C22_31 
REMARK   21  A    between atoms: C22_31  and  C23_32 
REMARK   22  A    between atoms: C23_32  and  O8_43 
REMARK   23  A    between atoms: C24_33  and  C25_34 
REMARK   24  A    between atoms: C28_38  and  O6_39 
REMARK   25  A    between atoms: C29_42  and  O8_43 
REMARK   26  A    between atoms: C29_42  and  C35_49 
ROOT
ATOM      1  C14 non d ame     -31.108  14.071  24.399  0.00  0.00     0.089 C 
ATOM      2  H20 non d ame     -30.125  13.642  24.599  0.00  0.00     0.087 H 
ENDROOT
BRANCH   1   3
ATOM      3  N4  non d ame     -32.095  13.024  24.614  0.00  0.00    -0.346 N 
ATOM      4  C10 non d ame     -31.851  11.944  25.638  0.00  0.00     0.241 C 
ATOM      5  O4  non d ame     -30.850  11.938  26.276  0.00  0.00    -0.271 OA
ATOM      6  H19 non d ame     -32.939  13.045  24.059  0.00  0.00     0.163 HD
BRANCH   4   7
ATOM      7  C9  non d ame     -32.886  10.871  25.851  0.00  0.00     0.092 C 
ATOM      8  H11 non d ame     -33.038  10.727  26.920  0.00  0.00     0.088 H 
BRANCH   7   9
ATOM      9  N3  non d ame     -34.166  11.308  25.285  0.00  0.00    -0.346 N 
ATOM     10  C7  non d ame     -35.189  11.845  26.149  0.00  0.00     0.240 C 
ATOM     11  O3  non d ame     -34.999  11.932  27.301  0.00  0.00    -0.271 OA
ATOM     12  H10 non d ame     -34.345  11.238  24.294  0.00  0.00     0.163 HD
BRANCH  10  13
ATOM     13  C6  non d ame     -36.551  12.306  25.542  0.00  0.00     0.086 C 
ATOM     14  H6  non d ame     -37.399  12.070  26.184  0.00  0.00     0.086 H 
BRANCH  13  15
ATOM     15  N2  non d ame     -36.534  13.751  25.388  0.00  0.00    -0.343 N 
ATOM     16  C5  non d ame     -37.505  14.566  26.121  0.00  0.00     0.273 C 
ATOM     17  O2  non d ame     -38.298  14.048  26.830  0.00  0.00    -0.266 OA
ATOM     18  H5  non d ame     -35.855  14.184  24.779  0.00  0.00     0.163 HD
BRANCH  16  19
ATOM     19  C4  non d ame     -37.498  16.095  25.970  0.00  0.00     0.154 A 
ATOM     20  C1  non d ame     -37.116  16.847  24.814  0.00  0.00    -0.017 A 
ATOM     21  C2  non d ame     -37.288  18.199  25.187  0.00  0.00     0.077 A 
ATOM     22  H1  non d ame     -36.768  16.470  23.852  0.00  0.00     0.091 H 
ATOM     23  O1  non d ame     -37.719  18.210  26.415  0.00  0.00    -0.218 OA
ATOM     24  N1  non d ame     -37.850  16.994  26.893  0.00  0.00    -0.123 NA
BRANCH  21  25
ATOM     25  C3  non d ame     -37.019  19.417  24.314  0.00  0.00    -0.029 C 
ATOM     26  H2  non d ame     -36.163  19.965  24.707  0.00  0.00     0.036 H 
ATOM     27  H3  non d ame     -36.804  19.093  23.295  0.00  0.00     0.036 H 
ATOM     28  H4  non d ame     -37.895  20.064  24.312  0.00  0.00     0.036 H 
ENDBRANCH  21  25
ENDBRANCH  16  19
ENDBRANCH  13  15
BRANCH  13  29
ATOM     29  C8  non d ame     -36.755  11.646  24.202  0.00  0.00    -0.049 C 
ATOM     30  H7  non d ame     -37.452  10.815  24.308  0.00  0.00     0.030 H 
ATOM     31  H8  non d ame     -37.161  12.372  23.498  0.00  0.00     0.030 H 
ATOM     32  H9  non d ame     -35.800  11.274  23.830  0.00  0.00     0.030 H 
ENDBRANCH  13  29
ENDBRANCH  10  13
ENDBRANCH   7   9
BRANCH   7  33
ATOM     33  C11 non d ame     -32.429   9.562  25.143  0.00  0.00    -0.033 C 
ATOM     34  H12 non d ame     -31.349   9.620  25.009  0.00  0.00     0.042 H 
BRANCH  33  35
ATOM     35  C12 non d ame     -32.726   8.307  26.021  0.00  0.00    -0.071 C 
ATOM     36  H13 non d ame     -32.561   7.404  25.433  0.00  0.00     0.028 H 
ATOM     37  H14 non d ame     -32.064   8.304  26.886  0.00  0.00     0.028 H 
ATOM     38  H15 non d ame     -33.763   8.336  26.357  0.00  0.00     0.028 H 
ENDBRANCH  33  35
BRANCH  33  39
ATOM     39  C13 non d ame     -33.084   9.433  23.730  0.00  0.00    -0.071 C 
ATOM     40  H16 non d ame     -33.576  10.370  23.470  0.00  0.00     0.028 H 
ATOM     41  H17 non d ame     -32.313   9.209  22.991  0.00  0.00     0.028 H 
ATOM     42  H18 non d ame     -33.818   8.627  23.742  0.00  0.00     0.028 H 
ENDBRANCH  33  39
ENDBRANCH   7  33
ENDBRANCH   4   7
ENDBRANCH   1   3
BRANCH   1  43
ATOM     43  C15 non d ame     -31.433  15.260  25.348  0.00  0.00     0.240 C 
ATOM     44  O5  non d ame     -30.995  16.340  25.114  0.00  0.00    -0.271 OA
ATOM     45  N6  non d ame     -32.299  15.055  26.543  0.00  0.00    -0.355 N 
ATOM     46  H46 non d ame     -32.682  14.143  26.750  0.00  0.00     0.162 HD
BRANCH  45  47
ATOM     47  C20 non d ame     -32.601  16.196  27.435  0.00  0.00     0.013 C 
ATOM     48  H30 non d ame     -31.866  16.977  27.239  0.00  0.00     0.072 H 
BRANCH  47  49
ATOM     49  C21 non d ame     -32.504  15.744  28.874  0.00  0.00    -0.038 C 
ATOM     50  H31 non d ame     -31.514  16.051  29.214  0.00  0.00     0.036 H 
ATOM     51  H32 non d ame     -33.395  16.137  29.366  0.00  0.00     0.036 H 
BRANCH  49  52
ATOM     52  C22 non d ame     -32.562  14.209  29.026  0.00  0.00     0.018 C 
ATOM     53  H33 non d ame     -33.060  14.025  29.977  0.00  0.00     0.048 H 
ATOM     54  H34 non d ame     -33.001  13.837  28.100  0.00  0.00     0.048 H 
BRANCH  52  55
ATOM     55  C23 non d ame     -31.165  13.538  29.138  0.00  0.00     0.259 C 
ATOM     56  O7  non d ame     -30.195  14.093  28.736  0.00  0.00    -0.265 OA
BRANCH  55  57
ATOM     57  O8  non d ame     -31.059  12.242  29.716  0.00  0.00    -0.317 OA
BRANCH  57  58
ATOM     58  C29 non d ame     -31.775  12.092  30.945  0.00  0.00     0.052 C 
ATOM     59  H47 non d ame     -31.071  11.639  31.643  0.00  0.00     0.082 H 
ATOM     60  H48 non d ame     -32.202  13.072  31.159  0.00  0.00     0.082 H 
BRANCH  58  61
ATOM     61  C35 non d ame     -32.938  11.094  30.702  0.00  0.00    -0.034 A 
ATOM     62  C30 non d ame     -34.009  11.042  31.589  0.00  0.00    -0.075 A 
ATOM     63  C31 non d ame     -35.053  10.145  31.372  0.00  0.00    -0.082 A 
ATOM     64  H49 non d ame     -34.030  11.705  32.455  0.00  0.00     0.084 H 
ATOM     65  C32 non d ame     -35.023   9.295  30.263  0.00  0.00    -0.083 A 
ATOM     66  H50 non d ame     -35.892  10.109  32.068  0.00  0.00     0.083 H 
ATOM     67  C33 non d ame     -33.951   9.347  29.383  0.00  0.00    -0.082 A 
ATOM     68  H51 non d ame     -35.836   8.591  30.085  0.00  0.00     0.083 H 
ATOM     69  C34 non d ame     -32.906  10.244  29.595  0.00  0.00    -0.075 A 
ATOM     70  H52 non d ame     -33.929   8.680  28.520  0.00  0.00     0.083 H 
ATOM     71  H53 non d ame     -32.068  10.279  28.899  0.00  0.00     0.084 H 
ENDBRANCH  58  61
ENDBRANCH  57  58
ENDBRANCH  55  57
ENDBRANCH  52  55
ENDBRANCH  49  52
ENDBRANCH  47  49
BRANCH  47  72
ATOM     72  C24 non d ame     -34.011  16.711  27.155  0.00  0.00    -0.039 C 
ATOM     73  H35 non d ame     -34.342  16.181  26.262  0.00  0.00     0.036 H 
ATOM     74  H36 non d ame     -34.554  16.592  28.092  0.00  0.00     0.036 H 
BRANCH  72  75
ATOM     75  C25 non d ame     -34.012  18.274  26.804  0.00  0.00    -0.001 C 
ATOM     76  C26 non d ame     -32.485  18.876  26.922  0.00  0.00    -0.035 C 
ATOM     77  C27 non d ame     -32.510  19.977  27.709  0.00  0.00     0.085 C 
ATOM     78  H38 non d ame     -31.852  18.182  27.473  0.00  0.00     0.036 H 
ATOM     79  H39 non d ame     -32.160  19.261  25.955  0.00  0.00     0.036 H 
ATOM     80  N5  non d ame     -33.851  19.994  28.403  0.00  0.00    -0.049 N 
ATOM     81  H40 non d ame     -31.727  19.822  28.451  0.00  0.00     0.075 H 
ATOM     82  H41 non d ame     -32.453  20.824  27.027  0.00  0.00     0.075 H 
ATOM     83  C28 non d ame     -34.775  18.934  27.610  0.00  0.00     0.193 C 
ATOM     84  H42 non d ame     -33.693  19.646  29.339  0.00  0.00     0.280 HD
ATOM     85  H43 non d ame     -34.232  20.919  28.266  0.00  0.00     0.280 HD
ATOM     86  H44 non d ame     -35.543  19.279  26.918  0.00  0.00     0.129 H 
ATOM     87  H37 non d ame     -34.561  18.491  25.888  0.00  0.00     0.046 H 
BRANCH  83  88
ATOM     88  O6  non d ame     -35.449  18.079  28.535  0.00  0.00    -0.369 OA
ATOM     89  H45 non d ame     -36.063  17.515  28.059  0.00  0.00     0.212 HD
ENDBRANCH  83  88
ENDBRANCH  72  75
ENDBRANCH  47  72
ENDBRANCH  45  47
ENDBRANCH   1  43
BRANCH   1  90
ATOM     90  C16 non d ame     -31.183  14.535  22.953  0.00  0.00    -0.035 C 
ATOM     91  H21 non d ame     -31.976  13.941  22.500  0.00  0.00     0.037 H 
ATOM     92  H22 non d ame     -31.275  15.620  23.003  0.00  0.00     0.037 H 
BRANCH  90  93
ATOM     93  C17 non d ame     -29.887  14.239  22.132  0.00  0.00    -0.059 C 
ATOM     94  H23 non d ame     -30.074  14.538  21.101  0.00  0.00     0.038 H 
BRANCH  93  95
ATOM     95  C18 non d ame     -28.661  15.057  22.651  0.00  0.00    -0.073 C 
ATOM     96  H24 non d ame     -27.740  14.585  22.312  0.00  0.00     0.028 H 
ATOM     97  H25 non d ame     -28.712  16.074  22.263  0.00  0.00     0.028 H 
ATOM     98  H26 non d ame     -28.677  15.083  23.740  0.00  0.00     0.028 H 
ENDBRANCH  93  95
BRANCH  93  99
ATOM     99  C19 non d ame     -29.577  12.740  22.122  0.00  0.00    -0.073 C 
ATOM    100  H27 non d ame     -30.229  12.238  21.407  0.00  0.00     0.028 H 
ATOM    101  H28 non d ame     -28.536  12.586  21.836  0.00  0.00     0.028 H 
ATOM    102  H29 non d ame     -29.744  12.328  23.117  0.00  0.00     0.028 H 
ENDBRANCH  93  99
ENDBRANCH  90  93
ENDBRANCH   1  90
TORSDOF 26
ENDMDL
MODEL 3
REMARK VINA RESULT:      -6.9      3.284      6.660
REMARK  26 active torsions:
REMARK  status: ('A' for Active; 'I' for Inactive)
REMARK    1  A    between atoms: C2_2  and  C3_3 
REMARK    2  A    between atoms: C4_6  and  C5_7 
REMARK       I    between atoms: C5_7  and  N2_9 
REMARK    3  A    between atoms: N2_9  and  C6_10 
REMARK    4  A    between atoms: C6_10  and  C7_11 
REMARK    5  A    between atoms: C6_10  and  C8_13 
REMARK       I    between atoms: C7_11  and  N3_14 
REMARK    6  A    between atoms: N3_14  and  C9_15 
REMARK    7  A    between atoms: C9_15  and  C10_16 
REMARK    8  A    between atoms: C9_15  and  C11_18 
REMARK       I    between atoms: C10_16  and  N4_21 
REMARK    9  A    between atoms: C11_18  and  C12_19 
REMARK   10  A    between atoms: C11_18  and  C13_20 
REMARK   11  A    between atoms: N4_21  and  C14_22 
REMARK   12  A    between atoms: C14_22  and  C15_23 
REMARK   13  A    between atoms: C14_22  and  C16_25 
REMARK       I    between atoms: C15_23  and  N6_40 
REMARK   14  A    between atoms: C16_25  and  C17_26 
REMARK   15  A    between atoms: C17_26  and  C18_27 
REMARK   16  A    between atoms: C17_26  and  C19_28 
REMARK   17  A    between atoms: C20_29  and  C21_30 
REMARK   18  A    between atoms: C20_29  and  C24_33 
REMARK   19  A    between atoms: C20_29  and  N6_40 
REMARK   20  A    between atoms: C21_30  and  C22_31 
REMARK   21  A    between atoms: C22_31  and  C23_32 
REMARK   22  A    between atoms: C23_32  and  O8_43 
REMARK   23  A    between atoms: C24_33  and  C25_34 
REMARK   24  A    between atoms: C28_38  and  O6_39 
REMARK   25  A    between atoms: C29_42  and  O8_43 
REMARK   26  A    between atoms: C29_42  and  C35_49 
ROOT
ATOM      1  C14 non d ame     -32.972  10.396  25.527  0.00  0.00     0.089 C 
ATOM      2  H20 non d ame     -33.666  10.475  24.690  0.00  0.00     0.087 H 
ENDROOT
BRANCH   1   3
ATOM      3  N4  non d ame     -32.408   9.055  25.505  0.00  0.00    -0.346 N 
ATOM      4  C10 non d ame     -33.113   7.944  24.769  0.00  0.00     0.241 C 
ATOM      5  O4  non d ame     -34.136   8.153  24.204  0.00  0.00    -0.271 OA
ATOM      6  H19 non d ame     -31.538   8.897  25.994  0.00  0.00     0.163 HD
BRANCH   4   7
ATOM      7  C9  non d ame     -32.512   6.563  24.751  0.00  0.00     0.092 C 
ATOM      8  H11 non d ame     -31.447   6.633  24.973  0.00  0.00     0.088 H 
BRANCH   7   9
ATOM      9  N3  non d ame     -33.123   5.751  25.807  0.00  0.00    -0.346 N 
ATOM     10  C7  non d ame     -32.646   5.857  27.165  0.00  0.00     0.240 C 
ATOM     11  O3  non d ame     -31.772   6.591  27.424  0.00  0.00    -0.271 OA
ATOM     12  H10 non d ame     -33.877   5.112  25.599  0.00  0.00     0.163 HD
BRANCH  10  13
ATOM     13  C6  non d ame     -33.298   4.987  28.284  0.00  0.00     0.086 C 
ATOM     14  H6  non d ame     -32.660   4.881  29.161  0.00  0.00     0.086 H 
BRANCH  13  15
ATOM     15  N2  non d ame     -34.519   5.636  28.734  0.00  0.00    -0.343 N 
ATOM     16  C5  non d ame     -34.908   5.542  30.143  0.00  0.00     0.273 C 
ATOM     17  O2  non d ame     -34.234   4.940  30.905  0.00  0.00    -0.266 OA
ATOM     18  H5  non d ame     -35.090   6.146  28.075  0.00  0.00     0.163 HD
BRANCH  16  19
ATOM     19  C4  non d ame     -36.195   6.224  30.633  0.00  0.00     0.154 A 
ATOM     20  C1  non d ame     -36.458   7.629  30.697  0.00  0.00    -0.017 A 
ATOM     21  C2  non d ame     -37.770   7.730  31.213  0.00  0.00     0.077 A 
ATOM     22  H1  non d ame     -35.799   8.450  30.413  0.00  0.00     0.091 H 
ATOM     23  O1  non d ame     -38.200   6.519  31.417  0.00  0.00    -0.218 OA
ATOM     24  N1  non d ame     -37.299   5.623  31.086  0.00  0.00    -0.123 NA
BRANCH  21  25
ATOM     25  C3  non d ame     -38.537   9.018  31.480  0.00  0.00    -0.029 C 
ATOM     26  H2  non d ame     -38.619   9.176  32.555  0.00  0.00     0.036 H 
ATOM     27  H3  non d ame     -38.007   9.856  31.029  0.00  0.00     0.036 H 
ATOM     28  H4  non d ame     -39.534   8.943  31.047  0.00  0.00     0.036 H 
ENDBRANCH  21  25
ENDBRANCH  16  19
ENDBRANCH  13  15
BRANCH  13  29
ATOM     29  C8  non d ame     -33.612   3.617  27.741  0.00  0.00    -0.049 C 
ATOM     30  H7  non d ame     -34.287   3.101  28.423  0.00  0.00     0.030 H 
ATOM     31  H8  non d ame     -34.086   3.713  26.764  0.00  0.00     0.030 H 
ATOM     32  H9  non d ame     -32.689   3.045  27.642  0.00  0.00     0.030 H 
ENDBRANCH  13  29
ENDBRANCH  10  13
ENDBRANCH   7   9
BRANCH   7  33
ATOM     33  C11 non d ame     -32.780   5.899  23.369  0.00  0.00    -0.033 C 
ATOM     34  H12 non d ame     -33.631   6.409  22.918  0.00  0.00     0.042 H 
BRANCH  33  35
ATOM     35  C12 non d ame     -31.563   6.077  22.408  0.00  0.00    -0.071 C 
ATOM     36  H13 non d ame     -31.808   5.661  21.430  0.00  0.00     0.028 H 
ATOM     37  H14 non d ame     -31.335   7.137  22.304  0.00  0.00     0.028 H 
ATOM     38  H15 non d ame     -30.697   5.556  22.817  0.00  0.00     0.028 H 
ENDBRANCH  33  35
BRANCH  33  39
ATOM     39  C13 non d ame     -33.153   4.391  23.536  0.00  0.00    -0.071 C 
ATOM     40  H16 non d ame     -33.892   4.114  22.785  0.00  0.00     0.028 H 
ATOM     41  H17 non d ame     -32.259   3.779  23.410  0.00  0.00     0.028 H 
ATOM     42  H18 non d ame     -33.567   4.227  24.531  0.00  0.00     0.028 H 
ENDBRANCH  33  39
ENDBRANCH   7  33
ENDBRANCH   4   7
ENDBRANCH   1   3
BRANCH   1  43
ATOM     43  C15 non d ame     -31.809  11.425  25.424  0.00  0.00     0.240 C 
ATOM     44  O5  non d ame     -30.730  11.140  25.832  0.00  0.00    -0.271 OA
ATOM     45  N6  non d ame     -32.039  12.762  24.807  0.00  0.00    -0.355 N 
ATOM     46  H46 non d ame     -32.950  13.014  24.452  0.00  0.00     0.162 HD
BRANCH  45  47
ATOM     47  C20 non d ame     -30.923  13.728  24.714  0.00  0.00     0.013 C 
ATOM     48  H30 non d ame     -30.127  13.385  25.374  0.00  0.00     0.072 H 
BRANCH  47  49
ATOM     49  C21 non d ame     -31.406  15.092  25.152  0.00  0.00    -0.038 C 
ATOM     50  H31 non d ame     -30.957  15.264  26.131  0.00  0.00     0.036 H 
ATOM     51  H32 non d ame     -31.180  15.764  24.324  0.00  0.00     0.036 H 
BRANCH  49  52
ATOM     52  C22 non d ame     -32.935  15.150  25.358  0.00  0.00     0.018 C 
ATOM     53  H33 non d ame     -33.333  15.646  24.473  0.00  0.00     0.048 H 
ATOM     54  H34 non d ame     -33.240  14.130  25.595  0.00  0.00     0.048 H 
BRANCH  52  55
ATOM     55  C23 non d ame     -33.372  16.020  26.569  0.00  0.00     0.259 C 
ATOM     56  O7  non d ame     -33.799  17.116  26.402  0.00  0.00    -0.265 OA
BRANCH  55  57
ATOM     57  O8  non d ame     -33.244  15.496  27.885  0.00  0.00    -0.317 OA
BRANCH  57  58
ATOM     58  C29 non d ame     -33.647  14.129  28.009  0.00  0.00     0.052 C 
ATOM     59  H47 non d ame     -34.596  14.148  28.545  0.00  0.00     0.082 H 
ATOM     60  H48 non d ame     -33.598  13.714  27.003  0.00  0.00     0.082 H 
BRANCH  58  61
ATOM     61  C35 non d ame     -32.600  13.399  28.892  0.00  0.00    -0.034 A 
ATOM     62  C30 non d ame     -31.258  13.396  28.523  0.00  0.00    -0.075 A 
ATOM     63  C31 non d ame     -30.317  12.741  29.316  0.00  0.00    -0.082 A 
ATOM     64  H49 non d ame     -30.944  13.907  27.613  0.00  0.00     0.084 H 
ATOM     65  C32 non d ame     -30.723  12.084  30.481  0.00  0.00    -0.083 A 
ATOM     66  H50 non d ame     -29.267  12.741  29.025  0.00  0.00     0.083 H 
ATOM     67  C33 non d ame     -32.063  12.087  30.844  0.00  0.00    -0.082 A 
ATOM     68  H51 non d ame     -29.994  11.570  31.107  0.00  0.00     0.083 H 
ATOM     69  C34 non d ame     -33.006  12.743  30.056  0.00  0.00    -0.075 A 
ATOM     70  H52 non d ame     -32.376  11.572  31.752  0.00  0.00     0.083 H 
ATOM     71  H53 non d ame     -34.057  12.741  30.348  0.00  0.00     0.084 H 
ENDBRANCH  58  61
ENDBRANCH  57  58
ENDBRANCH  55  57
ENDBRANCH  52  55
ENDBRANCH  49  52
ENDBRANCH  47  49
BRANCH  47  72
ATOM     72  C24 non d ame     -30.423  13.803  23.273  0.00  0.00    -0.039 C 
ATOM     73  H35 non d ame     -29.449  13.312  23.278  0.00  0.00     0.036 H 
ATOM     74  H36 non d ame     -31.232  13.401  22.664  0.00  0.00     0.036 H 
BRANCH  72  75
ATOM     75  C25 non d ame     -30.186  15.317  22.806  0.00  0.00    -0.001 C 
ATOM     76  C26 non d ame     -31.281  15.723  21.647  0.00  0.00    -0.035 C 
ATOM     77  C27 non d ame     -30.620  16.247  20.587  0.00  0.00     0.085 C 
ATOM     78  H38 non d ame     -31.744  14.824  21.240  0.00  0.00     0.036 H 
ATOM     79  H39 non d ame     -31.903  16.548  21.993  0.00  0.00     0.036 H 
ATOM     80  N5  non d ame     -29.156  15.935  20.782  0.00  0.00    -0.049 N 
ATOM     81  H40 non d ame     -30.987  15.702  19.717  0.00  0.00     0.075 H 
ATOM     82  H41 non d ame     -30.766  17.324  20.657  0.00  0.00     0.075 H 
ATOM     83  C28 non d ame     -29.000  15.477  22.322  0.00  0.00     0.193 C 
ATOM     84  H42 non d ame     -28.950  15.144  20.188  0.00  0.00     0.280 HD
ATOM     85  H43 non d ame     -28.659  16.805  20.653  0.00  0.00     0.280 HD
ATOM     86  H44 non d ame     -28.574  16.155  23.061  0.00  0.00     0.129 H 
ATOM     87  H37 non d ame     -30.082  15.998  23.650  0.00  0.00     0.046 H 
BRANCH  83  88
ATOM     88  O6  non d ame     -28.219  14.283  22.404  0.00  0.00    -0.369 OA
ATOM     89  H45 non d ame     -28.778  13.553  22.679  0.00  0.00     0.212 HD
ENDBRANCH  83  88
ENDBRANCH  72  75
ENDBRANCH  47  72
ENDBRANCH  45  47
ENDBRANCH   1  43
BRANCH   1  90
ATOM     90  C16 non d ame     -33.718  10.599  26.836  0.00  0.00    -0.035 C 
ATOM     91  H21 non d ame     -33.022  11.127  27.487  0.00  0.00     0.037 H 
ATOM     92  H22 non d ame     -34.665  11.064  26.560  0.00  0.00     0.037 H 
BRANCH  90  93
ATOM     93  C17 non d ame     -34.078   9.265  27.565  0.00  0.00    -0.059 C 
ATOM     94  H23 non d ame     -33.560   8.457  27.050  0.00  0.00     0.038 H 
BRANCH  93  95
ATOM     95  C18 non d ame     -33.604   9.262  29.054  0.00  0.00    -0.073 C 
ATOM     96  H24 non d ame     -34.390   9.674  29.687  0.00  0.00     0.028 H 
ATOM     97  H25 non d ame     -33.388   8.240  29.365  0.00  0.00     0.028 H 
ATOM     98  H26 non d ame     -32.704   9.869  29.151  0.00  0.00     0.028 H 
ENDBRANCH  93  95
BRANCH  93  99
ATOM     99  C19 non d ame     -35.578   8.977  27.470  0.00  0.00    -0.073 C 
ATOM    100  H27 non d ame     -35.937   8.596  28.427  0.00  0.00     0.028 H 
ATOM    101  H28 non d ame     -36.110   9.896  27.223  0.00  0.00     0.028 H 
ATOM    102  H29 non d ame     -35.757   8.235  26.693  0.00  0.00     0.028 H 
ENDBRANCH  93  99
ENDBRANCH  90  93
ENDBRANCH   1  90
TORSDOF 26
ENDMDL
MODEL 4
REMARK VINA RESULT:      -6.8      3.379      7.380
REMARK  26 active torsions:
REMARK  status: ('A' for Active; 'I' for Inactive)
REMARK    1  A    between atoms: C2_2  and  C3_3 
REMARK    2  A    between atoms: C4_6  and  C5_7 
REMARK       I    between atoms: C5_7  and  N2_9 
REMARK    3  A    between atoms: N2_9  and  C6_10 
REMARK    4  A    between atoms: C6_10  and  C7_11 
REMARK    5  A    between atoms: C6_10  and  C8_13 
REMARK       I    between atoms: C7_11  and  N3_14 
REMARK    6  A    between atoms: N3_14  and  C9_15 
REMARK    7  A    between atoms: C9_15  and  C10_16 
REMARK    8  A    between atoms: C9_15  and  C11_18 
REMARK       I    between atoms: C10_16  and  N4_21 
REMARK    9  A    between atoms: C11_18  and  C12_19 
REMARK   10  A    between atoms: C11_18  and  C13_20 
REMARK   11  A    between atoms: N4_21  and  C14_22 
REMARK   12  A    between atoms: C14_22  and  C15_23 
REMARK   13  A    between atoms: C14_22  and  C16_25 
REMARK       I    between atoms: C15_23  and  N6_40 
REMARK   14  A    between atoms: C16_25  and  C17_26 
REMARK   15  A    between atoms: C17_26  and  C18_27 
REMARK   16  A    between atoms: C17_26  and  C19_28 
REMARK   17  A    between atoms: C20_29  and  C21_30 
REMARK   18  A    between atoms: C20_29  and  C24_33 
REMARK   19  A    between atoms: C20_29  and  N6_40 
REMARK   20  A    between atoms: C21_30  and  C22_31 
REMARK   21  A    between atoms: C22_31  and  C23_32 
REMARK   22  A    between atoms: C23_32  and  O8_43 
REMARK   23  A    between atoms: C24_33  and  C25_34 
REMARK   24  A    between atoms: C28_38  and  O6_39 
REMARK   25  A    between atoms: C29_42  and  O8_43 
REMARK   26  A    between atoms: C29_42  and  C35_49 
ROOT
ATOM      1  C14 non d ame     -32.958  10.250  25.444  0.00  0.00     0.089 C 
ATOM      2  H20 non d ame     -33.635  10.326  24.592  0.00  0.00     0.087 H 
ENDROOT
BRANCH   1   3
ATOM      3  N4  non d ame     -32.394   8.908  25.437  0.00  0.00    -0.346 N 
ATOM      4  C10 non d ame     -33.145   7.769  24.795  0.00  0.00     0.241 C 
ATOM      5  O4  non d ame     -34.204   7.957  24.292  0.00  0.00    -0.271 OA
ATOM      6  H19 non d ame     -31.493   8.769  25.872  0.00  0.00     0.163 HD
BRANCH   4   7
ATOM      7  C9  non d ame     -32.544   6.388  24.792  0.00  0.00     0.092 C 
ATOM      8  H11 non d ame     -31.477   6.462  25.003  0.00  0.00     0.088 H 
BRANCH   7   9
ATOM      9  N3  non d ame     -33.145   5.591  25.866  0.00  0.00    -0.346 N 
ATOM     10  C7  non d ame     -32.689   5.753  27.225  0.00  0.00     0.240 C 
ATOM     11  O3  non d ame     -31.839   6.519  27.471  0.00  0.00    -0.271 OA
ATOM     12  H10 non d ame     -33.878   4.926  25.668  0.00  0.00     0.163 HD
BRANCH  10  13
ATOM     13  C6  non d ame     -33.330   4.900  28.363  0.00  0.00     0.086 C 
ATOM     14  H6  non d ame     -32.692   4.825  29.244  0.00  0.00     0.086 H 
BRANCH  13  15
ATOM     15  N2  non d ame     -34.562   5.539  28.795  0.00  0.00    -0.343 N 
ATOM     16  C5  non d ame     -34.922   5.526  30.214  0.00  0.00     0.273 C 
ATOM     17  O2  non d ame     -34.216   4.996  31.000  0.00  0.00    -0.266 OA
ATOM     18  H5  non d ame     -35.161   5.988  28.116  0.00  0.00     0.163 HD
BRANCH  16  19
ATOM     19  C4  non d ame     -36.221   6.199  30.685  0.00  0.00     0.154 A 
ATOM     20  C1  non d ame     -36.508   7.601  30.710  0.00  0.00    -0.017 A 
ATOM     21  C2  non d ame     -37.822   7.693  31.222  0.00  0.00     0.077 A 
ATOM     22  H1  non d ame     -35.863   8.424  30.404  0.00  0.00     0.091 H 
ATOM     23  O1  non d ame     -38.232   6.482  31.459  0.00  0.00    -0.218 OA
ATOM     24  N1  non d ame     -37.315   5.592  31.153  0.00  0.00    -0.123 NA
BRANCH  21  25
ATOM     25  C3  non d ame     -38.611   8.975  31.454  0.00  0.00    -0.029 C 
ATOM     26  H2  non d ame     -38.918   9.030  32.498  0.00  0.00     0.036 H 
ATOM     27  H3  non d ame     -37.985   9.835  31.214  0.00  0.00     0.036 H 
ATOM     28  H4  non d ame     -39.494   8.979  30.815  0.00  0.00     0.036 H 
ENDBRANCH  21  25
ENDBRANCH  16  19
ENDBRANCH  13  15
BRANCH  13  29
ATOM     29  C8  non d ame     -33.620   3.512  27.851  0.00  0.00    -0.049 C 
ATOM     30  H7  non d ame     -34.033   3.575  26.844  0.00  0.00     0.030 H 
ATOM     31  H8  non d ame     -32.697   2.933  27.830  0.00  0.00     0.030 H 
ATOM     32  H9  non d ame     -34.340   3.025  28.509  0.00  0.00     0.030 H 
ENDBRANCH  13  29
ENDBRANCH  10  13
ENDBRANCH   7   9
BRANCH   7  33
ATOM     33  C11 non d ame     -32.825   5.704  23.422  0.00  0.00    -0.033 C 
ATOM     34  H12 non d ame     -33.705   6.180  22.991  0.00  0.00     0.042 H 
BRANCH  33  35
ATOM     35  C12 non d ame     -31.641   5.915  22.428  0.00  0.00    -0.071 C 
ATOM     36  H13 non d ame     -31.609   5.088  21.719  0.00  0.00     0.028 H 
ATOM     37  H14 non d ame     -31.783   6.851  21.888  0.00  0.00     0.028 H 
ATOM     38  H15 non d ame     -30.703   5.954  22.982  0.00  0.00     0.028 H 
ENDBRANCH  33  35
BRANCH  33  39
ATOM     39  C13 non d ame     -33.141   4.185  23.611  0.00  0.00    -0.071 C 
ATOM     40  H16 non d ame     -34.202   4.060  23.829  0.00  0.00     0.028 H 
ATOM     41  H17 non d ame     -32.892   3.646  22.697  0.00  0.00     0.028 H 
ATOM     42  H18 non d ame     -32.551   3.791  24.437  0.00  0.00     0.028 H 
ENDBRANCH  33  39
ENDBRANCH   7  33
ENDBRANCH   4   7
ENDBRANCH   1   3
BRANCH   1  43
ATOM     43  C15 non d ame     -31.793  11.277  25.361  0.00  0.00     0.240 C 
ATOM     44  O5  non d ame     -30.718  10.987  25.778  0.00  0.00    -0.271 OA
ATOM     45  N6  non d ame     -32.015  12.620  24.753  0.00  0.00    -0.355 N 
ATOM     46  H46 non d ame     -32.922  12.876  24.391  0.00  0.00     0.162 HD
BRANCH  45  47
ATOM     47  C20 non d ame     -30.896  13.586  24.680  0.00  0.00     0.013 C 
ATOM     48  H30 non d ame     -30.082  13.202  25.294  0.00  0.00     0.072 H 
BRANCH  47  49
ATOM     49  C21 non d ame     -31.357  14.924  25.211  0.00  0.00    -0.038 C 
ATOM     50  H31 non d ame     -30.556  15.626  24.976  0.00  0.00     0.036 H 
ATOM     51  H32 non d ame     -32.354  15.077  24.799  0.00  0.00     0.036 H 
BRANCH  49  52
ATOM     52  C22 non d ame     -31.512  14.939  26.747  0.00  0.00     0.018 C 
ATOM     53  H33 non d ame     -30.983  14.057  27.106  0.00  0.00     0.048 H 
ATOM     54  H34 non d ame     -31.196  15.932  27.067  0.00  0.00     0.048 H 
BRANCH  52  55
ATOM     55  C23 non d ame     -32.981  14.782  27.229  0.00  0.00     0.259 C 
ATOM     56  O7  non d ame     -33.734  14.070  26.648  0.00  0.00    -0.265 OA
BRANCH  55  57
ATOM     57  O8  non d ame     -33.422  15.511  28.369  0.00  0.00    -0.317 OA
BRANCH  57  58
ATOM     58  C29 non d ame     -34.507  16.404  28.104  0.00  0.00     0.052 C 
ATOM     59  H47 non d ame     -35.146  15.888  27.387  0.00  0.00     0.082 H 
ATOM     60  H48 non d ame     -34.902  16.686  29.080  0.00  0.00     0.082 H 
BRANCH  58  61
ATOM     61  C35 non d ame     -33.929  17.673  27.424  0.00  0.00    -0.034 A 
ATOM     62  C30 non d ame     -34.386  18.061  26.169  0.00  0.00    -0.075 A 
ATOM     63  C31 non d ame     -33.866  19.201  25.558  0.00  0.00    -0.082 A 
ATOM     64  H49 non d ame     -35.151  17.471  25.664  0.00  0.00     0.084 H 
ATOM     65  C32 non d ame     -32.882  19.953  26.206  0.00  0.00    -0.083 A 
ATOM     66  H50 non d ame     -34.227  19.503  24.574  0.00  0.00     0.083 H 
ATOM     67  C33 non d ame     -32.427  19.560  27.457  0.00  0.00    -0.082 A 
ATOM     68  H51 non d ame     -32.471  20.846  25.735  0.00  0.00     0.083 H 
ATOM     69  C34 non d ame     -32.945  18.423  28.073  0.00  0.00    -0.075 A 
ATOM     70  H52 non d ame     -31.658  20.148  27.959  0.00  0.00     0.083 H 
ATOM     71  H53 non d ame     -32.583  18.122  29.056  0.00  0.00     0.084 H 
ENDBRANCH  58  61
ENDBRANCH  57  58
ENDBRANCH  55  57
ENDBRANCH  52  55
ENDBRANCH  49  52
ENDBRANCH  47  49
BRANCH  47  72
ATOM     72  C24 non d ame     -30.441  13.741  23.231  0.00  0.00    -0.039 C 
ATOM     73  H35 non d ame     -29.470  13.248  23.177  0.00  0.00     0.036 H 
ATOM     74  H36 non d ame     -31.271  13.376  22.625  0.00  0.00     0.036 H 
BRANCH  72  75
ATOM     75  C25 non d ame     -30.213  15.278  22.842  0.00  0.00    -0.001 C 
ATOM     76  C26 non d ame     -31.300  15.733  21.696  0.00  0.00    -0.035 C 
ATOM     77  C27 non d ame     -30.634  16.315  20.670  0.00  0.00     0.085 C 
ATOM     78  H38 non d ame     -31.753  14.853  21.239  0.00  0.00     0.036 H 
ATOM     79  H39 non d ame     -31.932  16.535  22.077  0.00  0.00     0.036 H 
ATOM     80  N5  non d ame     -29.170  16.006  20.862  0.00  0.00    -0.049 N 
ATOM     81  H40 non d ame     -30.989  15.813  19.770  0.00  0.00     0.075 H 
ATOM     82  H41 non d ame     -30.790  17.387  20.792  0.00  0.00     0.075 H 
ATOM     83  C28 non d ame     -29.024  15.471  22.378  0.00  0.00     0.193 C 
ATOM     84  H42 non d ame     -28.952  15.247  20.231  0.00  0.00     0.280 HD
ATOM     85  H43 non d ame     -28.679  16.885  20.782  0.00  0.00     0.280 HD
ATOM     86  H44 non d ame     -28.610  16.115  23.155  0.00  0.00     0.129 H 
ATOM     87  H37 non d ame     -30.123  15.917  23.721  0.00  0.00     0.046 H 
BRANCH  83  88
ATOM     88  O6  non d ame     -28.234  14.281  22.408  0.00  0.00    -0.369 OA
ATOM     89  H45 non d ame     -28.347  13.843  23.254  0.00  0.00     0.212 HD
ENDBRANCH  83  88
ENDBRANCH  72  75
ENDBRANCH  47  72
ENDBRANCH  45  47
ENDBRANCH   1  43
BRANCH   1  90
ATOM     90  C16 non d ame     -33.731  10.457  26.736  0.00  0.00    -0.035 C 
ATOM     91  H21 non d ame     -33.920  11.528  26.791  0.00  0.00     0.037 H 
ATOM     92  H22 non d ame     -34.566   9.758  26.688  0.00  0.00     0.037 H 
BRANCH  90  93
ATOM     93  C17 non d ame     -32.919  10.086  28.018  0.00  0.00    -0.059 C 
ATOM     94  H23 non d ame     -31.992   9.611  27.697  0.00  0.00     0.038 H 
BRANCH  93  95
ATOM     95  C18 non d ame     -32.541  11.346  28.861  0.00  0.00    -0.073 C 
ATOM     96  H24 non d ame     -33.384  12.036  28.881  0.00  0.00     0.028 H 
ATOM     97  H25 non d ame     -32.297  11.043  29.879  0.00  0.00     0.028 H 
ATOM     98  H26 non d ame     -31.679  11.839  28.412  0.00  0.00     0.028 H 
ENDBRANCH  93  95
BRANCH  93  99
ATOM     99  C19 non d ame     -33.679   9.068  28.872  0.00  0.00    -0.073 C 
ATOM    100  H27 non d ame     -34.209   9.587  29.671  0.00  0.00     0.028 H 
ATOM    101  H28 non d ame     -34.397   8.534  28.248  0.00  0.00     0.028 H 
ATOM    102  H29 non d ame     -32.975   8.357  29.303  0.00  0.00     0.028 H 
ENDBRANCH  93  99
ENDBRANCH  90  93
ENDBRANCH   1  90
TORSDOF 26
ENDMDL
MODEL 5
REMARK VINA RESULT:      -6.8      2.927      6.917
REMARK  26 active torsions:
REMARK  status: ('A' for Active; 'I' for Inactive)
REMARK    1  A    between atoms: C2_2  and  C3_3 
REMARK    2  A    between atoms: C4_6  and  C5_7 
REMARK       I    between atoms: C5_7  and  N2_9 
REMARK    3  A    between atoms: N2_9  and  C6_10 
REMARK    4  A    between atoms: C6_10  and  C7_11 
REMARK    5  A    between atoms: C6_10  and  C8_13 
REMARK       I    between atoms: C7_11  and  N3_14 
REMARK    6  A    between atoms: N3_14  and  C9_15 
REMARK    7  A    between atoms: C9_15  and  C10_16 
REMARK    8  A    between atoms: C9_15  and  C11_18 
REMARK       I    between atoms: C10_16  and  N4_21 
REMARK    9  A    between atoms: C11_18  and  C12_19 
REMARK   10  A    between atoms: C11_18  and  C13_20 
REMARK   11  A    between atoms: N4_21  and  C14_22 
REMARK   12  A    between atoms: C14_22  and  C15_23 
REMARK   13  A    between atoms: C14_22  and  C16_25 
REMARK       I    between atoms: C15_23  and  N6_40 
REMARK   14  A    between atoms: C16_25  and  C17_26 
REMARK   15  A    between atoms: C17_26  and  C18_27 
REMARK   16  A    between atoms: C17_26  and  C19_28 
REMARK   17  A    between atoms: C20_29  and  C21_30 
REMARK   18  A    between atoms: C20_29  and  C24_33 
REMARK   19  A    between atoms: C20_29  and  N6_40 
REMARK   20  A    between atoms: C21_30  and  C22_31 
REMARK   21  A    between atoms: C22_31  and  C23_32 
REMARK   22  A    between atoms: C23_32  and  O8_43 
REMARK   23  A    between atoms: C24_33  and  C25_34 
REMARK   24  A    between atoms: C28_38  and  O6_39 
REMARK   25  A    between atoms: C29_42  and  O8_43 
REMARK   26  A    between atoms: C29_42  and  C35_49 
ROOT
ATOM      1  C14 non d ame     -31.334  14.607  24.225  0.00  0.00     0.089 C 
ATOM      2  H20 non d ame     -30.311  14.555  24.599  0.00  0.00     0.087 H 
ENDROOT
BRANCH   1   3
ATOM      3  N4  non d ame     -31.838  13.245  24.135  0.00  0.00    -0.346 N 
ATOM      4  C10 non d ame     -31.621  12.277  25.270  0.00  0.00     0.241 C 
ATOM      5  O4  non d ame     -31.035  12.616  26.245  0.00  0.00    -0.271 OA
ATOM      6  H19 non d ame     -32.331  12.975  23.296  0.00  0.00     0.163 HD
BRANCH   4   7
ATOM      7  C9  non d ame     -32.154  10.872  25.163  0.00  0.00     0.092 C 
ATOM      8  H11 non d ame     -33.014  10.865  24.493  0.00  0.00     0.088 H 
BRANCH   7   9
ATOM      9  N3  non d ame     -31.133  10.005  24.567  0.00  0.00    -0.346 N 
ATOM     10  C7  non d ame     -31.392   9.345  23.311  0.00  0.00     0.240 C 
ATOM     11  O3  non d ame     -32.418   9.498  22.768  0.00  0.00    -0.271 OA
ATOM     12  H10 non d ame     -30.244   9.862  25.025  0.00  0.00     0.163 HD
BRANCH  10  13
ATOM     13  C6  non d ame     -30.303   8.421  22.683  0.00  0.00     0.086 C 
ATOM     14  H6  non d ame     -29.895   7.705  23.396  0.00  0.00     0.086 H 
BRANCH  13  15
ATOM     15  N2  non d ame     -30.904   7.645  21.611  0.00  0.00    -0.343 N 
ATOM     16  C5  non d ame     -31.515   6.349  21.914  0.00  0.00     0.273 C 
ATOM     17  O2  non d ame     -31.515   5.939  23.023  0.00  0.00    -0.266 OA
ATOM     18  H5  non d ame     -30.896   8.002  20.666  0.00  0.00     0.163 HD
BRANCH  16  19
ATOM     19  C4  non d ame     -32.155   5.518  20.791  0.00  0.00     0.154 A 
ATOM     20  C1  non d ame     -32.125   4.095  20.644  0.00  0.00    -0.017 A 
ATOM     21  C2  non d ame     -32.853   3.837  19.461  0.00  0.00     0.077 A 
ATOM     22  H1  non d ame     -31.649   3.362  21.295  0.00  0.00     0.091 H 
ATOM     23  O1  non d ame     -33.251   4.984  18.993  0.00  0.00    -0.218 OA
ATOM     24  N1  non d ame     -32.855   5.980  19.751  0.00  0.00    -0.123 NA
BRANCH  21  25
ATOM     25  C3  non d ame     -33.123   2.469  18.849  0.00  0.00    -0.029 C 
ATOM     26  H2  non d ame     -32.301   1.795  19.088  0.00  0.00     0.036 H 
ATOM     27  H3  non d ame     -34.052   2.067  19.254  0.00  0.00     0.036 H 
ATOM     28  H4  non d ame     -33.211   2.566  17.767  0.00  0.00     0.036 H 
ENDBRANCH  21  25
ENDBRANCH  16  19
ENDBRANCH  13  15
BRANCH  13  29
ATOM     29  C8  non d ame     -29.177   9.265  22.142  0.00  0.00    -0.049 C 
ATOM     30  H7  non d ame     -29.575   9.991  21.433  0.00  0.00     0.030 H 
ATOM     31  H8  non d ame     -28.688   9.788  22.963  0.00  0.00     0.030 H 
ATOM     32  H9  non d ame     -28.453   8.624  21.637  0.00  0.00     0.030 H 
ENDBRANCH  13  29
ENDBRANCH  10  13
ENDBRANCH   7   9
BRANCH   7  33
ATOM     33  C11 non d ame     -32.514  10.344  26.583  0.00  0.00    -0.033 C 
ATOM     34  H12 non d ame     -31.794  10.767  27.283  0.00  0.00     0.042 H 
BRANCH  33  35
ATOM     35  C12 non d ame     -33.933  10.822  27.024  0.00  0.00    -0.071 C 
ATOM     36  H13 non d ame     -34.339  11.497  26.271  0.00  0.00     0.028 H 
ATOM     37  H14 non d ame     -34.590   9.959  27.131  0.00  0.00     0.028 H 
ATOM     38  H15 non d ame     -33.860  11.344  27.978  0.00  0.00     0.028 H 
ENDBRANCH  33  35
BRANCH  33  39
ATOM     39  C13 non d ame     -32.395   8.787  26.647  0.00  0.00    -0.071 C 
ATOM     40  H16 non d ame     -33.371   8.357  26.873  0.00  0.00     0.028 H 
ATOM     41  H17 non d ame     -32.045   8.410  25.686  0.00  0.00     0.028 H 
ATOM     42  H18 non d ame     -31.685   8.509  27.426  0.00  0.00     0.028 H 
ENDBRANCH  33  39
ENDBRANCH   7  33
ENDBRANCH   4   7
ENDBRANCH   1   3
BRANCH   1  43
ATOM     43  C15 non d ame     -32.264  15.418  25.171  0.00  0.00     0.240 C 
ATOM     44  O5  non d ame     -33.276  15.881  24.752  0.00  0.00    -0.271 OA
ATOM     45  N6  non d ame     -31.899  15.611  26.604  0.00  0.00    -0.355 N 
ATOM     46  H46 non d ame     -31.045  15.219  26.973  0.00  0.00     0.162 HD
BRANCH  45  47
ATOM     47  C20 non d ame     -32.795  16.383  27.491  0.00  0.00     0.013 C 
ATOM     48  H30 non d ame     -33.813  16.273  27.119  0.00  0.00     0.072 H 
BRANCH  47  49
ATOM     49  C21 non d ame     -32.390  17.840  27.465  0.00  0.00    -0.038 C 
ATOM     50  H31 non d ame     -31.889  18.024  28.415  0.00  0.00     0.036 H 
ATOM     51  H32 non d ame     -31.851  17.978  26.527  0.00  0.00     0.036 H 
BRANCH  49  52
ATOM     52  C22 non d ame     -33.601  18.797  27.418  0.00  0.00     0.018 C 
ATOM     53  H33 non d ame     -34.414  18.270  27.914  0.00  0.00     0.048 H 
ATOM     54  H34 non d ame     -33.243  19.747  27.817  0.00  0.00     0.048 H 
BRANCH  52  55
ATOM     55  C23 non d ame     -34.104  19.101  25.979  0.00  0.00     0.259 C 
ATOM     56  O7  non d ame     -33.349  19.483  25.144  0.00  0.00    -0.265 OA
BRANCH  55  57
ATOM     57  O8  non d ame     -35.482  18.930  25.672  0.00  0.00    -0.317 OA
BRANCH  57  58
ATOM     58  C29 non d ame     -36.208  18.181  26.651  0.00  0.00     0.052 C 
ATOM     59  H47 non d ame     -35.591  18.193  27.549  0.00  0.00     0.082 H 
ATOM     60  H48 non d ame     -37.208  18.613  26.672  0.00  0.00     0.082 H 
BRANCH  58  61
ATOM     61  C35 non d ame     -36.317  16.716  26.150  0.00  0.00    -0.034 A 
ATOM     62  C30 non d ame     -36.048  15.661  27.016  0.00  0.00    -0.075 A 
ATOM     63  C31 non d ame     -36.145  14.346  26.566  0.00  0.00    -0.082 A 
ATOM     64  H49 non d ame     -35.760  15.866  28.048  0.00  0.00     0.084 H 
ATOM     65  C32 non d ame     -36.511  14.086  25.242  0.00  0.00    -0.083 A 
ATOM     66  H50 non d ame     -35.935  13.521  27.248  0.00  0.00     0.083 H 
ATOM     67  C33 non d ame     -36.776  15.142  24.381  0.00  0.00    -0.082 A 
ATOM     68  H51 non d ame     -36.591  13.060  24.882  0.00  0.00     0.083 H 
ATOM     69  C34 non d ame     -36.682  16.458  24.827  0.00  0.00    -0.075 A 
ATOM     70  H52 non d ame     -37.059  14.936  23.348  0.00  0.00     0.083 H 
ATOM     71  H53 non d ame     -36.892  17.282  24.144  0.00  0.00     0.084 H 
ENDBRANCH  58  61
ENDBRANCH  57  58
ENDBRANCH  55  57
ENDBRANCH  52  55
ENDBRANCH  49  52
ENDBRANCH  47  49
BRANCH  47  72
ATOM     72  C24 non d ame     -32.692  15.851  28.919  0.00  0.00    -0.039 C 
ATOM     73  H35 non d ame     -32.237  16.657  29.497  0.00  0.00     0.036 H 
ATOM     74  H36 non d ame     -33.692  15.498  29.170  0.00  0.00     0.036 H 
BRANCH  72  75
ATOM     75  C25 non d ame     -31.708  14.590  29.012  0.00  0.00    -0.001 C 
ATOM     76  C26 non d ame     -32.565  13.238  29.388  0.00  0.00    -0.035 C 
ATOM     77  C27 non d ame     -31.977  12.629  30.445  0.00  0.00     0.085 C 
ATOM     78  H38 non d ame     -33.549  13.513  29.767  0.00  0.00     0.036 H 
ATOM     79  H39 non d ame     -32.475  12.504  28.587  0.00  0.00     0.036 H 
ATOM     80  N5  non d ame     -30.992  13.612  31.030  0.00  0.00    -0.049 N 
ATOM     81  H40 non d ame     -32.778  12.457  31.164  0.00  0.00     0.075 H 
ATOM     82  H41 non d ame     -31.430  11.784  30.027  0.00  0.00     0.075 H 
ATOM     83  C28 non d ame     -30.805  14.767  29.918  0.00  0.00     0.193 C 
ATOM     84  H42 non d ame     -31.438  14.015  31.841  0.00  0.00     0.280 HD
ATOM     85  H43 non d ame     -30.118  13.115  31.128  0.00  0.00     0.280 HD
ATOM     86  H44 non d ame     -29.908  14.801  29.300  0.00  0.00     0.129 H 
ATOM     87  H37 non d ame     -31.034  14.529  28.158  0.00  0.00     0.046 H 
BRANCH  83  88
ATOM     88  O6  non d ame     -30.898  16.057  30.527  0.00  0.00    -0.369 OA
ATOM     89  H45 non d ame     -31.771  16.167  30.912  0.00  0.00     0.212 HD
ENDBRANCH  83  88
ENDBRANCH  72  75
ENDBRANCH  47  72
ENDBRANCH  45  47
ENDBRANCH   1  43
BRANCH   1  90
ATOM     90  C16 non d ame     -31.344  15.233  22.839  0.00  0.00    -0.035 C 
ATOM     91  H21 non d ame     -32.287  14.923  22.390  0.00  0.00     0.037 H 
ATOM     92  H22 non d ame     -31.138  16.291  22.998  0.00  0.00     0.037 H 
BRANCH  90  93
ATOM     93  C17 non d ame     -30.214  14.699  21.902  0.00  0.00    -0.059 C 
ATOM     94  H23 non d ame     -30.259  13.610  21.917  0.00  0.00     0.038 H 
BRANCH  93  95
ATOM     95  C18 non d ame     -30.406  15.164  20.423  0.00  0.00    -0.073 C 
ATOM     96  H24 non d ame     -29.611  15.859  20.154  0.00  0.00     0.028 H 
ATOM     97  H25 non d ame     -30.370  14.298  19.762  0.00  0.00     0.028 H 
ATOM     98  H26 non d ame     -31.371  15.659  20.321  0.00  0.00     0.028 H 
ENDBRANCH  93  95
BRANCH  93  99
ATOM     99  C19 non d ame     -28.834  15.104  22.426  0.00  0.00    -0.073 C 
ATOM    100  H27 non d ame     -28.627  16.137  22.145  0.00  0.00     0.028 H 
ATOM    101  H28 non d ame     -28.815  15.013  23.512  0.00  0.00     0.028 H 
ATOM    102  H29 non d ame     -28.075  14.451  21.994  0.00  0.00     0.028 H 
ENDBRANCH  93  99
ENDBRANCH  90  93
ENDBRANCH   1  90
TORSDOF 26
ENDMDL
MODEL 6
REMARK VINA RESULT:      -6.7      2.445      7.986
REMARK  26 active torsions:
REMARK  status: ('A' for Active; 'I' for Inactive)
REMARK    1  A    between atoms: C2_2  and  C3_3 
REMARK    2  A    between atoms: C4_6  and  C5_7 
REMARK       I    between atoms: C5_7  and  N2_9 
REMARK    3  A    between atoms: N2_9  and  C6_10 
REMARK    4  A    between atoms: C6_10  and  C7_11 
REMARK    5  A    between atoms: C6_10  and  C8_13 
REMARK       I    between atoms: C7_11  and  N3_14 
REMARK    6  A    between atoms: N3_14  and  C9_15 
REMARK    7  A    between atoms: C9_15  and  C10_16 
REMARK    8  A    between atoms: C9_15  and  C11_18 
REMARK       I    between atoms: C10_16  and  N4_21 
REMARK    9  A    between atoms: C11_18  and  C12_19 
REMARK   10  A    between atoms: C11_18  and  C13_20 
REMARK   11  A    between atoms: N4_21  and  C14_22 
REMARK   12  A    between atoms: C14_22  and  C15_23 
REMARK   13  A    between atoms: C14_22  and  C16_25 
REMARK       I    between atoms: C15_23  and  N6_40 
REMARK   14  A    between atoms: C16_25  and  C17_26 
REMARK   15  A    between atoms: C17_26  and  C18_27 
REMARK   16  A    between atoms: C17_26  and  C19_28 
REMARK   17  A    between atoms: C20_29  and  C21_30 
REMARK   18  A    between atoms: C20_29  and  C24_33 
REMARK   19  A    between atoms: C20_29  and  N6_40 
REMARK   20  A    between atoms: C21_30  and  C22_31 
REMARK   21  A    between atoms: C22_31  and  C23_32 
REMARK   22  A    between atoms: C23_32  and  O8_43 
REMARK   23  A    between atoms: C24_33  and  C25_34 
REMARK   24  A    between atoms: C28_38  and  O6_39 
REMARK   25  A    between atoms: C29_42  and  O8_43 
REMARK   26  A    between atoms: C29_42  and  C35_49 
ROOT
ATOM      1  C14 non d ame     -36.468  16.062  26.485  0.00  0.00     0.089 C 
ATOM      2  H20 non d ame     -37.062  16.609  27.217  0.00  0.00     0.087 H 
ENDROOT
BRANCH   1   3
ATOM      3  N4  non d ame     -35.067  16.244  26.834  0.00  0.00    -0.346 N 
ATOM      4  C10 non d ame     -34.671  17.226  27.908  0.00  0.00     0.241 C 
ATOM      5  O4  non d ame     -35.498  17.860  28.476  0.00  0.00    -0.271 OA
ATOM      6  H19 non d ame     -34.378  15.697  26.337  0.00  0.00     0.163 HD
BRANCH   4   7
ATOM      7  C9  non d ame     -33.216  17.397  28.260  0.00  0.00     0.092 C 
ATOM      8  H11 non d ame     -33.138  17.913  29.217  0.00  0.00     0.088 H 
BRANCH   7   9
ATOM      9  N3  non d ame     -32.594  16.080  28.424  0.00  0.00    -0.346 N 
ATOM     10  C7  non d ame     -31.732  15.827  29.552  0.00  0.00     0.240 C 
ATOM     11  O3  non d ame     -31.527  16.671  30.336  0.00  0.00    -0.271 OA
ATOM     12  H10 non d ame     -32.760  15.342  27.755  0.00  0.00     0.163 HD
BRANCH  10  13
ATOM     13  C6  non d ame     -31.070  14.424  29.720  0.00  0.00     0.086 C 
ATOM     14  H6  non d ame     -30.401  14.373  30.579  0.00  0.00     0.086 H 
BRANCH  13  15
ATOM     15  N2  non d ame     -32.111  13.435  29.944  0.00  0.00    -0.343 N 
ATOM     16  C5  non d ame     -31.786  12.192  30.647  0.00  0.00     0.273 C 
ATOM     17  O2  non d ame     -30.683  11.995  31.025  0.00  0.00    -0.266 OA
ATOM     18  H5  non d ame     -33.050  13.609  29.615  0.00  0.00     0.163 HD
BRANCH  16  19
ATOM     19  C4  non d ame     -32.877  11.138  30.892  0.00  0.00     0.154 A 
ATOM     20  C1  non d ame     -33.237  10.050  30.035  0.00  0.00    -0.017 A 
ATOM     21  C2  non d ame     -34.285   9.386  30.711  0.00  0.00     0.077 A 
ATOM     22  H1  non d ame     -32.804   9.783  29.071  0.00  0.00     0.091 H 
ATOM     23  O1  non d ame     -34.493  10.024  31.825  0.00  0.00    -0.218 OA
ATOM     24  N1  non d ame     -33.684  11.051  31.953  0.00  0.00    -0.123 NA
BRANCH  21  25
ATOM     25  C3  non d ame     -35.030   8.150  30.226  0.00  0.00    -0.029 C 
ATOM     26  H2  non d ame     -35.927   8.006  30.828  0.00  0.00     0.036 H 
ATOM     27  H3  non d ame     -35.312   8.283  29.181  0.00  0.00     0.036 H 
ATOM     28  H4  non d ame     -34.386   7.276  30.320  0.00  0.00     0.036 H 
ENDBRANCH  21  25
ENDBRANCH  16  19
ENDBRANCH  13  15
BRANCH  13  29
ATOM     29  C8  non d ame     -30.291  14.080  28.476  0.00  0.00    -0.049 C 
ATOM     30  H7  non d ame     -30.601  14.735  27.661  0.00  0.00     0.030 H 
ATOM     31  H8  non d ame     -29.226  14.216  28.665  0.00  0.00     0.030 H 
ATOM     32  H9  non d ame     -30.482  13.043  28.201  0.00  0.00     0.030 H 
ENDBRANCH  13  29
ENDBRANCH  10  13
ENDBRANCH   7   9
BRANCH   7  33
ATOM     33  C11 non d ame     -32.494  18.171  27.118  0.00  0.00    -0.033 C 
ATOM     34  H12 non d ame     -31.437  18.229  27.378  0.00  0.00     0.042 H 
BRANCH  33  35
ATOM     35  C12 non d ame     -32.601  17.409  25.760  0.00  0.00    -0.071 C 
ATOM     36  H13 non d ame     -33.487  17.749  25.222  0.00  0.00     0.028 H 
ATOM     37  H14 non d ame     -31.713  17.609  25.161  0.00  0.00     0.028 H 
ATOM     38  H15 non d ame     -32.680  16.339  25.949  0.00  0.00     0.028 H 
ENDBRANCH  33  35
BRANCH  33  39
ATOM     39  C13 non d ame     -33.043  19.628  26.995  0.00  0.00    -0.071 C 
ATOM     40  H16 non d ame     -33.640  19.716  26.087  0.00  0.00     0.028 H 
ATOM     41  H17 non d ame     -33.663  19.857  27.863  0.00  0.00     0.028 H 
ATOM     42  H18 non d ame     -32.209  20.328  26.952  0.00  0.00     0.028 H 
ENDBRANCH  33  39
ENDBRANCH   7  33
ENDBRANCH   4   7
ENDBRANCH   1   3
BRANCH   1  43
ATOM     43  C15 non d ame     -36.785  14.539  26.490  0.00  0.00     0.240 C 
ATOM     44  O5  non d ame     -37.874  14.163  26.783  0.00  0.00    -0.271 OA
ATOM     45  N6  non d ame     -35.734  13.549  26.119  0.00  0.00    -0.355 N 
ATOM     46  H46 non d ame     -34.807  13.857  25.863  0.00  0.00     0.162 HD
BRANCH  45  47
ATOM     47  C20 non d ame     -36.052  12.105  26.127  0.00  0.00     0.013 C 
ATOM     48  H30 non d ame     -36.964  11.965  26.708  0.00  0.00     0.072 H 
BRANCH  47  49
ATOM     49  C21 non d ame     -34.911  11.345  26.767  0.00  0.00    -0.038 C 
ATOM     50  H31 non d ame     -35.302  10.968  27.712  0.00  0.00     0.036 H 
ATOM     51  H32 non d ame     -34.559  10.649  26.006  0.00  0.00     0.036 H 
BRANCH  49  52
ATOM     52  C22 non d ame     -33.712  12.251  27.120  0.00  0.00     0.018 C 
ATOM     53  H33 non d ame     -33.933  13.221  26.676  0.00  0.00     0.048 H 
ATOM     54  H34 non d ame     -33.582  12.162  28.199  0.00  0.00     0.048 H 
BRANCH  52  55
ATOM     55  C23 non d ame     -32.370  11.788  26.487  0.00  0.00     0.259 C 
ATOM     56  O7  non d ame     -31.650  11.047  27.075  0.00  0.00    -0.265 OA
BRANCH  55  57
ATOM     57  O8  non d ame     -32.003  12.270  25.200  0.00  0.00    -0.317 OA
BRANCH  57  58
ATOM     58  C29 non d ame     -31.762  13.679  25.153  0.00  0.00     0.052 C 
ATOM     59  H47 non d ame     -32.733  14.139  24.967  0.00  0.00     0.082 H 
ATOM     60  H48 non d ame     -31.213  13.915  26.065  0.00  0.00     0.082 H 
BRANCH  58  61
ATOM     61  C35 non d ame     -30.841  13.967  23.938  0.00  0.00    -0.034 A 
ATOM     62  C30 non d ame     -30.359  12.916  23.164  0.00  0.00    -0.075 A 
ATOM     63  C31 non d ame     -29.532  13.174  22.072  0.00  0.00    -0.082 A 
ATOM     64  H49 non d ame     -30.630  11.890  23.413  0.00  0.00     0.084 H 
ATOM     65  C32 non d ame     -29.184  14.490  21.757  0.00  0.00    -0.083 A 
ATOM     66  H50 non d ame     -29.157  12.348  21.467  0.00  0.00     0.083 H 
ATOM     67  C33 non d ame     -29.664  15.536  22.534  0.00  0.00    -0.082 A 
ATOM     68  H51 non d ame     -28.538  14.701  20.904  0.00  0.00     0.083 H 
ATOM     69  C34 non d ame     -30.493  15.283  23.624  0.00  0.00    -0.075 A 
ATOM     70  H52 non d ame     -29.388  16.562  22.286  0.00  0.00     0.083 H 
ATOM     71  H53 non d ame     -30.867  16.109  24.229  0.00  0.00     0.084 H 
ENDBRANCH  58  61
ENDBRANCH  57  58
ENDBRANCH  55  57
ENDBRANCH  52  55
ENDBRANCH  49  52
ENDBRANCH  47  49
BRANCH  47  72
ATOM     72  C24 non d ame     -36.254  11.612  24.696  0.00  0.00    -0.039 C 
ATOM     73  H35 non d ame     -35.703  12.313  24.068  0.00  0.00     0.036 H 
ATOM     74  H36 non d ame     -35.975  10.558  24.710  0.00  0.00     0.036 H 
BRANCH  72  75
ATOM     75  C25 non d ame     -37.791  11.689  24.254  0.00  0.00    -0.001 C 
ATOM     76  C26 non d ame     -38.254  10.259  23.586  0.00  0.00    -0.035 C 
ATOM     77  C27 non d ame     -38.838  10.505  22.389  0.00  0.00     0.085 C 
ATOM     78  H38 non d ame     -37.377   9.667  23.326  0.00  0.00     0.036 H 
ATOM     79  H39 non d ame     -39.057   9.814  24.174  0.00  0.00     0.036 H 
ATOM     80  N5  non d ame     -38.522  11.937  22.030  0.00  0.00    -0.049 N 
ATOM     81  H40 non d ame     -38.339   9.843  21.681  0.00  0.00     0.075 H 
ATOM     82  H41 non d ame     -39.909  10.410  22.562  0.00  0.00     0.075 H 
ATOM     83  C28 non d ame     -37.982  12.626  23.387  0.00  0.00     0.193 C 
ATOM     84  H42 non d ame     -37.765  11.905  21.362  0.00  0.00     0.280 HD
ATOM     85  H43 non d ame     -39.400  12.368  21.778  0.00  0.00     0.280 HD
ATOM     86  H44 non d ame     -38.622  13.298  23.959  0.00  0.00     0.129 H 
ATOM     87  H37 non d ame     -38.427  12.098  25.039  0.00  0.00     0.046 H 
BRANCH  83  88
ATOM     88  O6  non d ame     -36.790  13.367  23.122  0.00  0.00    -0.369 OA
ATOM     89  H45 non d ame     -36.489  13.181  22.230  0.00  0.00     0.212 HD
ENDBRANCH  83  88
ENDBRANCH  72  75
ENDBRANCH  47  72
ENDBRANCH  45  47
ENDBRANCH   1  43
BRANCH   1  90
ATOM     90  C16 non d ame     -36.711  16.630  25.096  0.00  0.00    -0.035 C 
ATOM     91  H21 non d ame     -35.722  16.747  24.654  0.00  0.00     0.037 H 
ATOM     92  H22 non d ame     -37.439  15.963  24.634  0.00  0.00     0.037 H 
BRANCH  90  93
ATOM     93  C17 non d ame     -37.359  18.051  25.105  0.00  0.00    -0.059 C 
ATOM     94  H23 non d ame     -37.938  18.157  24.188  0.00  0.00     0.038 H 
BRANCH  93  95
ATOM     95  C18 non d ame     -38.336  18.246  26.309  0.00  0.00    -0.073 C 
ATOM     96  H24 non d ame     -38.025  19.111  26.893  0.00  0.00     0.028 H 
ATOM     97  H25 non d ame     -39.347  18.404  25.936  0.00  0.00     0.028 H 
ATOM     98  H26 non d ame     -38.317  17.357  26.939  0.00  0.00     0.028 H 
ENDBRANCH  93  95
BRANCH  93  99
ATOM     99  C19 non d ame     -36.286  19.142  25.093  0.00  0.00    -0.073 C 
ATOM    100  H27 non d ame     -35.452  18.839  25.727  0.00  0.00     0.028 H 
ATOM    101  H28 non d ame     -35.930  19.292  24.074  0.00  0.00     0.028 H 
ATOM    102  H29 non d ame     -36.709  20.073  25.470  0.00  0.00     0.028 H 
ENDBRANCH  93  99
ENDBRANCH  90  93
ENDBRANCH   1  90
TORSDOF 26
ENDMDL
MODEL 7
REMARK VINA RESULT:      -6.7      2.270      6.067
REMARK  26 active torsions:
REMARK  status: ('A' for Active; 'I' for Inactive)
REMARK    1  A    between atoms: C2_2  and  C3_3 
REMARK    2  A    between atoms: C4_6  and  C5_7 
REMARK       I    between atoms: C5_7  and  N2_9 
REMARK    3  A    between atoms: N2_9  and  C6_10 
REMARK    4  A    between atoms: C6_10  and  C7_11 
REMARK    5  A    between atoms: C6_10  and  C8_13 
REMARK       I    between atoms: C7_11  and  N3_14 
REMARK    6  A    between atoms: N3_14  and  C9_15 
REMARK    7  A    between atoms: C9_15  and  C10_16 
REMARK    8  A    between atoms: C9_15  and  C11_18 
REMARK       I    between atoms: C10_16  and  N4_21 
REMARK    9  A    between atoms: C11_18  and  C12_19 
REMARK   10  A    between atoms: C11_18  and  C13_20 
REMARK   11  A    between atoms: N4_21  and  C14_22 
REMARK   12  A    between atoms: C14_22  and  C15_23 
REMARK   13  A    between atoms: C14_22  and  C16_25 
REMARK       I    between atoms: C15_23  and  N6_40 
REMARK   14  A    between atoms: C16_25  and  C17_26 
REMARK   15  A    between atoms: C17_26  and  C18_27 
REMARK   16  A    between atoms: C17_26  and  C19_28 
REMARK   17  A    between atoms: C20_29  and  C21_30 
REMARK   18  A    between atoms: C20_29  and  C24_33 
REMARK   19  A    between atoms: C20_29  and  N6_40 
REMARK   20  A    between atoms: C21_30  and  C22_31 
REMARK   21  A    between atoms: C22_31  and  C23_32 
REMARK   22  A    between atoms: C23_32  and  O8_43 
REMARK   23  A    between atoms: C24_33  and  C25_34 
REMARK   24  A    between atoms: C28_38  and  O6_39 
REMARK   25  A    between atoms: C29_42  and  O8_43 
REMARK   26  A    between atoms: C29_42  and  C35_49 
ROOT
ATOM      1  C14 non d ame     -31.145  14.520  23.888  0.00  0.00     0.089 C 
ATOM      2  H20 non d ame     -30.112  14.766  24.135  0.00  0.00     0.087 H 
ENDROOT
BRANCH   1   3
ATOM      3  N4  non d ame     -31.338  13.105  24.167  0.00  0.00    -0.346 N 
ATOM      4  C10 non d ame     -30.547  12.065  23.413  0.00  0.00     0.241 C 
ATOM      5  O4  non d ame     -29.763  12.392  22.584  0.00  0.00    -0.271 OA
ATOM      6  H19 non d ame     -32.011  12.847  24.875  0.00  0.00     0.163 HD
BRANCH   4   7
ATOM      7  C9  non d ame     -30.755  10.605  23.719  0.00  0.00     0.092 C 
ATOM      8  H11 non d ame     -30.053  10.298  24.495  0.00  0.00     0.088 H 
BRANCH   7   9
ATOM      9  N3  non d ame     -32.106  10.404  24.252  0.00  0.00    -0.346 N 
ATOM     10  C7  non d ame     -32.325  10.403  25.677  0.00  0.00     0.240 C 
ATOM     11  O3  non d ame     -31.426  10.560  26.410  0.00  0.00    -0.271 OA
ATOM     12  H10 non d ame     -32.891  10.266  23.632  0.00  0.00     0.163 HD
BRANCH  10  13
ATOM     13  C6  non d ame     -33.765  10.186  26.238  0.00  0.00     0.086 C 
ATOM     14  H6  non d ame     -33.774   9.984  27.309  0.00  0.00     0.086 H 
BRANCH  13  15
ATOM     15  N2  non d ame     -34.537  11.400  26.037  0.00  0.00    -0.343 N 
ATOM     16  C5  non d ame     -35.488  11.829  27.065  0.00  0.00     0.273 C 
ATOM     17  O2  non d ame     -35.626  11.188  28.049  0.00  0.00    -0.266 OA
ATOM     18  H5  non d ame     -34.415  11.940  25.192  0.00  0.00     0.163 HD
BRANCH  16  19
ATOM     19  C4  non d ame     -36.310  13.112  26.867  0.00  0.00     0.154 A 
ATOM     20  C1  non d ame     -35.815  14.414  26.540  0.00  0.00    -0.017 A 
ATOM     21  C2  non d ame     -36.964  15.233  26.471  0.00  0.00     0.077 A 
ATOM     22  H1  non d ame     -34.781  14.719  26.379  0.00  0.00     0.091 H 
ATOM     23  O1  non d ame     -37.993  14.479  26.728  0.00  0.00    -0.218 OA
ATOM     24  N1  non d ame     -37.637  13.237  26.962  0.00  0.00    -0.123 NA
BRANCH  21  25
ATOM     25  C3  non d ame     -36.993  16.722  26.154  0.00  0.00    -0.029 C 
ATOM     26  H2  non d ame     -38.025  17.071  26.136  0.00  0.00     0.036 H 
ATOM     27  H3  non d ame     -36.439  17.267  26.919  0.00  0.00     0.036 H 
ATOM     28  H4  non d ame     -36.533  16.896  25.181  0.00  0.00     0.036 H 
ENDBRANCH  21  25
ENDBRANCH  16  19
ENDBRANCH  13  15
BRANCH  13  29
ATOM     29  C8  non d ame     -34.419   9.033  25.520  0.00  0.00    -0.049 C 
ATOM     30  H7  non d ame     -35.331   8.749  26.043  0.00  0.00     0.030 H 
ATOM     31  H8  non d ame     -34.663   9.332  24.501  0.00  0.00     0.030 H 
ATOM     32  H9  non d ame     -33.734   8.184  25.496  0.00  0.00     0.030 H 
ENDBRANCH  13  29
ENDBRANCH  10  13
ENDBRANCH   7   9
BRANCH   7  33
ATOM     33  C11 non d ame     -30.586   9.773  22.414  0.00  0.00    -0.033 C 
ATOM     34  H12 non d ame     -30.591  10.470  21.576  0.00  0.00     0.042 H 
BRANCH  33  35
ATOM     35  C12 non d ame     -29.217   9.024  22.391  0.00  0.00    -0.071 C 
ATOM     36  H13 non d ame     -29.101   8.450  23.311  0.00  0.00     0.028 H 
ATOM     37  H14 non d ame     -29.186   8.349  21.536  0.00  0.00     0.028 H 
ATOM     38  H15 non d ame     -28.407   9.749  22.312  0.00  0.00     0.028 H 
ENDBRANCH  33  35
BRANCH  33  39
ATOM     39  C13 non d ame     -31.778   8.780  22.225  0.00  0.00    -0.071 C 
ATOM     40  H16 non d ame     -32.536   9.240  21.592  0.00  0.00     0.028 H 
ATOM     41  H17 non d ame     -31.417   7.865  21.755  0.00  0.00     0.028 H 
ATOM     42  H18 non d ame     -32.210   8.543  23.197  0.00  0.00     0.028 H 
ENDBRANCH  33  39
ENDBRANCH   7  33
ENDBRANCH   4   7
ENDBRANCH   1   3
BRANCH   1  43
ATOM     43  C15 non d ame     -32.163  15.335  24.737  0.00  0.00     0.240 C 
ATOM     44  O5  non d ame     -33.232  15.595  24.288  0.00  0.00    -0.271 OA
ATOM     45  N6  non d ame     -31.807  15.783  26.113  0.00  0.00    -0.355 N 
ATOM     46  H46 non d ame     -30.903  15.564  26.506  0.00  0.00     0.162 HD
BRANCH  45  47
ATOM     47  C20 non d ame     -32.785  16.556  26.908  0.00  0.00     0.013 C 
ATOM     48  H30 non d ame     -33.769  16.412  26.462  0.00  0.00     0.072 H 
BRANCH  47  49
ATOM     49  C21 non d ame     -32.413  18.021  26.872  0.00  0.00    -0.038 C 
ATOM     50  H31 non d ame     -32.387  18.344  27.913  0.00  0.00     0.036 H 
ATOM     51  H32 non d ame     -31.513  18.081  26.260  0.00  0.00     0.036 H 
BRANCH  49  52
ATOM     52  C22 non d ame     -33.476  18.893  26.171  0.00  0.00     0.018 C 
ATOM     53  H33 non d ame     -32.926  19.701  25.690  0.00  0.00     0.048 H 
ATOM     54  H34 non d ame     -34.072  18.206  25.570  0.00  0.00     0.048 H 
BRANCH  52  55
ATOM     55  C23 non d ame     -34.470  19.578  27.150  0.00  0.00     0.259 C 
ATOM     56  O7  non d ame     -34.522  19.242  28.289  0.00  0.00    -0.265 OA
BRANCH  55  57
ATOM     57  O8  non d ame     -35.329  20.604  26.667  0.00  0.00    -0.317 OA
BRANCH  57  58
ATOM     58  C29 non d ame     -36.722  20.312  26.809  0.00  0.00     0.052 C 
ATOM     59  H47 non d ame     -36.773  19.280  27.155  0.00  0.00     0.082 H 
ATOM     60  H48 non d ame     -37.130  21.113  27.424  0.00  0.00     0.082 H 
BRANCH  58  61
ATOM     61  C35 non d ame     -37.373  20.392  25.403  0.00  0.00    -0.034 A 
ATOM     62  C30 non d ame     -36.654  20.001  24.278  0.00  0.00    -0.075 A 
ATOM     63  C31 non d ame     -37.238  20.073  23.015  0.00  0.00    -0.082 A 
ATOM     64  H49 non d ame     -35.631  19.638  24.387  0.00  0.00     0.084 H 
ATOM     65  C32 non d ame     -38.548  20.541  22.878  0.00  0.00    -0.083 A 
ATOM     66  H50 non d ame     -36.672  19.764  22.136  0.00  0.00     0.083 H 
ATOM     67  C33 non d ame     -39.261  20.933  24.002  0.00  0.00    -0.082 A 
ATOM     68  H51 non d ame     -39.013  20.600  21.894  0.00  0.00     0.083 H 
ATOM     69  C34 non d ame     -38.681  20.861  25.267  0.00  0.00    -0.075 A 
ATOM     70  H52 non d ame     -40.282  21.300  23.892  0.00  0.00     0.083 H 
ATOM     71  H53 non d ame     -39.248  21.170  26.146  0.00  0.00     0.084 H 
ENDBRANCH  58  61
ENDBRANCH  57  58
ENDBRANCH  55  57
ENDBRANCH  52  55
ENDBRANCH  49  52
ENDBRANCH  47  49
BRANCH  47  72
ATOM     72  C24 non d ame     -32.781  16.064  28.353  0.00  0.00    -0.039 C 
ATOM     73  H35 non d ame     -32.428  16.908  28.946  0.00  0.00     0.036 H 
ATOM     74  H36 non d ame     -33.777  15.657  28.525  0.00  0.00     0.036 H 
BRANCH  72  75
ATOM     75  C25 non d ame     -31.738  14.867  28.569  0.00  0.00    -0.001 C 
ATOM     76  C26 non d ame     -32.535  13.430  28.608  0.00  0.00    -0.035 C 
ATOM     77  C27 non d ame     -32.157  12.751  29.718  0.00  0.00     0.085 C 
ATOM     78  H38 non d ame     -33.601  13.598  28.763  0.00  0.00     0.036 H 
ATOM     79  H39 non d ame     -32.197  12.792  27.791  0.00  0.00     0.036 H 
ATOM     80  N5  non d ame     -31.425  13.729  30.605  0.00  0.00    -0.049 N 
ATOM     81  H40 non d ame     -33.084  12.452  30.206  0.00  0.00     0.075 H 
ATOM     82  H41 non d ame     -31.455  11.994  29.370  0.00  0.00     0.075 H 
ATOM     83  C28 non d ame     -31.089  15.006  29.676  0.00  0.00     0.193 C 
ATOM     84  H42 non d ame     -32.081  14.014  31.318  0.00  0.00     0.280 HD
ATOM     85  H43 non d ame     -30.557  13.283  30.866  0.00  0.00     0.280 HD
ATOM     86  H44 non d ame     -30.079  15.164  29.297  0.00  0.00     0.129 H 
ATOM     87  H37 non d ame     -30.881  14.941  27.898  0.00  0.00     0.046 H 
BRANCH  83  88
ATOM     88  O6  non d ame     -31.435  16.214  30.356  0.00  0.00    -0.369 OA
ATOM     89  H45 non d ame     -30.741  16.865  30.225  0.00  0.00     0.212 HD
ENDBRANCH  83  88
ENDBRANCH  72  75
ENDBRANCH  47  72
ENDBRANCH  45  47
ENDBRANCH   1  43
BRANCH   1  90
ATOM     90  C16 non d ame     -31.395  14.772  22.409  0.00  0.00    -0.035 C 
ATOM     91  H21 non d ame     -31.230  13.812  21.921  0.00  0.00     0.037 H 
ATOM     92  H22 non d ame     -32.375  15.248  22.359  0.00  0.00     0.037 H 
BRANCH  90  93
ATOM     93  C17 non d ame     -30.384  15.774  21.765  0.00  0.00    -0.059 C 
ATOM     94  H23 non d ame     -30.661  16.777  22.089  0.00  0.00     0.038 H 
BRANCH  93  95
ATOM     95  C18 non d ame     -28.916  15.510  22.230  0.00  0.00    -0.073 C 
ATOM     96  H24 non d ame     -28.649  16.221  23.011  0.00  0.00     0.028 H 
ATOM     97  H25 non d ame     -28.835  14.496  22.620  0.00  0.00     0.028 H 
ATOM     98  H26 non d ame     -28.240  15.629  21.384  0.00  0.00     0.028 H 
ENDBRANCH  93  95
BRANCH  93  99
ATOM     99  C19 non d ame     -30.485  15.746  20.238  0.00  0.00    -0.073 C 
ATOM    100  H27 non d ame     -29.529  16.042  19.805  0.00  0.00     0.028 H 
ATOM    101  H28 non d ame     -30.736  14.737  19.908  0.00  0.00     0.028 H 
ATOM    102  H29 non d ame     -31.262  16.437  19.912  0.00  0.00     0.028 H 
ENDBRANCH  93  99
ENDBRANCH  90  93
ENDBRANCH   1  90
TORSDOF 26
ENDMDL
MODEL 8
REMARK VINA RESULT:      -6.7      2.075      5.887
REMARK  26 active torsions:
REMARK  status: ('A' for Active; 'I' for Inactive)
REMARK    1  A    between atoms: C2_2  and  C3_3 
REMARK    2  A    between atoms: C4_6  and  C5_7 
REMARK       I    between atoms: C5_7  and  N2_9 
REMARK    3  A    between atoms: N2_9  and  C6_10 
REMARK    4  A    between atoms: C6_10  and  C7_11 
REMARK    5  A    between atoms: C6_10  and  C8_13 
REMARK       I    between atoms: C7_11  and  N3_14 
REMARK    6  A    between atoms: N3_14  and  C9_15 
REMARK    7  A    between atoms: C9_15  and  C10_16 
REMARK    8  A    between atoms: C9_15  and  C11_18 
REMARK       I    between atoms: C10_16  and  N4_21 
REMARK    9  A    between atoms: C11_18  and  C12_19 
REMARK   10  A    between atoms: C11_18  and  C13_20 
REMARK   11  A    between atoms: N4_21  and  C14_22 
REMARK   12  A    between atoms: C14_22  and  C15_23 
REMARK   13  A    between atoms: C14_22  and  C16_25 
REMARK       I    between atoms: C15_23  and  N6_40 
REMARK   14  A    between atoms: C16_25  and  C17_26 
REMARK   15  A    between atoms: C17_26  and  C18_27 
REMARK   16  A    between atoms: C17_26  and  C19_28 
REMARK   17  A    between atoms: C20_29  and  C21_30 
REMARK   18  A    between atoms: C20_29  and  C24_33 
REMARK   19  A    between atoms: C20_29  and  N6_40 
REMARK   20  A    between atoms: C21_30  and  C22_31 
REMARK   21  A    between atoms: C22_31  and  C23_32 
REMARK   22  A    between atoms: C23_32  and  O8_43 
REMARK   23  A    between atoms: C24_33  and  C25_34 
REMARK   24  A    between atoms: C28_38  and  O6_39 
REMARK   25  A    between atoms: C29_42  and  O8_43 
REMARK   26  A    between atoms: C29_42  and  C35_49 
ROOT
ATOM      1  C14 non d ame     -30.940  13.897  24.634  0.00  0.00     0.089 C 
ATOM      2  H20 non d ame     -29.963  13.764  25.100  0.00  0.00     0.087 H 
ENDROOT
BRANCH   1   3
ATOM      3  N4  non d ame     -31.376  12.595  24.150  0.00  0.00    -0.346 N 
ATOM      4  C10 non d ame     -31.278  11.380  25.038  0.00  0.00     0.241 C 
ATOM      5  O4  non d ame     -30.843  11.474  26.138  0.00  0.00    -0.271 OA
ATOM      6  H19 non d ame     -31.741  12.536  23.210  0.00  0.00     0.163 HD
BRANCH   4   7
ATOM      7  C9  non d ame     -31.739  10.042  24.522  0.00  0.00     0.092 C 
ATOM      8  H11 non d ame     -31.312   9.253  25.141  0.00  0.00     0.088 H 
BRANCH   7   9
ATOM      9  N3  non d ame     -33.197   9.947  24.644  0.00  0.00    -0.346 N 
ATOM     10  C7  non d ame     -33.782   9.234  25.753  0.00  0.00     0.240 C 
ATOM     11  O3  non d ame     -33.095   8.731  26.555  0.00  0.00    -0.271 OA
ATOM     12  H10 non d ame     -33.802  10.375  23.958  0.00  0.00     0.163 HD
BRANCH  10  13
ATOM     13  C6  non d ame     -35.334   9.134  25.875  0.00  0.00     0.086 C 
ATOM     14  H6  non d ame     -35.657   8.744  26.840  0.00  0.00     0.086 H 
BRANCH  13  15
ATOM     15  N2  non d ame     -35.904  10.465  25.754  0.00  0.00    -0.343 N 
ATOM     16  C5  non d ame     -36.266  11.208  26.963  0.00  0.00     0.273 C 
ATOM     17  O2  non d ame     -36.097  10.725  28.028  0.00  0.00    -0.266 OA
ATOM     18  H5  non d ame     -36.047  10.870  24.839  0.00  0.00     0.163 HD
BRANCH  16  19
ATOM     19  C4  non d ame     -36.867  12.618  26.849  0.00  0.00     0.154 A 
ATOM     20  C1  non d ame     -36.171  13.835  26.567  0.00  0.00    -0.017 A 
ATOM     21  C2  non d ame     -37.169  14.835  26.573  0.00  0.00     0.077 A 
ATOM     22  H1  non d ame     -35.104  13.972  26.386  0.00  0.00     0.091 H 
ATOM     23  O1  non d ame     -38.302  14.249  26.827  0.00  0.00    -0.218 OA
ATOM     24  N1  non d ame     -38.152  12.956  26.993  0.00  0.00    -0.123 NA
BRANCH  21  25
ATOM     25  C3  non d ame     -36.956  16.323  26.325  0.00  0.00    -0.029 C 
ATOM     26  H2  non d ame     -37.823  16.732  25.807  0.00  0.00     0.036 H 
ATOM     27  H3  non d ame     -36.828  16.835  27.278  0.00  0.00     0.036 H 
ATOM     28  H4  non d ame     -36.066  16.466  25.713  0.00  0.00     0.036 H 
ENDBRANCH  21  25
ENDBRANCH  16  19
ENDBRANCH  13  15
BRANCH  13  29
ATOM     29  C8  non d ame     -35.870   8.241  24.785  0.00  0.00    -0.049 C 
ATOM     30  H7  non d ame     -36.590   7.541  25.209  0.00  0.00     0.030 H 
ATOM     31  H8  non d ame     -36.360   8.850  24.025  0.00  0.00     0.030 H 
ATOM     32  H9  non d ame     -35.048   7.686  24.332  0.00  0.00     0.030 H 
ENDBRANCH  13  29
ENDBRANCH  10  13
ENDBRANCH   7   9
BRANCH   7  33
ATOM     33  C11 non d ame     -31.336   9.897  23.025  0.00  0.00    -0.033 C 
ATOM     34  H12 non d ame     -31.562  10.841  22.530  0.00  0.00     0.042 H 
BRANCH  33  35
ATOM     35  C12 non d ame     -29.803   9.643  22.872  0.00  0.00    -0.071 C 
ATOM     36  H13 non d ame     -29.377  10.386  22.198  0.00  0.00     0.028 H 
ATOM     37  H14 non d ame     -29.323   9.718  23.847  0.00  0.00     0.028 H 
ATOM     38  H15 non d ame     -29.640   8.646  22.462  0.00  0.00     0.028 H 
ENDBRANCH  33  35
BRANCH  33  39
ATOM     39  C13 non d ame     -32.168   8.773  22.328  0.00  0.00    -0.071 C 
ATOM     40  H16 non d ame     -31.826   7.798  22.676  0.00  0.00     0.028 H 
ATOM     41  H17 non d ame     -33.224   8.897  22.575  0.00  0.00     0.028 H 
ATOM     42  H18 non d ame     -32.038   8.841  21.248  0.00  0.00     0.028 H 
ENDBRANCH  33  39
ENDBRANCH   7  33
ENDBRANCH   4   7
ENDBRANCH   1   3
BRANCH   1  43
ATOM     43  C15 non d ame     -32.001  14.432  25.638  0.00  0.00     0.240 C 
ATOM     44  O5  non d ame     -33.072  14.764  25.245  0.00  0.00    -0.271 OA
ATOM     45  N6  non d ame     -31.683  14.523  27.092  0.00  0.00    -0.355 N 
ATOM     46  H46 non d ame     -30.778  14.240  27.438  0.00  0.00     0.162 HD
BRANCH  45  47
ATOM     47  C20 non d ame     -32.703  15.033  28.034  0.00  0.00     0.013 C 
ATOM     48  H30 non d ame     -33.685  14.856  27.594  0.00  0.00     0.072 H 
BRANCH  47  49
ATOM     49  C21 non d ame     -32.491  16.515  28.246  0.00  0.00    -0.038 C 
ATOM     50  H31 non d ame     -32.722  16.698  29.296  0.00  0.00     0.036 H 
ATOM     51  H32 non d ame     -31.493  16.727  27.862  0.00  0.00     0.036 H 
BRANCH  49  52
ATOM     52  C22 non d ame     -33.469  17.384  27.425  0.00  0.00     0.018 C 
ATOM     53  H33 non d ame     -33.531  16.912  26.445  0.00  0.00     0.048 H 
ATOM     54  H34 non d ame     -34.364  17.483  28.041  0.00  0.00     0.048 H 
BRANCH  52  55
ATOM     55  C23 non d ame     -32.960  18.830  27.173  0.00  0.00     0.259 C 
ATOM     56  O7  non d ame     -31.862  19.020  26.760  0.00  0.00    -0.265 OA
BRANCH  55  57
ATOM     57  O8  non d ame     -33.819  19.929  27.452  0.00  0.00    -0.317 OA
BRANCH  57  58
ATOM     58  C29 non d ame     -35.141  19.550  27.844  0.00  0.00     0.052 C 
ATOM     59  H47 non d ame     -35.136  18.461  27.885  0.00  0.00     0.082 H 
ATOM     60  H48 non d ame     -35.361  20.128  28.741  0.00  0.00     0.082 H 
BRANCH  58  61
ATOM     61  C35 non d ame     -36.119  19.994  26.723  0.00  0.00    -0.034 A 
ATOM     62  C30 non d ame     -35.880  19.625  25.404  0.00  0.00    -0.075 A 
ATOM     63  C31 non d ame     -36.757  20.024  24.397  0.00  0.00    -0.082 A 
ATOM     64  H49 non d ame     -35.005  19.022  25.158  0.00  0.00     0.084 H 
ATOM     65  C32 non d ame     -37.877  20.798  24.713  0.00  0.00    -0.083 A 
ATOM     66  H50 non d ame     -36.568  19.731  23.364  0.00  0.00     0.083 H 
ATOM     67  C33 non d ame     -38.109  21.168  26.031  0.00  0.00    -0.082 A 
ATOM     68  H51 non d ame     -38.568  21.114  23.932  0.00  0.00     0.083 H 
ATOM     69  C34 non d ame     -37.236  20.769  27.041  0.00  0.00    -0.075 A 
ATOM     70  H52 non d ame     -38.982  21.774  26.274  0.00  0.00     0.083 H 
ATOM     71  H53 non d ame     -37.426  21.062  28.074  0.00  0.00     0.084 H 
ENDBRANCH  58  61
ENDBRANCH  57  58
ENDBRANCH  55  57
ENDBRANCH  52  55
ENDBRANCH  49  52
ENDBRANCH  47  49
BRANCH  47  72
ATOM     72  C24 non d ame     -32.582  14.304  29.371  0.00  0.00    -0.039 C 
ATOM     73  H35 non d ame     -31.925  14.924  29.981  0.00  0.00     0.036 H 
ATOM     74  H36 non d ame     -33.607  14.116  29.692  0.00  0.00     0.036 H 
BRANCH  72  75
ATOM     75  C25 non d ame     -31.870  12.879  29.206  0.00  0.00    -0.001 C 
ATOM     76  C26 non d ame     -33.000  11.684  29.205  0.00  0.00    -0.035 C 
ATOM     77  C27 non d ame     -32.642  10.744  30.113  0.00  0.00     0.085 C 
ATOM     78  H38 non d ame     -33.945  12.064  29.592  0.00  0.00     0.036 H 
ATOM     79  H39 non d ame     -32.975  11.146  28.258  0.00  0.00     0.036 H 
ATOM     80  N5  non d ame     -31.548  11.345  30.962  0.00  0.00    -0.049 N 
ATOM     81  H40 non d ame     -33.526  10.585  30.731  0.00  0.00     0.075 H 
ATOM     82  H41 non d ame     -32.228   9.921  29.531  0.00  0.00     0.075 H 
ATOM     83  C28 non d ame     -31.040  12.656  30.170  0.00  0.00     0.193 C 
ATOM     84  H42 non d ame     -31.984  11.639  31.825  0.00  0.00     0.280 HD
ATOM     85  H43 non d ame     -30.798  10.669  30.981  0.00  0.00     0.280 HD
ATOM     86  H44 non d ame     -30.098  12.642  29.622  0.00  0.00     0.129 H 
ATOM     87  H37 non d ame     -31.141  12.872  28.395  0.00  0.00     0.046 H 
BRANCH  83  88
ATOM     88  O6  non d ame     -30.944  13.766  31.065  0.00  0.00    -0.369 OA
ATOM     89  H45 non d ame     -30.025  14.032  31.147  0.00  0.00     0.212 HD
ENDBRANCH  83  88
ENDBRANCH  72  75
ENDBRANCH  47  72
ENDBRANCH  45  47
ENDBRANCH   1  43
BRANCH   1  90
ATOM     90  C16 non d ame     -30.823  14.851  23.456  0.00  0.00    -0.035 C 
ATOM     91  H21 non d ame     -31.807  14.852  22.987  0.00  0.00     0.037 H 
ATOM     92  H22 non d ame     -30.417  15.773  23.871  0.00  0.00     0.037 H 
BRANCH  90  93
ATOM     93  C17 non d ame     -29.814  14.376  22.363  0.00  0.00    -0.059 C 
ATOM     94  H23 non d ame     -29.778  13.288  22.397  0.00  0.00     0.038 H 
BRANCH  93  95
ATOM     95  C18 non d ame     -30.262  14.794  20.926  0.00  0.00    -0.073 C 
ATOM     96  H24 non d ame     -30.412  13.903  20.318  0.00  0.00     0.028 H 
ATOM     97  H25 non d ame     -31.195  15.355  20.985  0.00  0.00     0.028 H 
ATOM     98  H26 non d ame     -29.492  15.418  20.472  0.00  0.00     0.028 H 
ENDBRANCH  93  95
BRANCH  93  99
ATOM     99  C19 non d ame     -28.402  14.888  22.664  0.00  0.00    -0.073 C 
ATOM    100  H27 non d ame     -28.416  15.475  23.582  0.00  0.00     0.028 H 
ATOM    101  H28 non d ame     -27.727  14.040  22.785  0.00  0.00     0.028 H 
ATOM    102  H29 non d ame     -28.058  15.511  21.839  0.00  0.00     0.028 H 
ENDBRANCH  93  99
ENDBRANCH  90  93
ENDBRANCH   1  90
TORSDOF 26
ENDMDL
MODEL 9
REMARK VINA RESULT:      -6.7      2.336      5.278
REMARK  26 active torsions:
REMARK  status: ('A' for Active; 'I' for Inactive)
REMARK    1  A    between atoms: C2_2  and  C3_3 
REMARK    2  A    between atoms: C4_6  and  C5_7 
REMARK       I    between atoms: C5_7  and  N2_9 
REMARK    3  A    between atoms: N2_9  and  C6_10 
REMARK    4  A    between atoms: C6_10  and  C7_11 
REMARK    5  A    between atoms: C6_10  and  C8_13 
REMARK       I    between atoms: C7_11  and  N3_14 
REMARK    6  A    between atoms: N3_14  and  C9_15 
REMARK    7  A    between atoms: C9_15  and  C10_16 
REMARK    8  A    between atoms: C9_15  and  C11_18 
REMARK       I    between atoms: C10_16  and  N4_21 
REMARK    9  A    between atoms: C11_18  and  C12_19 
REMARK   10  A    between atoms: C11_18  and  C13_20 
REMARK   11  A    between atoms: N4_21  and  C14_22 
REMARK   12  A    between atoms: C14_22  and  C15_23 
REMARK   13  A    between atoms: C14_22  and  C16_25 
REMARK       I    between atoms: C15_23  and  N6_40 
REMARK   14  A    between atoms: C16_25  and  C17_26 
REMARK   15  A    between atoms: C17_26  and  C18_27 
REMARK   16  A    between atoms: C17_26  and  C19_28 
REMARK   17  A    between atoms: C20_29  and  C21_30 
REMARK   18  A    between atoms: C20_29  and  C24_33 
REMARK   19  A    between atoms: C20_29  and  N6_40 
REMARK   20  A    between atoms: C21_30  and  C22_31 
REMARK   21  A    between atoms: C22_31  and  C23_32 
REMARK   22  A    between atoms: C23_32  and  O8_43 
REMARK   23  A    between atoms: C24_33  and  C25_34 
REMARK   24  A    between atoms: C28_38  and  O6_39 
REMARK   25  A    between atoms: C29_42  and  O8_43 
REMARK   26  A    between atoms: C29_42  and  C35_49 
ROOT
ATOM      1  C14 non d ame     -33.068  10.295  26.258  0.00  0.00     0.089 C 
ATOM      2  H20 non d ame     -33.801  10.642  25.529  0.00  0.00     0.087 H 
ENDROOT
BRANCH   1   3
ATOM      3  N4  non d ame     -32.332   9.196  25.650  0.00  0.00    -0.346 N 
ATOM      4  C10 non d ame     -33.030   8.231  24.726  0.00  0.00     0.241 C 
ATOM      5  O4  non d ame     -34.186   8.357  24.489  0.00  0.00    -0.271 OA
ATOM      6  H19 non d ame     -31.349   9.105  25.867  0.00  0.00     0.163 HD
BRANCH   4   7
ATOM      7  C9  non d ame     -32.252   7.103  24.102  0.00  0.00     0.092 C 
ATOM      8  H11 non d ame     -32.779   6.751  23.215  0.00  0.00     0.088 H 
BRANCH   7   9
ATOM      9  N3  non d ame     -30.944   7.597  23.660  0.00  0.00    -0.346 N 
ATOM     10  C7  non d ame     -30.758   8.021  22.295  0.00  0.00     0.240 C 
ATOM     11  O3  non d ame     -31.649   7.971  21.537  0.00  0.00    -0.271 OA
ATOM     12  H10 non d ame     -30.165   7.644  24.302  0.00  0.00     0.163 HD
BRANCH  10  13
ATOM     13  C6  non d ame     -29.362   8.543  21.830  0.00  0.00     0.086 C 
ATOM     14  H6  non d ame     -29.062   8.139  20.863  0.00  0.00     0.086 H 
BRANCH  13  15
ATOM     15  N2  non d ame     -29.427   9.987  21.676  0.00  0.00    -0.343 N 
ATOM     16  C5  non d ame     -29.900  10.811  22.790  0.00  0.00     0.273 C 
ATOM     17  O2  non d ame     -30.229  10.302  23.805  0.00  0.00    -0.266 OA
ATOM     18  H5  non d ame     -29.145  10.413  20.804  0.00  0.00     0.163 HD
BRANCH  16  19
ATOM     19  C4  non d ame     -29.971  12.339  22.642  0.00  0.00     0.154 A 
ATOM     20  C1  non d ame     -30.719  13.252  23.451  0.00  0.00    -0.017 A 
ATOM     21  C2  non d ame     -30.447  14.527  22.906  0.00  0.00     0.077 A 
ATOM     22  H1  non d ame     -31.361  13.025  24.303  0.00  0.00     0.091 H 
ATOM     23  O1  non d ame     -29.637  14.355  21.904  0.00  0.00    -0.218 OA
ATOM     24  N1  non d ame     -29.345  13.086  21.730  0.00  0.00    -0.123 NA
BRANCH  21  25
ATOM     25  C3  non d ame     -31.001  15.856  23.403  0.00  0.00    -0.029 C 
ATOM     26  H2  non d ame     -30.629  16.663  22.772  0.00  0.00     0.036 H 
ATOM     27  H3  non d ame     -32.090  15.834  23.360  0.00  0.00     0.036 H 
ATOM     28  H4  non d ame     -30.681  16.022  24.431  0.00  0.00     0.036 H 
ENDBRANCH  21  25
ENDBRANCH  16  19
ENDBRANCH  13  15
BRANCH  13  29
ATOM     29  C8  non d ame     -28.319   8.179  22.856  0.00  0.00    -0.049 C 
ATOM     30  H7  non d ame     -28.805   7.741  23.728  0.00  0.00     0.030 H 
ATOM     31  H8  non d ame     -27.625   7.457  22.427  0.00  0.00     0.030 H 
ATOM     32  H9  non d ame     -27.775   9.075  23.155  0.00  0.00     0.030 H 
ENDBRANCH  13  29
ENDBRANCH  10  13
ENDBRANCH   7   9
BRANCH   7  33
ATOM     33  C11 non d ame     -32.048   5.970  25.150  0.00  0.00    -0.033 C 
ATOM     34  H12 non d ame     -31.055   5.550  24.992  0.00  0.00     0.042 H 
BRANCH  33  35
ATOM     35  C12 non d ame     -32.095   6.529  26.607  0.00  0.00    -0.071 C 
ATOM     36  H13 non d ame     -33.116   6.474  26.985  0.00  0.00     0.028 H 
ATOM     37  H14 non d ame     -31.440   5.936  27.244  0.00  0.00     0.028 H 
ATOM     38  H15 non d ame     -31.763   7.567  26.608  0.00  0.00     0.028 H 
ENDBRANCH  33  35
BRANCH  33  39
ATOM     39  C13 non d ame     -33.094   4.827  24.949  0.00  0.00    -0.071 C 
ATOM     40  H16 non d ame     -33.410   4.803  23.905  0.00  0.00     0.028 H 
ATOM     41  H17 non d ame     -32.643   3.870  25.214  0.00  0.00     0.028 H 
ATOM     42  H18 non d ame     -33.959   5.008  25.587  0.00  0.00     0.028 H 
ENDBRANCH  33  39
ENDBRANCH   7  33
ENDBRANCH   4   7
ENDBRANCH   1   3
BRANCH   1  43
ATOM     43  C15 non d ame     -32.058  11.411  26.650  0.00  0.00     0.240 C 
ATOM     44  O5  non d ame     -30.892  11.230  26.506  0.00  0.00    -0.271 OA
ATOM     45  N6  non d ame     -32.544  12.709  27.198  0.00  0.00    -0.355 N 
ATOM     46  H46 non d ame     -33.532  12.876  27.321  0.00  0.00     0.162 HD
BRANCH  45  47
ATOM     47  C20 non d ame     -31.571  13.760  27.565  0.00  0.00     0.013 C 
ATOM     48  H30 non d ame     -30.633  13.542  27.056  0.00  0.00     0.072 H 
BRANCH  47  49
ATOM     49  C21 non d ame     -31.361  13.746  29.063  0.00  0.00    -0.038 C 
ATOM     50  H31 non d ame     -30.417  13.224  29.223  0.00  0.00     0.036 H 
ATOM     51  H32 non d ame     -31.473  14.781  29.385  0.00  0.00     0.036 H 
BRANCH  49  52
ATOM     52  C22 non d ame     -32.441  12.935  29.812  0.00  0.00     0.018 C 
ATOM     53  H33 non d ame     -32.878  13.623  30.534  0.00  0.00     0.048 H 
ATOM     54  H34 non d ame     -33.065  12.489  29.037  0.00  0.00     0.048 H 
BRANCH  52  55
ATOM     55  C23 non d ame     -31.872  11.749  30.639  0.00  0.00     0.259 C 
ATOM     56  O7  non d ame     -30.728  11.730  30.958  0.00  0.00    -0.265 OA
BRANCH  55  57
ATOM     57  O8  non d ame     -32.733  10.677  31.002  0.00  0.00    -0.317 OA
BRANCH  57  58
ATOM     58  C29 non d ame     -33.983  11.096  31.557  0.00  0.00     0.052 C 
ATOM     59  H47 non d ame     -33.784  11.308  32.607  0.00  0.00     0.082 H 
ATOM     60  H48 non d ame     -34.347  11.887  30.901  0.00  0.00     0.082 H 
BRANCH  58  61
ATOM     61  C35 non d ame     -34.968   9.899  31.476  0.00  0.00    -0.034 A 
ATOM     62  C30 non d ame     -36.326  10.098  31.705  0.00  0.00    -0.075 A 
ATOM     63  C31 non d ame     -37.211   9.024  31.633  0.00  0.00    -0.082 A 
ATOM     64  H49 non d ame     -36.697  11.096  31.941  0.00  0.00     0.084 H 
ATOM     65  C32 non d ame     -36.733   7.745  31.333  0.00  0.00    -0.083 A 
ATOM     66  H50 non d ame     -38.275   9.183  31.811  0.00  0.00     0.083 H 
ATOM     67  C33 non d ame     -35.377   7.551  31.109  0.00  0.00    -0.082 A 
ATOM     68  H51 non d ame     -37.418   6.899  31.274  0.00  0.00     0.083 H 
ATOM     69  C34 non d ame     -34.489   8.622  31.178  0.00  0.00    -0.075 A 
ATOM     70  H52 non d ame     -35.007   6.552  30.878  0.00  0.00     0.083 H 
ATOM     71  H53 non d ame     -33.425   8.462  31.000  0.00  0.00     0.084 H 
ENDBRANCH  58  61
ENDBRANCH  57  58
ENDBRANCH  55  57
ENDBRANCH  52  55
ENDBRANCH  49  52
ENDBRANCH  47  49
BRANCH  47  72
ATOM     72  C24 non d ame     -32.102  15.127  27.138  0.00  0.00    -0.039 C 
ATOM     73  H35 non d ame     -31.840  15.807  27.950  0.00  0.00     0.036 H 
ATOM     74  H36 non d ame     -31.701  15.294  26.138  0.00  0.00     0.036 H 
BRANCH  72  75
ATOM     75  C25 non d ame     -33.699  15.131  27.015  0.00  0.00    -0.001 C 
ATOM     76  C26 non d ame     -34.141  15.512  25.477  0.00  0.00    -0.035 C 
ATOM     77  C27 non d ame     -35.047  16.519  25.521  0.00  0.00     0.085 C 
ATOM     78  H38 non d ame     -33.298  15.951  24.944  0.00  0.00     0.036 H 
ATOM     79  H39 non d ame     -34.697  14.687  25.033  0.00  0.00     0.036 H 
ATOM     80  N5  non d ame     -35.018  17.079  26.922  0.00  0.00    -0.049 N 
ATOM     81  H40 non d ame     -34.675  17.274  24.828  0.00  0.00     0.075 H 
ATOM     82  H41 non d ame     -36.013  16.048  25.346  0.00  0.00     0.075 H 
ATOM     83  C28 non d ame     -34.228  15.993  27.818  0.00  0.00     0.193 C 
ATOM     84  H42 non d ame     -34.467  17.924  26.881  0.00  0.00     0.280 HD
ATOM     85  H43 non d ame     -35.978  17.116  27.234  0.00  0.00     0.280 HD
ATOM     86  H44 non d ame     -34.771  15.329  28.491  0.00  0.00     0.129 H 
ATOM     87  H37 non d ame     -34.149  14.241  27.454  0.00  0.00     0.046 H 
BRANCH  83  88
ATOM     88  O6  non d ame     -33.249  16.643  28.631  0.00  0.00    -0.369 OA
ATOM     89  H45 non d ame     -33.689  17.139  29.326  0.00  0.00     0.212 HD
ENDBRANCH  83  88
ENDBRANCH  72  75
ENDBRANCH  47  72
ENDBRANCH  45  47
ENDBRANCH   1  43
BRANCH   1  90
ATOM     90  C16 non d ame     -33.779   9.788  27.502  0.00  0.00    -0.035 C 
ATOM     91  H21 non d ame     -33.403   8.777  27.658  0.00  0.00     0.037 H 
ATOM     92  H22 non d ame     -33.614  10.554  28.261  0.00  0.00     0.037 H 
BRANCH  90  93
ATOM     93  C17 non d ame     -35.326   9.661  27.332  0.00  0.00    -0.059 C 
ATOM     94  H23 non d ame     -35.563   9.871  26.289  0.00  0.00     0.038 H 
BRANCH  93  95
ATOM     95  C18 non d ame     -35.838   8.221  27.656  0.00  0.00    -0.073 C 
ATOM     96  H24 non d ame     -35.171   7.488  27.204  0.00  0.00     0.028 H 
ATOM     97  H25 non d ame     -35.857   8.076  28.736  0.00  0.00     0.028 H 
ATOM     98  H26 non d ame     -36.843   8.094  27.255  0.00  0.00     0.028 H 
ENDBRANCH  93  95
BRANCH  93  99
ATOM     99  C19 non d ame     -36.057  10.703  28.183  0.00  0.00    -0.073 C 
ATOM    100  H27 non d ame     -36.985  10.990  27.688  0.00  0.00     0.028 H 
ATOM    101  H28 non d ame     -36.283  10.280  29.162  0.00  0.00     0.028 H 
ATOM    102  H29 non d ame     -35.424  11.581  28.305  0.00  0.00     0.028 H 
ENDBRANCH  93  99
ENDBRANCH  90  93
ENDBRANCH   1  90
TORSDOF 26
ENDMDL
MODEL 10
REMARK VINA RESULT:      -6.7      2.388      6.218
REMARK  26 active torsions:
REMARK  status: ('A' for Active; 'I' for Inactive)
REMARK    1  A    between atoms: C2_2  and  C3_3 
REMARK    2  A    between atoms: C4_6  and  C5_7 
REMARK       I    between atoms: C5_7  and  N2_9 
REMARK    3  A    between atoms: N2_9  and  C6_10 
REMARK    4  A    between atoms: C6_10  and  C7_11 
REMARK    5  A    between atoms: C6_10  and  C8_13 
REMARK       I    between atoms: C7_11  and  N3_14 
REMARK    6  A    between atoms: N3_14  and  C9_15 
REMARK    7  A    between atoms: C9_15  and  C10_16 
REMARK    8  A    between atoms: C9_15  and  C11_18 
REMARK       I    between atoms: C10_16  and  N4_21 
REMARK    9  A    between atoms: C11_18  and  C12_19 
REMARK   10  A    between atoms: C11_18  and  C13_20 
REMARK   11  A    between atoms: N4_21  and  C14_22 
REMARK   12  A    between atoms: C14_22  and  C15_23 
REMARK   13  A    between atoms: C14_22  and  C16_25 
REMARK       I    between atoms: C15_23  and  N6_40 
REMARK   14  A    between atoms: C16_25  and  C17_26 
REMARK   15  A    between atoms: C17_26  and  C18_27 
REMARK   16  A    between atoms: C17_26  and  C19_28 
REMARK   17  A    between atoms: C20_29  and  C21_30 
REMARK   18  A    between atoms: C20_29  and  C24_33 
REMARK   19  A    between atoms: C20_29  and  N6_40 
REMARK   20  A    between atoms: C21_30  and  C22_31 
REMARK   21  A    between atoms: C22_31  and  C23_32 
REMARK   22  A    between atoms: C23_32  and  O8_43 
REMARK   23  A    between atoms: C24_33  and  C25_34 
REMARK   24  A    between atoms: C28_38  and  O6_39 
REMARK   25  A    between atoms: C29_42  and  O8_43 
REMARK   26  A    between atoms: C29_42  and  C35_49 
ROOT
ATOM      1  C14 non d ame     -31.166  14.081  24.581  0.00  0.00     0.089 C 
ATOM      2  H20 non d ame     -30.209  14.035  25.101  0.00  0.00     0.087 H 
ENDROOT
BRANCH   1   3
ATOM      3  N4  non d ame     -31.508  12.727  24.172  0.00  0.00    -0.346 N 
ATOM      4  C10 non d ame     -31.284  11.568  25.111  0.00  0.00     0.241 C 
ATOM      5  O4  non d ame     -30.824  11.749  26.190  0.00  0.00    -0.271 OA
ATOM      6  H19 non d ame     -31.896  12.593  23.249  0.00  0.00     0.163 HD
BRANCH   4   7
ATOM      7  C9  non d ame     -31.648  10.173  24.672  0.00  0.00     0.092 C 
ATOM      8  H11 non d ame     -30.972   9.461  25.145  0.00  0.00     0.088 H 
BRANCH   7   9
ATOM      9  N3  non d ame     -33.004   9.855  25.131  0.00  0.00    -0.346 N 
ATOM     10  C7  non d ame     -33.227   8.711  25.981  0.00  0.00     0.240 C 
ATOM     11  O3  non d ame     -32.327   8.035  26.303  0.00  0.00    -0.271 OA
ATOM     12  H10 non d ame     -33.790  10.428  24.860  0.00  0.00     0.163 HD
BRANCH  10  13
ATOM     13  C6  non d ame     -34.672   8.376  26.463  0.00  0.00     0.086 C 
ATOM     14  H6  non d ame     -34.857   7.304  26.527  0.00  0.00     0.086 H 
BRANCH  13  15
ATOM     15  N2  non d ame     -34.858   8.910  27.802  0.00  0.00    -0.343 N 
ATOM     16  C5  non d ame     -34.669   8.035  28.961  0.00  0.00     0.273 C 
ATOM     17  O2  non d ame     -34.371   6.902  28.805  0.00  0.00    -0.266 OA
ATOM     18  H5  non d ame     -35.115   9.879  27.926  0.00  0.00     0.163 HD
BRANCH  16  19
ATOM     19  C4  non d ame     -34.860   8.587  30.382  0.00  0.00     0.154 A 
ATOM     20  C1  non d ame     -35.112   9.945  30.756  0.00  0.00    -0.017 A 
ATOM     21  C2  non d ame     -35.208   9.923  32.165  0.00  0.00     0.077 A 
ATOM     22  H1  non d ame     -35.211  10.814  30.104  0.00  0.00     0.091 H 
ATOM     23  O1  non d ame     -35.032   8.692  32.546  0.00  0.00    -0.218 OA
ATOM     24  N1  non d ame     -34.827   7.893  31.524  0.00  0.00    -0.123 NA
BRANCH  21  25
ATOM     25  C3  non d ame     -35.470  11.120  33.070  0.00  0.00    -0.029 C 
ATOM     26  H2  non d ame     -36.534  11.176  33.298  0.00  0.00     0.036 H 
ATOM     27  H3  non d ame     -34.906  11.006  33.995  0.00  0.00     0.036 H 
ATOM     28  H4  non d ame     -35.158  12.033  32.564  0.00  0.00     0.036 H 
ENDBRANCH  21  25
ENDBRANCH  16  19
ENDBRANCH  13  15
BRANCH  13  29
ATOM     29  C8  non d ame     -35.675   8.988  25.519  0.00  0.00    -0.049 C 
ATOM     30  H7  non d ame     -35.983   8.244  24.784  0.00  0.00     0.030 H 
ATOM     31  H8  non d ame     -36.545   9.325  26.082  0.00  0.00     0.030 H 
ATOM     32  H9  non d ame     -35.222   9.837  25.008  0.00  0.00     0.030 H 
ENDBRANCH  13  29
ENDBRANCH  10  13
ENDBRANCH   7   9
BRANCH   7  33
ATOM     33  C11 non d ame     -31.596  10.088  23.119  0.00  0.00    -0.033 C 
ATOM     34  H12 non d ame     -31.994  11.023  22.725  0.00  0.00     0.042 H 
BRANCH  33  35
ATOM     35  C12 non d ame     -30.129   9.949  22.606  0.00  0.00    -0.071 C 
ATOM     36  H13 non d ame     -29.812  10.888  22.152  0.00  0.00     0.028 H 
ATOM     37  H14 non d ame     -29.473   9.710  23.443  0.00  0.00     0.028 H 
ATOM     38  H15 non d ame     -30.077   9.152  21.864  0.00  0.00     0.028 H 
ENDBRANCH  33  35
BRANCH  33  39
ATOM     39  C13 non d ame     -32.493   8.921  22.593  0.00  0.00    -0.071 C 
ATOM     40  H16 non d ame     -32.037   7.966  22.855  0.00  0.00     0.028 H 
ATOM     41  H17 non d ame     -33.482   8.990  23.047  0.00  0.00     0.028 H 
ATOM     42  H18 non d ame     -32.586   8.995  21.509  0.00  0.00     0.028 H 
ENDBRANCH  33  39
ENDBRANCH   7  33
ENDBRANCH   4   7
ENDBRANCH   1   3
BRANCH   1  43
ATOM     43  C15 non d ame     -32.303  14.624  25.493  0.00  0.00     0.240 C 
ATOM     44  O5  non d ame     -33.435  14.347  25.256  0.00  0.00    -0.271 OA
ATOM     45  N6  non d ame     -31.981  15.483  26.668  0.00  0.00    -0.355 N 
ATOM     46  H46 non d ame     -31.024  15.721  26.883  0.00  0.00     0.162 HD
BRANCH  45  47
ATOM     47  C20 non d ame     -33.073  15.991  27.526  0.00  0.00     0.013 C 
ATOM     48  H30 non d ame     -34.019  15.771  27.031  0.00  0.00     0.072 H 
BRANCH  47  49
ATOM     49  C21 non d ame     -32.917  17.484  27.703  0.00  0.00    -0.038 C 
ATOM     50  H31 non d ame     -33.894  17.847  28.023  0.00  0.00     0.036 H 
ATOM     51  H32 non d ame     -32.048  17.615  28.348  0.00  0.00     0.036 H 
BRANCH  49  52
ATOM     52  C22 non d ame     -32.593  18.213  26.381  0.00  0.00     0.018 C 
ATOM     53  H33 non d ame     -31.512  18.348  26.375  0.00  0.00     0.048 H 
ATOM     54  H34 non d ame     -33.074  17.629  25.596  0.00  0.00     0.048 H 
BRANCH  52  55
ATOM     55  C23 non d ame     -33.202  19.640  26.287  0.00  0.00     0.259 C 
ATOM     56  O7  non d ame     -32.899  20.368  25.397  0.00  0.00    -0.265 OA
BRANCH  55  57
ATOM     57  O8  non d ame     -34.118  20.074  27.285  0.00  0.00    -0.317 OA
BRANCH  57  58
ATOM     58  C29 non d ame     -35.439  20.321  26.795  0.00  0.00     0.052 C 
ATOM     59  H47 non d ame     -35.962  20.833  27.603  0.00  0.00     0.082 H 
ATOM     60  H48 non d ame     -35.309  20.815  25.832  0.00  0.00     0.082 H 
BRANCH  58  61
ATOM     61  C35 non d ame     -36.125  18.950  26.556  0.00  0.00    -0.034 A 
ATOM     62  C30 non d ame     -36.451  18.551  25.264  0.00  0.00    -0.075 A 
ATOM     63  C31 non d ame     -37.068  17.319  25.048  0.00  0.00    -0.082 A 
ATOM     64  H49 non d ame     -36.224  19.203  24.420  0.00  0.00     0.084 H 
ATOM     65  C32 non d ame     -37.361  16.487  26.132  0.00  0.00    -0.083 A 
ATOM     66  H50 non d ame     -37.321  17.009  24.034  0.00  0.00     0.083 H 
ATOM     67  C33 non d ame     -37.037  16.891  27.419  0.00  0.00    -0.082 A 
ATOM     68  H51 non d ame     -37.843  15.522  25.972  0.00  0.00     0.083 H 
ATOM     69  C34 non d ame     -36.418  18.120  27.639  0.00  0.00    -0.075 A 
ATOM     70  H52 non d ame     -37.269  16.240  28.263  0.00  0.00     0.083 H 
ATOM     71  H53 non d ame     -36.166  18.430  28.653  0.00  0.00     0.084 H 
ENDBRANCH  58  61
ENDBRANCH  57  58
ENDBRANCH  55  57
ENDBRANCH  52  55
ENDBRANCH  49  52
ENDBRANCH  47  49
BRANCH  47  72
ATOM     72  C24 non d ame     -33.018  15.308  28.891  0.00  0.00    -0.039 C 
ATOM     73  H35 non d ame     -32.935  16.117  29.617  0.00  0.00     0.036 H 
ATOM     74  H36 non d ame     -33.880  14.640  28.916  0.00  0.00     0.036 H 
BRANCH  72  75
ATOM     75  C25 non d ame     -31.709  14.397  29.045  0.00  0.00    -0.001 C 
ATOM     76  C26 non d ame     -32.136  12.877  29.505  0.00  0.00    -0.035 C 
ATOM     77  C27 non d ame     -31.403  12.527  30.589  0.00  0.00     0.085 C 
ATOM     78  H38 non d ame     -33.160  12.872  29.877  0.00  0.00     0.036 H 
ATOM     79  H39 non d ame     -31.829  12.157  28.746  0.00  0.00     0.036 H 
ATOM     80  N5  non d ame     -30.753  13.787  31.108  0.00  0.00    -0.049 N 
ATOM     81  H40 non d ame     -32.124  12.169  31.324  0.00  0.00     0.075 H 
ATOM     82  H41 non d ame     -30.630  11.857  30.214  0.00  0.00     0.075 H 
ATOM     83  C28 non d ame     -30.905  14.881  29.931  0.00  0.00     0.193 C 
ATOM     84  H42 non d ame     -31.303  14.087  31.900  0.00  0.00     0.280 HD
ATOM     85  H43 non d ame     -29.773  13.574  31.226  0.00  0.00     0.280 HD
ATOM     86  H44 non d ame     -30.052  15.141  29.304  0.00  0.00     0.129 H 
ATOM     87  H37 non d ame     -31.040  14.487  28.189  0.00  0.00     0.046 H 
BRANCH  83  88
ATOM     88  O6  non d ame     -31.375  16.119  30.468  0.00  0.00    -0.369 OA
ATOM     89  H45 non d ame     -30.644  16.591  30.874  0.00  0.00     0.212 HD
ENDBRANCH  83  88
ENDBRANCH  72  75
ENDBRANCH  47  72
ENDBRANCH  45  47
ENDBRANCH   1  43
BRANCH   1  90
ATOM     90  C16 non d ame     -31.040  14.956  23.345  0.00  0.00    -0.035 C 
ATOM     91  H21 non d ame     -32.023  14.935  22.875  0.00  0.00     0.037 H 
ATOM     92  H22 non d ame     -30.626  15.899  23.700  0.00  0.00     0.037 H 
BRANCH  90  93
ATOM     93  C17 non d ame     -30.035  14.403  22.285  0.00  0.00    -0.059 C 
ATOM     94  H23 non d ame     -30.125  13.316  22.279  0.00  0.00     0.038 H 
BRANCH  93  95
ATOM     95  C18 non d ame     -30.355  14.916  20.845  0.00  0.00    -0.073 C 
ATOM     96  H24 non d ame     -29.424  15.122  20.317  0.00  0.00     0.028 H 
ATOM     97  H25 non d ame     -30.917  14.155  20.304  0.00  0.00     0.028 H 
ATOM     98  H26 non d ame     -30.946  15.829  20.908  0.00  0.00     0.028 H 
ENDBRANCH  93  95
BRANCH  93  99
ATOM     99  C19 non d ame     -28.592  14.736  22.674  0.00  0.00    -0.073 C 
ATOM    100  H27 non d ame     -28.583  15.234  23.645  0.00  0.00     0.028 H 
ATOM    101  H28 non d ame     -28.009  13.817  22.732  0.00  0.00     0.028 H 
ATOM    102  H29 non d ame     -28.157  15.395  21.924  0.00  0.00     0.028 H 
ENDBRANCH  93  99
ENDBRANCH  90  93
ENDBRANCH   1  90
TORSDOF 26
ENDMDL
MODEL 11
REMARK VINA RESULT:      -6.6      2.730      7.147
REMARK  26 active torsions:
REMARK  status: ('A' for Active; 'I' for Inactive)
REMARK    1  A    between atoms: C2_2  and  C3_3 
REMARK    2  A    between atoms: C4_6  and  C5_7 
REMARK       I    between atoms: C5_7  and  N2_9 
REMARK    3  A    between atoms: N2_9  and  C6_10 
REMARK    4  A    between atoms: C6_10  and  C7_11 
REMARK    5  A    between atoms: C6_10  and  C8_13 
REMARK       I    between atoms: C7_11  and  N3_14 
REMARK    6  A    between atoms: N3_14  and  C9_15 
REMARK    7  A    between atoms: C9_15  and  C10_16 
REMARK    8  A    between atoms: C9_15  and  C11_18 
REMARK       I    between atoms: C10_16  and  N4_21 
REMARK    9  A    between atoms: C11_18  and  C12_19 
REMARK   10  A    between atoms: C11_18  and  C13_20 
REMARK   11  A    between atoms: N4_21  and  C14_22 
REMARK   12  A    between atoms: C14_22  and  C15_23 
REMARK   13  A    between atoms: C14_22  and  C16_25 
REMARK       I    between atoms: C15_23  and  N6_40 
REMARK   14  A    between atoms: C16_25  and  C17_26 
REMARK   15  A    between atoms: C17_26  and  C18_27 
REMARK   16  A    between atoms: C17_26  and  C19_28 
REMARK   17  A    between atoms: C20_29  and  C21_30 
REMARK   18  A    between atoms: C20_29  and  C24_33 
REMARK   19  A    between atoms: C20_29  and  N6_40 
REMARK   20  A    between atoms: C21_30  and  C22_31 
REMARK   21  A    between atoms: C22_31  and  C23_32 
REMARK   22  A    between atoms: C23_32  and  O8_43 
REMARK   23  A    between atoms: C24_33  and  C25_34 
REMARK   24  A    between atoms: C28_38  and  O6_39 
REMARK   25  A    between atoms: C29_42  and  O8_43 
REMARK   26  A    between atoms: C29_42  and  C35_49 
ROOT
ATOM      1  C14 non d ame     -31.114  13.847  24.750  0.00  0.00     0.089 C 
ATOM      2  H20 non d ame     -30.119  13.779  25.191  0.00  0.00     0.087 H 
ENDROOT
BRANCH   1   3
ATOM      3  N4  non d ame     -31.455  12.531  24.230  0.00  0.00    -0.346 N 
ATOM      4  C10 non d ame     -31.233  11.299  25.071  0.00  0.00     0.241 C 
ATOM      5  O4  non d ame     -30.775  11.392  26.162  0.00  0.00    -0.271 OA
ATOM      6  H19 non d ame     -31.841  12.474  23.299  0.00  0.00     0.163 HD
BRANCH   4   7
ATOM      7  C9  non d ame     -31.596   9.946  24.519  0.00  0.00     0.092 C 
ATOM      8  H11 non d ame     -30.949   9.191  24.965  0.00  0.00     0.088 H 
BRANCH   7   9
ATOM      9  N3  non d ame     -32.973   9.616  24.900  0.00  0.00    -0.346 N 
ATOM     10  C7  non d ame     -33.230   8.503  25.781  0.00  0.00     0.240 C 
ATOM     11  O3  non d ame     -32.341   7.861  26.191  0.00  0.00    -0.271 OA
ATOM     12  H10 non d ame     -33.750  10.160  24.554  0.00  0.00     0.163 HD
BRANCH  10  13
ATOM     13  C6  non d ame     -34.697   8.155  26.181  0.00  0.00     0.086 C 
ATOM     14  H6  non d ame     -35.064   7.252  25.693  0.00  0.00     0.086 H 
BRANCH  13  15
ATOM     15  N2  non d ame     -34.749   7.905  27.612  0.00  0.00    -0.343 N 
ATOM     16  C5  non d ame     -34.829   6.527  28.101  0.00  0.00     0.273 C 
ATOM     17  O2  non d ame     -34.854   5.627  27.336  0.00  0.00    -0.266 OA
ATOM     18  H5  non d ame     -34.731   8.681  28.259  0.00  0.00     0.163 HD
BRANCH  16  19
ATOM     19  C4  non d ame     -34.883   6.249  29.611  0.00  0.00     0.154 A 
ATOM     20  C1  non d ame     -34.423   5.077  30.291  0.00  0.00    -0.017 A 
ATOM     21  C2  non d ame     -34.699   5.316  31.656  0.00  0.00     0.077 A 
ATOM     22  H1  non d ame     -33.960   4.189  29.861  0.00  0.00     0.091 H 
ATOM     23  O1  non d ame     -35.251   6.491  31.739  0.00  0.00    -0.218 OA
ATOM     24  N1  non d ame     -35.370   7.055  30.559  0.00  0.00    -0.123 NA
BRANCH  21  25
ATOM     25  C3  non d ame     -34.404   4.373  32.815  0.00  0.00    -0.029 C 
ATOM     26  H2  non d ame     -34.654   3.353  32.526  0.00  0.00     0.036 H 
ATOM     27  H3  non d ame     -33.345   4.430  33.067  0.00  0.00     0.036 H 
ATOM     28  H4  non d ame     -34.999   4.663  33.680  0.00  0.00     0.036 H 
ENDBRANCH  21  25
ENDBRANCH  16  19
ENDBRANCH  13  15
BRANCH  13  29
ATOM     29  C8  non d ame     -35.604   9.305  25.824  0.00  0.00    -0.049 C 
ATOM     30  H7  non d ame     -35.341   9.682  24.835  0.00  0.00     0.030 H 
ATOM     31  H8  non d ame     -36.639   8.963  25.818  0.00  0.00     0.030 H 
ATOM     32  H9  non d ame     -35.489  10.101  26.559  0.00  0.00     0.030 H 
ENDBRANCH  13  29
ENDBRANCH  10  13
ENDBRANCH   7   9
BRANCH   7  33
ATOM     33  C11 non d ame     -31.483   9.971  22.967  0.00  0.00    -0.033 C 
ATOM     34  H12 non d ame     -31.917  10.910  22.621  0.00  0.00     0.042 H 
BRANCH  33  35
ATOM     35  C12 non d ame     -29.993   9.945  22.505  0.00  0.00    -0.071 C 
ATOM     36  H13 non d ame     -29.835  10.707  21.741  0.00  0.00     0.028 H 
ATOM     37  H14 non d ame     -29.345  10.146  23.358  0.00  0.00     0.028 H 
ATOM     38  H15 non d ame     -29.757   8.964  22.093  0.00  0.00     0.028 H 
ENDBRANCH  33  35
BRANCH  33  39
ATOM     39  C13 non d ame     -32.295   8.799  22.327  0.00  0.00    -0.071 C 
ATOM     40  H16 non d ame     -31.619   7.980  22.083  0.00  0.00     0.028 H 
ATOM     41  H17 non d ame     -33.049   8.451  23.034  0.00  0.00     0.028 H 
ATOM     42  H18 non d ame     -32.785   9.150  21.419  0.00  0.00     0.028 H 
ENDBRANCH  33  39
ENDBRANCH   7  33
ENDBRANCH   4   7
ENDBRANCH   1   3
BRANCH   1  43
ATOM     43  C15 non d ame     -32.192  14.262  25.793  0.00  0.00     0.240 C 
ATOM     44  O5  non d ame     -33.339  14.276  25.484  0.00  0.00    -0.271 OA
ATOM     45  N6  non d ame     -31.793  14.634  27.181  0.00  0.00    -0.355 N 
ATOM     46  H46 non d ame     -30.822  14.621  27.457  0.00  0.00     0.162 HD
BRANCH  45  47
ATOM     47  C20 non d ame     -32.830  15.025  28.161  0.00  0.00     0.013 C 
ATOM     48  H30 non d ame     -33.801  14.749  27.750  0.00  0.00     0.072 H 
BRANCH  47  49
ATOM     49  C21 non d ame     -32.768  16.519  28.384  0.00  0.00    -0.038 C 
ATOM     50  H31 non d ame     -33.102  16.678  29.409  0.00  0.00     0.036 H 
ATOM     51  H32 non d ame     -31.764  16.820  28.084  0.00  0.00     0.036 H 
BRANCH  49  52
ATOM     52  C22 non d ame     -33.746  17.300  27.480  0.00  0.00     0.018 C 
ATOM     53  H33 non d ame     -34.400  16.551  27.035  0.00  0.00     0.048 H 
ATOM     54  H34 non d ame     -34.165  18.086  28.108  0.00  0.00     0.048 H 
BRANCH  52  55
ATOM     55  C23 non d ame     -33.056  18.026  26.291  0.00  0.00     0.259 C 
ATOM     56  O7  non d ame     -32.104  17.548  25.763  0.00  0.00    -0.265 OA
BRANCH  55  57
ATOM     57  O8  non d ame     -33.568  19.276  25.846  0.00  0.00    -0.317 OA
BRANCH  57  58
ATOM     58  C29 non d ame     -34.199  20.046  26.874  0.00  0.00     0.052 C 
ATOM     59  H47 non d ame     -34.201  19.410  27.759  0.00  0.00     0.082 H 
ATOM     60  H48 non d ame     -33.675  21.001  26.890  0.00  0.00     0.082 H 
BRANCH  58  61
ATOM     61  C35 non d ame     -35.669  20.300  26.447  0.00  0.00    -0.034 A 
ATOM     62  C30 non d ame     -36.539  20.963  27.307  0.00  0.00    -0.075 A 
ATOM     63  C31 non d ame     -37.860  21.191  26.925  0.00  0.00    -0.082 A 
ATOM     64  H49 non d ame     -36.186  21.304  28.281  0.00  0.00     0.084 H 
ATOM     65  C32 non d ame     -38.311  20.751  25.677  0.00  0.00    -0.083 A 
ATOM     66  H50 non d ame     -38.539  21.712  27.600  0.00  0.00     0.083 H 
ATOM     67  C33 non d ame     -37.440  20.087  24.824  0.00  0.00    -0.082 A 
ATOM     68  H51 non d ame     -39.342  20.926  25.370  0.00  0.00     0.083 H 
ATOM     69  C34 non d ame     -36.119  19.858  25.202  0.00  0.00    -0.075 A 
ATOM     70  H52 non d ame     -37.796  19.742  23.853  0.00  0.00     0.083 H 
ATOM     71  H53 non d ame     -35.441  19.337  24.525  0.00  0.00     0.084 H 
ENDBRANCH  58  61
ENDBRANCH  57  58
ENDBRANCH  55  57
ENDBRANCH  52  55
ENDBRANCH  49  52
ENDBRANCH  47  49
BRANCH  47  72
ATOM     72  C24 non d ame     -32.588  14.301  29.484  0.00  0.00    -0.039 C 
ATOM     73  H35 non d ame     -31.883  14.926  30.032  0.00  0.00     0.036 H 
ATOM     74  H36 non d ame     -33.580  14.110  29.895  0.00  0.00     0.036 H 
BRANCH  72  75
ATOM     75  C25 non d ame     -31.886  12.879  29.262  0.00  0.00    -0.001 C 
ATOM     76  C26 non d ame     -33.019  11.687  29.269  0.00  0.00    -0.035 C 
ATOM     77  C27 non d ame     -32.634  10.725  30.142  0.00  0.00     0.085 C 
ATOM     78  H38 non d ame     -33.950  12.060  29.695  0.00  0.00     0.036 H 
ATOM     79  H39 non d ame     -33.026  11.172  28.309  0.00  0.00     0.036 H 
ATOM     80  N5  non d ame     -31.512  11.302  30.970  0.00  0.00    -0.049 N 
ATOM     81  H40 non d ame     -33.498  10.552  30.784  0.00  0.00     0.075 H 
ATOM     82  H41 non d ame     -32.242   9.915  29.528  0.00  0.00     0.075 H 
ATOM     83  C28 non d ame     -31.026  12.632  30.193  0.00  0.00     0.193 C 
ATOM     84  H42 non d ame     -31.919  11.576  31.852  0.00  0.00     0.280 HD
ATOM     85  H43 non d ame     -30.763  10.625  30.948  0.00  0.00     0.280 HD
ATOM     86  H44 non d ame     -30.102  12.628  29.614  0.00  0.00     0.129 H 
ATOM     87  H37 non d ame     -31.184  12.890  28.428  0.00  0.00     0.046 H 
BRANCH  83  88
ATOM     88  O6  non d ame     -30.898  13.719  31.111  0.00  0.00    -0.369 OA
ATOM     89  H45 non d ame     -30.192  13.531  31.734  0.00  0.00     0.212 HD
ENDBRANCH  83  88
ENDBRANCH  72  75
ENDBRANCH  47  72
ENDBRANCH  45  47
ENDBRANCH   1  43
BRANCH   1  90
ATOM     90  C16 non d ame     -31.101  14.846  23.604  0.00  0.00    -0.035 C 
ATOM     91  H21 non d ame     -32.131  14.895  23.252  0.00  0.00     0.037 H 
ATOM     92  H22 non d ame     -30.619  15.738  24.003  0.00  0.00     0.037 H 
BRANCH  90  93
ATOM     93  C17 non d ame     -30.241  14.387  22.384  0.00  0.00    -0.059 C 
ATOM     94  H23 non d ame     -30.408  13.319  22.244  0.00  0.00     0.038 H 
BRANCH  93  95
ATOM     95  C18 non d ame     -30.657  15.112  21.063  0.00  0.00    -0.073 C 
ATOM     96  H24 non d ame     -31.489  14.579  20.603  0.00  0.00     0.028 H 
ATOM     97  H25 non d ame     -30.961  16.133  21.290  0.00  0.00     0.028 H 
ATOM     98  H26 non d ame     -29.811  15.128  20.376  0.00  0.00     0.028 H 
ENDBRANCH  93  95
BRANCH  93  99
ATOM     99  C19 non d ame     -28.748  14.581  22.664  0.00  0.00    -0.073 C 
ATOM    100  H27 non d ame     -28.221  13.642  22.489  0.00  0.00     0.028 H 
ATOM    101  H28 non d ame     -28.350  15.350  22.001  0.00  0.00     0.028 H 
ATOM    102  H29 non d ame     -28.610  14.888  23.700  0.00  0.00     0.028 H 
ENDBRANCH  93  99
ENDBRANCH  90  93
ENDBRANCH   1  90
TORSDOF 26
ENDMDL
MODEL 12
REMARK VINA RESULT:      -6.6      2.862      7.940
REMARK  26 active torsions:
REMARK  status: ('A' for Active; 'I' for Inactive)
REMARK    1  A    between atoms: C2_2  and  C3_3 
REMARK    2  A    between atoms: C4_6  and  C5_7 
REMARK       I    between atoms: C5_7  and  N2_9 
REMARK    3  A    between atoms: N2_9  and  C6_10 
REMARK    4  A    between atoms: C6_10  and  C7_11 
REMARK    5  A    between atoms: C6_10  and  C8_13 
REMARK       I    between atoms: C7_11  and  N3_14 
REMARK    6  A    between atoms: N3_14  and  C9_15 
REMARK    7  A    between atoms: C9_15  and  C10_16 
REMARK    8  A    between atoms: C9_15  and  C11_18 
REMARK       I    between atoms: C10_16  and  N4_21 
REMARK    9  A    between atoms: C11_18  and  C12_19 
REMARK   10  A    between atoms: C11_18  and  C13_20 
REMARK   11  A    between atoms: N4_21  and  C14_22 
REMARK   12  A    between atoms: C14_22  and  C15_23 
REMARK   13  A    between atoms: C14_22  and  C16_25 
REMARK       I    between atoms: C15_23  and  N6_40 
REMARK   14  A    between atoms: C16_25  and  C17_26 
REMARK   15  A    between atoms: C17_26  and  C18_27 
REMARK   16  A    between atoms: C17_26  and  C19_28 
REMARK   17  A    between atoms: C20_29  and  C21_30 
REMARK   18  A    between atoms: C20_29  and  C24_33 
REMARK   19  A    between atoms: C20_29  and  N6_40 
REMARK   20  A    between atoms: C21_30  and  C22_31 
REMARK   21  A    between atoms: C22_31  and  C23_32 
REMARK   22  A    between atoms: C23_32  and  O8_43 
REMARK   23  A    between atoms: C24_33  and  C25_34 
REMARK   24  A    between atoms: C28_38  and  O6_39 
REMARK   25  A    between atoms: C29_42  and  O8_43 
REMARK   26  A    between atoms: C29_42  and  C35_49 
ROOT
ATOM      1  C14 non d ame     -35.740   9.798  28.054  0.00  0.00     0.089 C 
ATOM      2  H20 non d ame     -35.704   9.005  28.801  0.00  0.00     0.087 H 
ENDROOT
BRANCH   1   3
ATOM      3  N4  non d ame     -34.650  10.720  28.341  0.00  0.00    -0.346 N 
ATOM      4  C10 non d ame     -33.294  10.195  28.740  0.00  0.00     0.241 C 
ATOM      5  O4  non d ame     -33.105   9.026  28.827  0.00  0.00    -0.271 OA
ATOM      6  H19 non d ame     -34.833  11.710  28.264  0.00  0.00     0.163 HD
BRANCH   4   7
ATOM      7  C9  non d ame     -32.176  11.162  29.028  0.00  0.00     0.092 C 
ATOM      8  H11 non d ame     -31.259  10.797  28.567  0.00  0.00     0.088 H 
BRANCH   7   9
ATOM      9  N3  non d ame     -32.482  12.459  28.416  0.00  0.00    -0.346 N 
ATOM     10  C7  non d ame     -31.825  12.852  27.194  0.00  0.00     0.240 C 
ATOM     11  O3  non d ame     -31.047  12.137  26.690  0.00  0.00    -0.271 OA
ATOM     12  H10 non d ame     -33.150  13.087  28.840  0.00  0.00     0.163 HD
BRANCH  10  13
ATOM     13  C6  non d ame     -32.153  14.234  26.549  0.00  0.00     0.086 C 
ATOM     14  H6  non d ame     -31.690  15.067  27.078  0.00  0.00     0.086 H 
BRANCH  13  15
ATOM     15  N2  non d ame     -31.627  14.259  25.194  0.00  0.00    -0.343 N 
ATOM     16  C5  non d ame     -31.081  15.507  24.655  0.00  0.00     0.273 C 
ATOM     17  O2  non d ame     -31.073  16.485  25.318  0.00  0.00    -0.266 OA
ATOM     18  H5  non d ame     -31.641  13.419  24.634  0.00  0.00     0.163 HD
BRANCH  16  19
ATOM     19  C4  non d ame     -30.521  15.547  23.225  0.00  0.00     0.154 A 
ATOM     20  C1  non d ame     -31.262  15.693  22.009  0.00  0.00    -0.017 A 
ATOM     21  C2  non d ame     -30.289  15.670  20.985  0.00  0.00     0.077 A 
ATOM     22  H1  non d ame     -32.340  15.799  21.889  0.00  0.00     0.091 H 
ATOM     23  O1  non d ame     -29.129  15.528  21.557  0.00  0.00    -0.218 OA
ATOM     24  N1  non d ame     -29.238  15.454  22.863  0.00  0.00    -0.123 NA
BRANCH  21  25
ATOM     25  C3  non d ame     -30.551  15.790  19.490  0.00  0.00    -0.029 C 
ATOM     26  H2  non d ame     -30.775  14.805  19.080  0.00  0.00     0.036 H 
ATOM     27  H3  non d ame     -31.398  16.454  19.322  0.00  0.00     0.036 H 
ATOM     28  H4  non d ame     -29.667  16.196  18.998  0.00  0.00     0.036 H 
ENDBRANCH  21  25
ENDBRANCH  16  19
ENDBRANCH  13  15
BRANCH  13  29
ATOM     29  C8  non d ame     -33.646  14.441  26.527  0.00  0.00    -0.049 C 
ATOM     30  H7  non d ame     -34.132  13.634  27.076  0.00  0.00     0.030 H 
ATOM     31  H8  non d ame     -33.887  15.395  26.996  0.00  0.00     0.030 H 
ATOM     32  H9  non d ame     -33.998  14.443  25.496  0.00  0.00     0.030 H 
ENDBRANCH  13  29
ENDBRANCH  10  13
ENDBRANCH   7   9
BRANCH   7  33
ATOM     33  C11 non d ame     -32.028  11.340  30.568  0.00  0.00    -0.033 C 
ATOM     34  H12 non d ame     -31.532  10.451  30.955  0.00  0.00     0.042 H 
BRANCH  33  35
ATOM     35  C12 non d ame     -31.129  12.568  30.914  0.00  0.00    -0.071 C 
ATOM     36  H13 non d ame     -31.697  13.487  30.772  0.00  0.00     0.028 H 
ATOM     37  H14 non d ame     -30.803  12.498  31.951  0.00  0.00     0.028 H 
ATOM     38  H15 non d ame     -30.258  12.576  30.259  0.00  0.00     0.028 H 
ENDBRANCH  33  35
BRANCH  33  39
ATOM     39  C13 non d ame     -33.427  11.451  31.255  0.00  0.00    -0.071 C 
ATOM     40  H16 non d ame     -33.633  12.495  31.493  0.00  0.00     0.028 H 
ATOM     41  H17 non d ame     -34.195  11.074  30.579  0.00  0.00     0.028 H 
ATOM     42  H18 non d ame     -33.429  10.862  32.172  0.00  0.00     0.028 H 
ENDBRANCH  33  39
ENDBRANCH   7  33
ENDBRANCH   4   7
ENDBRANCH   1   3
BRANCH   1  43
ATOM     43  C15 non d ame     -35.560   9.254  26.608  0.00  0.00     0.240 C 
ATOM     44  O5  non d ame     -36.083   9.811  25.698  0.00  0.00    -0.271 OA
ATOM     45  N6  non d ame     -34.729   8.042  26.358  0.00  0.00    -0.355 N 
ATOM     46  H46 non d ame     -34.276   7.563  27.123  0.00  0.00     0.162 HD
BRANCH  45  47
ATOM     47  C20 non d ame     -34.567   7.537  24.977  0.00  0.00     0.013 C 
ATOM     48  H30 non d ame     -35.193   8.143  24.323  0.00  0.00     0.072 H 
BRANCH  47  49
ATOM     49  C21 non d ame     -35.006   6.091  24.919  0.00  0.00    -0.038 C 
ATOM     50  H31 non d ame     -35.544   5.909  25.850  0.00  0.00     0.036 H 
ATOM     51  H32 non d ame     -35.516   5.978  23.962  0.00  0.00     0.036 H 
BRANCH  49  52
ATOM     52  C22 non d ame     -33.818   5.105  24.900  0.00  0.00     0.018 C 
ATOM     53  H33 non d ame     -34.127   4.284  24.254  0.00  0.00     0.048 H 
ATOM     54  H34 non d ame     -32.943   5.702  24.644  0.00  0.00     0.048 H 
BRANCH  52  55
ATOM     55  C23 non d ame     -33.512   4.468  26.284  0.00  0.00     0.259 C 
ATOM     56  O7  non d ame     -33.429   3.288  26.400  0.00  0.00    -0.265 OA
BRANCH  55  57
ATOM     57  O8  non d ame     -33.343   5.311  27.417  0.00  0.00    -0.317 OA
BRANCH  57  58
ATOM     58  C29 non d ame     -33.373   4.617  28.668  0.00  0.00     0.052 C 
ATOM     59  H47 non d ame     -33.507   3.565  28.419  0.00  0.00     0.082 H 
ATOM     60  H48 non d ame     -32.483   4.941  29.206  0.00  0.00     0.082 H 
BRANCH  58  61
ATOM     61  C35 non d ame     -34.623   5.099  29.453  0.00  0.00    -0.034 A 
ATOM     62  C30 non d ame     -34.543   5.316  30.824  0.00  0.00    -0.075 A 
ATOM     63  C31 non d ame     -35.666   5.748  31.529  0.00  0.00    -0.082 A 
ATOM     64  H49 non d ame     -33.601   5.148  31.347  0.00  0.00     0.084 H 
ATOM     65  C32 non d ame     -36.872   5.961  30.857  0.00  0.00    -0.083 A 
ATOM     66  H50 non d ame     -35.599   5.920  32.604  0.00  0.00     0.083 H 
ATOM     67  C33 non d ame     -36.948   5.739  29.489  0.00  0.00    -0.082 A 
ATOM     68  H51 non d ame     -37.755   6.299  31.401  0.00  0.00     0.083 H 
ATOM     69  C34 non d ame     -35.828   5.309  28.780  0.00  0.00    -0.075 A 
ATOM     70  H52 non d ame     -37.892   5.903  28.968  0.00  0.00     0.083 H 
ATOM     71  H53 non d ame     -35.895   5.138  27.705  0.00  0.00     0.084 H 
ENDBRANCH  58  61
ENDBRANCH  57  58
ENDBRANCH  55  57
ENDBRANCH  52  55
ENDBRANCH  49  52
ENDBRANCH  47  49
BRANCH  47  72
ATOM     72  C24 non d ame     -33.102   7.643  24.557  0.00  0.00    -0.039 C 
ATOM     73  H35 non d ame     -32.528   7.546  25.480  0.00  0.00     0.036 H 
ATOM     74  H36 non d ame     -32.976   6.912  23.758  0.00  0.00     0.036 H 
BRANCH  72  75
ATOM     75  C25 non d ame     -32.765   9.082  23.940  0.00  0.00    -0.001 C 
ATOM     76  C26 non d ame     -31.875   8.908  22.568  0.00  0.00    -0.035 C 
ATOM     77  C27 non d ame     -30.775   9.694  22.659  0.00  0.00     0.085 C 
ATOM     78  H38 non d ame     -31.464   7.900  22.514  0.00  0.00     0.036 H 
ATOM     79  H39 non d ame     -32.415   9.323  21.717  0.00  0.00     0.036 H 
ATOM     80  N5  non d ame     -30.666  10.135  24.099  0.00  0.00    -0.049 N 
ATOM     81  H40 non d ame     -29.933   9.044  22.421  0.00  0.00     0.075 H 
ATOM     82  H41 non d ame     -30.986  10.562  22.036  0.00  0.00     0.075 H 
ATOM     83  C28 non d ame     -32.094   9.803  24.774  0.00  0.00     0.193 C 
ATOM     84  H42 non d ame     -29.964   9.548  24.526  0.00  0.00     0.280 HD
ATOM     85  H43 non d ame     -30.544  11.138  24.081  0.00  0.00     0.280 HD
ATOM     86  H44 non d ame     -32.812  10.599  24.971  0.00  0.00     0.129 H 
ATOM     87  H37 non d ame     -33.645   9.723  23.882  0.00  0.00     0.046 H 
BRANCH  83  88
ATOM     88  O6  non d ame     -31.905   9.143  26.027  0.00  0.00    -0.369 OA
ATOM     89  H45 non d ame     -31.663   9.788  26.696  0.00  0.00     0.212 HD
ENDBRANCH  83  88
ENDBRANCH  72  75
ENDBRANCH  47  72
ENDBRANCH  45  47
ENDBRANCH   1  43
BRANCH   1  90
ATOM     90  C16 non d ame     -37.061  10.544  28.159  0.00  0.00    -0.035 C 
ATOM     91  H21 non d ame     -36.795  11.565  28.433  0.00  0.00     0.037 H 
ATOM     92  H22 non d ame     -37.578  10.349  27.220  0.00  0.00     0.037 H 
BRANCH  90  93
ATOM     93  C17 non d ame     -37.992  10.012  29.294  0.00  0.00    -0.059 C 
ATOM     94  H23 non d ame     -38.688  10.810  29.552  0.00  0.00     0.038 H 
BRANCH  93  95
ATOM     95  C18 non d ame     -38.832   8.776  28.837  0.00  0.00    -0.073 C 
ATOM     96  H24 non d ame     -39.891   9.033  28.846  0.00  0.00     0.028 H 
ATOM     97  H25 non d ame     -38.537   8.490  27.828  0.00  0.00     0.028 H 
ATOM     98  H26 non d ame     -38.654   7.944  29.518  0.00  0.00     0.028 H 
ENDBRANCH  93  95
BRANCH  93  99
ATOM     99  C19 non d ame     -37.187   9.687  30.555  0.00  0.00    -0.073 C 
ATOM    100  H27 non d ame     -37.813   9.130  31.253  0.00  0.00     0.028 H 
ATOM    101  H28 non d ame     -36.319   9.084  30.287  0.00  0.00     0.028 H 
ATOM    102  H29 non d ame     -36.854  10.613  31.023  0.00  0.00     0.028 H 
ENDBRANCH  93  99
ENDBRANCH  90  93
ENDBRANCH   1  90
TORSDOF 26
ENDMDL
MODEL 13
REMARK VINA RESULT:      -6.6      2.952      8.797
REMARK  26 active torsions:
REMARK  status: ('A' for Active; 'I' for Inactive)
REMARK    1  A    between atoms: C2_2  and  C3_3 
REMARK    2  A    between atoms: C4_6  and  C5_7 
REMARK       I    between atoms: C5_7  and  N2_9 
REMARK    3  A    between atoms: N2_9  and  C6_10 
REMARK    4  A    between atoms: C6_10  and  C7_11 
REMARK    5  A    between atoms: C6_10  and  C8_13 
REMARK       I    between atoms: C7_11  and  N3_14 
REMARK    6  A    between atoms: N3_14  and  C9_15 
REMARK    7  A    between atoms: C9_15  and  C10_16 
REMARK    8  A    between atoms: C9_15  and  C11_18 
REMARK       I    between atoms: C10_16  and  N4_21 
REMARK    9  A    between atoms: C11_18  and  C12_19 
REMARK   10  A    between atoms: C11_18  and  C13_20 
REMARK   11  A    between atoms: N4_21  and  C14_22 
REMARK   12  A    between atoms: C14_22  and  C15_23 
REMARK   13  A    between atoms: C14_22  and  C16_25 
REMARK       I    between atoms: C15_23  and  N6_40 
REMARK   14  A    between atoms: C16_25  and  C17_26 
REMARK   15  A    between atoms: C17_26  and  C18_27 
REMARK   16  A    between atoms: C17_26  and  C19_28 
REMARK   17  A    between atoms: C20_29  and  C21_30 
REMARK   18  A    between atoms: C20_29  and  C24_33 
REMARK   19  A    between atoms: C20_29  and  N6_40 
REMARK   20  A    between atoms: C21_30  and  C22_31 
REMARK   21  A    between atoms: C22_31  and  C23_32 
REMARK   22  A    between atoms: C23_32  and  O8_43 
REMARK   23  A    between atoms: C24_33  and  C25_34 
REMARK   24  A    between atoms: C28_38  and  O6_39 
REMARK   25  A    between atoms: C29_42  and  O8_43 
REMARK   26  A    between atoms: C29_42  and  C35_49 
ROOT
ATOM      1  C14 non d ame     -33.750   6.825  27.744  0.00  0.00     0.089 C 
ATOM      2  H20 non d ame     -33.264   6.505  28.667  0.00  0.00     0.087 H 
ENDROOT
BRANCH   1   3
ATOM      3  N4  non d ame     -34.204   8.194  27.940  0.00  0.00    -0.346 N 
ATOM      4  C10 non d ame     -34.725   8.640  29.283  0.00  0.00     0.241 C 
ATOM      5  O4  non d ame     -34.772   7.877  30.191  0.00  0.00    -0.271 OA
ATOM      6  H19 non d ame     -34.157   8.827  27.153  0.00  0.00     0.163 HD
BRANCH   4   7
ATOM      7  C9  non d ame     -35.185  10.062  29.468  0.00  0.00     0.092 C 
ATOM      8  H11 non d ame     -35.443  10.221  30.515  0.00  0.00     0.088 H 
BRANCH   7   9
ATOM      9  N3  non d ame     -34.085  10.977  29.149  0.00  0.00    -0.346 N 
ATOM     10  C7  non d ame     -33.045  11.219  30.119  0.00  0.00     0.240 C 
ATOM     11  O3  non d ame     -33.078  10.687  31.161  0.00  0.00    -0.271 OA
ATOM     12  H10 non d ame     -34.043  11.444  28.255  0.00  0.00     0.163 HD
BRANCH  10  13
ATOM     13  C6  non d ame     -31.878  12.197  29.774  0.00  0.00     0.086 C 
ATOM     14  H6  non d ame     -31.299  11.874  28.910  0.00  0.00     0.086 H 
BRANCH  13  15
ATOM     15  N2  non d ame     -32.436  13.497  29.440  0.00  0.00    -0.343 N 
ATOM     16  C5  non d ame     -31.651  14.431  28.630  0.00  0.00     0.273 C 
ATOM     17  O2  non d ame     -30.572  14.129  28.255  0.00  0.00    -0.266 OA
ATOM     18  H5  non d ame     -33.358  13.748  29.767  0.00  0.00     0.163 HD
BRANCH  16  19
ATOM     19  C4  non d ame     -32.229  15.808  28.267  0.00  0.00     0.154 A 
ATOM     20  C1  non d ame     -32.522  16.305  26.958  0.00  0.00    -0.017 A 
ATOM     21  C2  non d ame     -33.029  17.607  27.168  0.00  0.00     0.077 A 
ATOM     22  H1  non d ame     -32.388  15.799  26.002  0.00  0.00     0.091 H 
ATOM     23  O1  non d ame     -33.024  17.822  28.451  0.00  0.00    -0.218 OA
ATOM     24  N1  non d ame     -32.561  16.787  29.113  0.00  0.00    -0.123 NA
BRANCH  21  25
ATOM     25  C3  non d ame     -33.495  18.578  26.091  0.00  0.00    -0.029 C 
ATOM     26  H2  non d ame     -33.011  19.543  26.237  0.00  0.00     0.036 H 
ATOM     27  H3  non d ame     -33.232  18.184  25.109  0.00  0.00     0.036 H 
ATOM     28  H4  non d ame     -34.576  18.700  26.156  0.00  0.00     0.036 H 
ENDBRANCH  21  25
ENDBRANCH  16  19
ENDBRANCH  13  15
BRANCH  13  29
ATOM     29  C8  non d ame     -30.956  12.320  30.960  0.00  0.00    -0.049 C 
ATOM     30  H7  non d ame     -29.949  12.021  30.670  0.00  0.00     0.030 H 
ATOM     31  H8  non d ame     -30.943  13.354  31.304  0.00  0.00     0.030 H 
ATOM     32  H9  non d ame     -31.309  11.674  31.764  0.00  0.00     0.030 H 
ENDBRANCH  13  29
ENDBRANCH  10  13
ENDBRANCH   7   9
BRANCH   7  33
ATOM     33  C11 non d ame     -36.385  10.347  28.519  0.00  0.00    -0.033 C 
ATOM     34  H12 non d ame     -36.587   9.433  27.961  0.00  0.00     0.042 H 
BRANCH  33  35
ATOM     35  C12 non d ame     -37.675  10.700  29.323  0.00  0.00    -0.071 C 
ATOM     36  H13 non d ame     -38.018  11.695  29.041  0.00  0.00     0.028 H 
ATOM     37  H14 non d ame     -38.452   9.970  29.101  0.00  0.00     0.028 H 
ATOM     38  H15 non d ame     -37.453  10.683  30.391  0.00  0.00     0.028 H 
ENDBRANCH  33  35
BRANCH  33  39
ATOM     39  C13 non d ame     -36.032  11.471  27.493  0.00  0.00    -0.071 C 
ATOM     40  H16 non d ame     -36.916  11.717  26.904  0.00  0.00     0.028 H 
ATOM     41  H17 non d ame     -35.693  12.359  28.028  0.00  0.00     0.028 H 
ATOM     42  H18 non d ame     -35.239  11.123  26.831  0.00  0.00     0.028 H 
ENDBRANCH  33  39
ENDBRANCH   7  33
ENDBRANCH   4   7
ENDBRANCH   1   3
BRANCH   1  43
ATOM     43  C15 non d ame     -32.781   6.793  26.528  0.00  0.00     0.240 C 
ATOM     44  O5  non d ame     -31.860   6.042  26.526  0.00  0.00    -0.271 OA
ATOM     45  N6  non d ame     -33.006   7.693  25.361  0.00  0.00    -0.355 N 
ATOM     46  H46 non d ame     -33.788   8.332  25.349  0.00  0.00     0.162 HD
BRANCH  45  47
ATOM     47  C20 non d ame     -32.077   7.649  24.212  0.00  0.00     0.013 C 
ATOM     48  H30 non d ame     -31.168   7.142  24.535  0.00  0.00     0.072 H 
BRANCH  47  49
ATOM     49  C21 non d ame     -31.754   9.061  23.777  0.00  0.00    -0.038 C 
ATOM     50  H31 non d ame     -30.712   9.223  24.052  0.00  0.00     0.036 H 
ATOM     51  H32 non d ame     -32.058   9.123  22.731  0.00  0.00     0.036 H 
BRANCH  49  52
ATOM     52  C22 non d ame     -32.577  10.125  24.535  0.00  0.00     0.018 C 
ATOM     53  H33 non d ame     -32.689  10.959  23.843  0.00  0.00     0.048 H 
ATOM     54  H34 non d ame     -33.459   9.604  24.909  0.00  0.00     0.048 H 
BRANCH  52  55
ATOM     55  C23 non d ame     -31.856  10.700  25.785  0.00  0.00     0.259 C 
ATOM     56  O7  non d ame     -32.042  10.227  26.859  0.00  0.00    -0.265 OA
BRANCH  55  57
ATOM     57  O8  non d ame     -30.978  11.809  25.635  0.00  0.00    -0.317 OA
BRANCH  57  58
ATOM     58  C29 non d ame     -31.623  13.005  25.187  0.00  0.00     0.052 C 
ATOM     59  H47 non d ame     -32.592  12.691  24.799  0.00  0.00     0.082 H 
ATOM     60  H48 non d ame     -31.570  13.700  26.025  0.00  0.00     0.082 H 
BRANCH  58  61
ATOM     61  C35 non d ame     -30.790  13.587  24.014  0.00  0.00    -0.034 A 
ATOM     62  C30 non d ame     -30.605  14.962  23.906  0.00  0.00    -0.075 A 
ATOM     63  C31 non d ame     -29.857  15.485  22.852  0.00  0.00    -0.082 A 
ATOM     64  H49 non d ame     -31.047  15.630  24.646  0.00  0.00     0.084 H 
ATOM     65  C32 non d ame     -29.295  14.628  21.902  0.00  0.00    -0.083 A 
ATOM     66  H50 non d ame     -29.713  16.563  22.771  0.00  0.00     0.083 H 
ATOM     67  C33 non d ame     -29.484  13.257  22.013  0.00  0.00    -0.082 A 
ATOM     68  H51 non d ame     -28.708  15.029  21.076  0.00  0.00     0.083 H 
ATOM     69  C34 non d ame     -30.229  12.730  23.066  0.00  0.00    -0.075 A 
ATOM     70  H52 non d ame     -29.046  12.591  21.269  0.00  0.00     0.083 H 
ATOM     71  H53 non d ame     -30.373  11.652  23.146  0.00  0.00     0.084 H 
ENDBRANCH  58  61
ENDBRANCH  57  58
ENDBRANCH  55  57
ENDBRANCH  52  55
ENDBRANCH  49  52
ENDBRANCH  47  49
BRANCH  47  72
ATOM     72  C24 non d ame     -32.723   6.893  23.053  0.00  0.00    -0.039 C 
ATOM     73  H35 non d ame     -32.046   6.069  22.830  0.00  0.00     0.036 H 
ATOM     74  H36 non d ame     -33.744   6.687  23.375  0.00  0.00     0.036 H 
BRANCH  72  75
ATOM     75  C25 non d ame     -32.817   7.798  21.734  0.00  0.00    -0.001 C 
ATOM     76  C26 non d ame     -34.391   8.132  21.394  0.00  0.00    -0.035 C 
ATOM     77  C27 non d ame     -34.634   7.817  20.099  0.00  0.00     0.085 C 
ATOM     78  H38 non d ame     -35.044   7.457  21.948  0.00  0.00     0.036 H 
ATOM     79  H39 non d ame     -34.561   9.208  21.431  0.00  0.00     0.036 H 
ATOM     80  N5  non d ame     -33.462   6.995  19.617  0.00  0.00    -0.049 N 
ATOM     81  H40 non d ame     -35.525   7.190  20.115  0.00  0.00     0.075 H 
ATOM     82  H41 non d ame     -34.645   8.766  19.566  0.00  0.00     0.075 H 
ATOM     83  C28 non d ame     -32.297   7.196  20.717  0.00  0.00     0.193 C 
ATOM     84  H42 non d ame     -33.761   6.031  19.638  0.00  0.00     0.280 HD
ATOM     85  H43 non d ame     -33.160   7.412  18.748  0.00  0.00     0.280 HD
ATOM     86  H44 non d ame     -31.449   7.850  20.512  0.00  0.00     0.129 H 
ATOM     87  H37 non d ame     -32.126   8.641  21.762  0.00  0.00     0.046 H 
BRANCH  83  88
ATOM     88  O6  non d ame     -31.730   5.933  21.069  0.00  0.00    -0.369 OA
ATOM     89  H45 non d ame     -31.787   5.336  20.320  0.00  0.00     0.212 HD
ENDBRANCH  83  88
ENDBRANCH  72  75
ENDBRANCH  47  72
ENDBRANCH  45  47
ENDBRANCH   1  43
BRANCH   1  90
ATOM     90  C16 non d ame     -34.953   5.939  27.463  0.00  0.00    -0.035 C 
ATOM     91  H21 non d ame     -34.587   5.158  26.797  0.00  0.00     0.037 H 
ATOM     92  H22 non d ame     -35.354   5.677  28.442  0.00  0.00     0.037 H 
BRANCH  90  93
ATOM     93  C17 non d ame     -36.103   6.668  26.696  0.00  0.00    -0.059 C 
ATOM     94  H23 non d ame     -35.823   7.717  26.600  0.00  0.00     0.038 H 
BRANCH  93  95
ATOM     95  C18 non d ame     -36.306   6.096  25.257  0.00  0.00    -0.073 C 
ATOM     96  H24 non d ame     -36.327   5.007  25.298  0.00  0.00     0.028 H 
ATOM     97  H25 non d ame     -37.249   6.461  24.851  0.00  0.00     0.028 H 
ATOM     98  H26 non d ame     -35.485   6.420  24.618  0.00  0.00     0.028 H 
ENDBRANCH  93  95
BRANCH  93  99
ATOM     99  C19 non d ame     -37.409   6.618  27.493  0.00  0.00    -0.073 C 
ATOM    100  H27 non d ame     -37.316   5.888  28.297  0.00  0.00     0.028 H 
ATOM    101  H28 non d ame     -37.615   7.601  27.916  0.00  0.00     0.028 H 
ATOM    102  H29 non d ame     -38.226   6.329  26.832  0.00  0.00     0.028 H 
ENDBRANCH  93  99
ENDBRANCH  90  93
ENDBRANCH   1  90
TORSDOF 26
ENDMDL
MODEL 14
REMARK VINA RESULT:      -6.6      3.045      5.854
REMARK  26 active torsions:
REMARK  status: ('A' for Active; 'I' for Inactive)
REMARK    1  A    between atoms: C2_2  and  C3_3 
REMARK    2  A    between atoms: C4_6  and  C5_7 
REMARK       I    between atoms: C5_7  and  N2_9 
REMARK    3  A    between atoms: N2_9  and  C6_10 
REMARK    4  A    between atoms: C6_10  and  C7_11 
REMARK    5  A    between atoms: C6_10  and  C8_13 
REMARK       I    between atoms: C7_11  and  N3_14 
REMARK    6  A    between atoms: N3_14  and  C9_15 
REMARK    7  A    between atoms: C9_15  and  C10_16 
REMARK    8  A    between atoms: C9_15  and  C11_18 
REMARK       I    between atoms: C10_16  and  N4_21 
REMARK    9  A    between atoms: C11_18  and  C12_19 
REMARK   10  A    between atoms: C11_18  and  C13_20 
REMARK   11  A    between atoms: N4_21  and  C14_22 
REMARK   12  A    between atoms: C14_22  and  C15_23 
REMARK   13  A    between atoms: C14_22  and  C16_25 
REMARK       I    between atoms: C15_23  and  N6_40 
REMARK   14  A    between atoms: C16_25  and  C17_26 
REMARK   15  A    between atoms: C17_26  and  C18_27 
REMARK   16  A    between atoms: C17_26  and  C19_28 
REMARK   17  A    between atoms: C20_29  and  C21_30 
REMARK   18  A    between atoms: C20_29  and  C24_33 
REMARK   19  A    between atoms: C20_29  and  N6_40 
REMARK   20  A    between atoms: C21_30  and  C22_31 
REMARK   21  A    between atoms: C22_31  and  C23_32 
REMARK   22  A    between atoms: C23_32  and  O8_43 
REMARK   23  A    between atoms: C24_33  and  C25_34 
REMARK   24  A    between atoms: C28_38  and  O6_39 
REMARK   25  A    between atoms: C29_42  and  O8_43 
REMARK   26  A    between atoms: C29_42  and  C35_49 
ROOT
ATOM      1  C14 non d ame     -30.785  14.827  24.387  0.00  0.00     0.089 C 
ATOM      2  H20 non d ame     -29.841  14.581  24.872  0.00  0.00     0.087 H 
ENDROOT
BRANCH   1   3
ATOM      3  N4  non d ame     -31.486  13.577  24.133  0.00  0.00    -0.346 N 
ATOM      4  C10 non d ame     -31.480  12.477  25.165  0.00  0.00     0.241 C 
ATOM      5  O4  non d ame     -30.902  12.621  26.191  0.00  0.00    -0.271 OA
ATOM      6  H19 non d ame     -31.970  13.474  23.252  0.00  0.00     0.163 HD
BRANCH   4   7
ATOM      7  C9  non d ame     -32.215  11.192  24.887  0.00  0.00     0.092 C 
ATOM      8  H11 non d ame     -32.929  11.355  24.080  0.00  0.00     0.088 H 
BRANCH   7   9
ATOM      9  N3  non d ame     -31.265  10.175  24.427  0.00  0.00    -0.346 N 
ATOM     10  C7  non d ame     -31.591   9.345  23.294  0.00  0.00     0.240 C 
ATOM     11  O3  non d ame     -32.615   9.480  22.742  0.00  0.00    -0.271 OA
ATOM     12  H10 non d ame     -30.379  10.045  24.894  0.00  0.00     0.163 HD
BRANCH  10  13
ATOM     13  C6  non d ame     -30.577   8.262  22.810  0.00  0.00     0.086 C 
ATOM     14  H6  non d ame     -30.406   7.483  23.553  0.00  0.00     0.086 H 
BRANCH  13  15
ATOM     15  N2  non d ame     -31.118   7.602  21.633  0.00  0.00    -0.343 N 
ATOM     16  C5  non d ame     -31.778   6.302  21.774  0.00  0.00     0.273 C 
ATOM     17  O2  non d ame     -31.866   5.794  22.838  0.00  0.00    -0.266 OA
ATOM     18  H5  non d ame     -31.036   8.042  20.728  0.00  0.00     0.163 HD
BRANCH  16  19
ATOM     19  C4  non d ame     -32.355   5.594  20.539  0.00  0.00     0.154 A 
ATOM     20  C1  non d ame     -32.352   4.189  20.267  0.00  0.00    -0.017 A 
ATOM     21  C2  non d ame     -32.998   4.059  19.018  0.00  0.00     0.077 A 
ATOM     22  H1  non d ame     -31.944   3.387  20.883  0.00  0.00     0.091 H 
ATOM     23  O1  non d ame     -33.330   5.254  18.627  0.00  0.00    -0.218 OA
ATOM     24  N1  non d ame     -32.965   6.167  19.497  0.00  0.00    -0.123 NA
BRANCH  21  25
ATOM     25  C3  non d ame     -33.258   2.759  18.268  0.00  0.00    -0.029 C 
ATOM     26  H2  non d ame     -34.086   2.898  17.574  0.00  0.00     0.036 H 
ATOM     27  H3  non d ame     -32.363   2.474  17.714  0.00  0.00     0.036 H 
ATOM     28  H4  non d ame     -33.509   1.973  18.980  0.00  0.00     0.036 H 
ENDBRANCH  21  25
ENDBRANCH  16  19
ENDBRANCH  13  15
BRANCH  13  29
ATOM     29  C8  non d ame     -29.261   8.915  22.477  0.00  0.00    -0.049 C 
ATOM     30  H7  non d ame     -28.471   8.164  22.481  0.00  0.00     0.030 H 
ATOM     31  H8  non d ame     -29.322   9.373  21.490  0.00  0.00     0.030 H 
ATOM     32  H9  non d ame     -29.037   9.681  23.220  0.00  0.00     0.030 H 
ENDBRANCH  13  29
ENDBRANCH  10  13
ENDBRANCH   7   9
BRANCH   7  33
ATOM     33  C11 non d ame     -32.907  10.699  26.192  0.00  0.00    -0.033 C 
ATOM     34  H12 non d ame     -32.722  11.445  26.964  0.00  0.00     0.042 H 
BRANCH  33  35
ATOM     35  C12 non d ame     -34.453  10.588  26.008  0.00  0.00    -0.071 C 
ATOM     36  H13 non d ame     -34.762  11.191  25.154  0.00  0.00     0.028 H 
ATOM     37  H14 non d ame     -34.724   9.547  25.834  0.00  0.00     0.028 H 
ATOM     38  H15 non d ame     -34.952  10.948  26.907  0.00  0.00     0.028 H 
ENDBRANCH  33  35
BRANCH  33  39
ATOM     39  C13 non d ame     -32.295   9.344  26.672  0.00  0.00    -0.071 C 
ATOM     40  H16 non d ame     -33.009   8.831  27.316  0.00  0.00     0.028 H 
ATOM     41  H17 non d ame     -32.071   8.719  25.806  0.00  0.00     0.028 H 
ATOM     42  H18 non d ame     -31.377   9.536  27.227  0.00  0.00     0.028 H 
ENDBRANCH  33  39
ENDBRANCH   7  33
ENDBRANCH   4   7
ENDBRANCH   1   3
BRANCH   1  43
ATOM     43  C15 non d ame     -31.687  15.728  25.278  0.00  0.00     0.240 C 
ATOM     44  O5  non d ame     -31.449  15.840  26.437  0.00  0.00    -0.271 OA
ATOM     45  N6  non d ame     -32.844  16.458  24.685  0.00  0.00    -0.355 N 
ATOM     46  H46 non d ame     -33.053  16.374  23.700  0.00  0.00     0.162 HD
BRANCH  45  47
ATOM     47  C20 non d ame     -33.691  17.312  25.545  0.00  0.00     0.013 C 
ATOM     48  H30 non d ame     -33.275  17.290  26.553  0.00  0.00     0.072 H 
BRANCH  47  49
ATOM     49  C21 non d ame     -35.101  16.767  25.556  0.00  0.00    -0.038 C 
ATOM     50  H31 non d ame     -35.748  17.627  25.729  0.00  0.00     0.036 H 
ATOM     51  H32 non d ame     -35.199  16.186  24.639  0.00  0.00     0.036 H 
BRANCH  49  52
ATOM     52  C22 non d ame     -35.356  15.787  26.722  0.00  0.00     0.018 C 
ATOM     53  H33 non d ame     -36.434  15.793  26.883  0.00  0.00     0.048 H 
ATOM     54  H34 non d ame     -34.851  14.861  26.446  0.00  0.00     0.048 H 
BRANCH  52  55
ATOM     55  C23 non d ame     -34.721  16.236  28.068  0.00  0.00     0.259 C 
ATOM     56  O7  non d ame     -35.088  17.230  28.606  0.00  0.00    -0.265 OA
BRANCH  55  57
ATOM     57  O8  non d ame     -33.684  15.452  28.645  0.00  0.00    -0.317 OA
BRANCH  57  58
ATOM     58  C29 non d ame     -33.603  14.121  28.127  0.00  0.00     0.052 C 
ATOM     59  H47 non d ame     -34.621  13.732  28.153  0.00  0.00     0.082 H 
ATOM     60  H48 non d ame     -33.077  14.206  27.176  0.00  0.00     0.082 H 
BRANCH  58  61
ATOM     61  C35 non d ame     -32.731  13.281  29.097  0.00  0.00    -0.034 A 
ATOM     62  C30 non d ame     -33.098  11.977  29.413  0.00  0.00    -0.075 A 
ATOM     63  C31 non d ame     -32.314  11.223  30.285  0.00  0.00    -0.082 A 
ATOM     64  H49 non d ame     -34.000  11.546  28.978  0.00  0.00     0.084 H 
ATOM     65  C32 non d ame     -31.160  11.778  30.844  0.00  0.00    -0.083 A 
ATOM     66  H50 non d ame     -32.604  10.200  30.529  0.00  0.00     0.083 H 
ATOM     67  C33 non d ame     -30.800  13.081  30.528  0.00  0.00    -0.082 A 
ATOM     68  H51 non d ame     -30.541  11.195  31.526  0.00  0.00     0.083 H 
ATOM     69  C34 non d ame     -31.579  13.838  29.656  0.00  0.00    -0.075 A 
ATOM     70  H52 non d ame     -29.900  13.512  30.968  0.00  0.00     0.083 H 
ATOM     71  H53 non d ame     -31.288  14.860  29.412  0.00  0.00     0.084 H 
ENDBRANCH  58  61
ENDBRANCH  57  58
ENDBRANCH  55  57
ENDBRANCH  52  55
ENDBRANCH  49  52
ENDBRANCH  47  49
BRANCH  47  72
ATOM     72  C24 non d ame     -33.701  18.741  25.006  0.00  0.00    -0.039 C 
ATOM     73  H35 non d ame     -33.034  18.730  24.144  0.00  0.00     0.036 H 
ATOM     74  H36 non d ame     -34.753  18.995  24.878  0.00  0.00     0.036 H 
BRANCH  72  75
ATOM     75  C25 non d ame     -33.089  19.777  26.063  0.00  0.00    -0.001 C 
ATOM     76  C26 non d ame     -32.182  18.974  27.175  0.00  0.00    -0.035 C 
ATOM     77  C27 non d ame     -32.585  19.341  28.415  0.00  0.00     0.085 C 
ATOM     78  H38 non d ame     -32.406  17.908  27.140  0.00  0.00     0.036 H 
ATOM     79  H39 non d ame     -31.148  19.316  27.132  0.00  0.00     0.036 H 
ATOM     80  N5  non d ame     -33.898  20.070  28.255  0.00  0.00    -0.049 N 
ATOM     81  H40 non d ame     -32.759  18.409  28.952  0.00  0.00     0.075 H 
ATOM     82  H41 non d ame     -31.831  20.042  28.770  0.00  0.00     0.075 H 
ATOM     83  C28 non d ame     -34.023  20.418  26.683  0.00  0.00     0.193 C 
ATOM     84  H42 non d ame     -34.623  19.410  28.497  0.00  0.00     0.280 HD
ATOM     85  H43 non d ame     -33.809  20.934  28.770  0.00  0.00     0.280 HD
ATOM     86  H44 non d ame     -33.840  21.431  26.324  0.00  0.00     0.129 H 
ATOM     87  H37 non d ame     -32.630  20.639  25.578  0.00  0.00     0.046 H 
BRANCH  83  88
ATOM     88  O6  non d ame     -35.324  20.073  26.204  0.00  0.00    -0.369 OA
ATOM     89  H45 non d ame     -35.241  19.483  25.450  0.00  0.00     0.212 HD
ENDBRANCH  83  88
ENDBRANCH  72  75
ENDBRANCH  47  72
ENDBRANCH  45  47
ENDBRANCH   1  43
BRANCH   1  90
ATOM     90  C16 non d ame     -30.517  15.523  23.062  0.00  0.00    -0.035 C 
ATOM     91  H21 non d ame     -31.441  16.049  22.820  0.00  0.00     0.037 H 
ATOM     92  H22 non d ame     -29.595  16.084  23.212  0.00  0.00     0.037 H 
BRANCH  90  93
ATOM     93  C17 non d ame     -30.248  14.539  21.880  0.00  0.00    -0.059 C 
ATOM     94  H23 non d ame     -30.955  13.714  21.968  0.00  0.00     0.038 H 
BRANCH  93  95
ATOM     95  C18 non d ame     -30.474  15.213  20.488  0.00  0.00    -0.073 C 
ATOM     96  H24 non d ame     -30.851  16.225  20.632  0.00  0.00     0.028 H 
ATOM     97  H25 non d ame     -29.530  15.251  19.945  0.00  0.00     0.028 H 
ATOM     98  H26 non d ame     -31.199  14.633  19.918  0.00  0.00     0.028 H 
ENDBRANCH  93  95
BRANCH  93  99
ATOM     99  C19 non d ame     -28.841  13.944  21.974  0.00  0.00    -0.073 C 
ATOM    100  H27 non d ame     -28.256  14.252  21.107  0.00  0.00     0.028 H 
ATOM    101  H28 non d ame     -28.356  14.298  22.884  0.00  0.00     0.028 H 
ATOM    102  H29 non d ame     -28.907  12.856  21.999  0.00  0.00     0.028 H 
ENDBRANCH  93  99
ENDBRANCH  90  93
ENDBRANCH   1  90
TORSDOF 26
ENDMDL
MODEL 15
REMARK VINA RESULT:      -6.6      2.857      7.311
REMARK  26 active torsions:
REMARK  status: ('A' for Active; 'I' for Inactive)
REMARK    1  A    between atoms: C2_2  and  C3_3 
REMARK    2  A    between atoms: C4_6  and  C5_7 
REMARK       I    between atoms: C5_7  and  N2_9 
REMARK    3  A    between atoms: N2_9  and  C6_10 
REMARK    4  A    between atoms: C6_10  and  C7_11 
REMARK    5  A    between atoms: C6_10  and  C8_13 
REMARK       I    between atoms: C7_11  and  N3_14 
REMARK    6  A    between atoms: N3_14  and  C9_15 
REMARK    7  A    between atoms: C9_15  and  C10_16 
REMARK    8  A    between atoms: C9_15  and  C11_18 
REMARK       I    between atoms: C10_16  and  N4_21 
REMARK    9  A    between atoms: C11_18  and  C12_19 
REMARK   10  A    between atoms: C11_18  and  C13_20 
REMARK   11  A    between atoms: N4_21  and  C14_22 
REMARK   12  A    between atoms: C14_22  and  C15_23 
REMARK   13  A    between atoms: C14_22  and  C16_25 
REMARK       I    between atoms: C15_23  and  N6_40 
REMARK   14  A    between atoms: C16_25  and  C17_26 
REMARK   15  A    between atoms: C17_26  and  C18_27 
REMARK   16  A    between atoms: C17_26  and  C19_28 
REMARK   17  A    between atoms: C20_29  and  C21_30 
REMARK   18  A    between atoms: C20_29  and  C24_33 
REMARK   19  A    between atoms: C20_29  and  N6_40 
REMARK   20  A    between atoms: C21_30  and  C22_31 
REMARK   21  A    between atoms: C22_31  and  C23_32 
REMARK   22  A    between atoms: C23_32  and  O8_43 
REMARK   23  A    between atoms: C24_33  and  C25_34 
REMARK   24  A    between atoms: C28_38  and  O6_39 
REMARK   25  A    between atoms: C29_42  and  O8_43 
REMARK   26  A    between atoms: C29_42  and  C35_49 
ROOT
ATOM      1  C14 non d ame     -35.488  14.606  26.885  0.00  0.00     0.089 C 
ATOM      2  H20 non d ame     -35.676  14.915  27.913  0.00  0.00     0.087 H 
ENDROOT
BRANCH   1   3
ATOM      3  N4  non d ame     -34.325  15.343  26.412  0.00  0.00    -0.346 N 
ATOM      4  C10 non d ame     -33.625  16.324  27.317  0.00  0.00     0.241 C 
ATOM      5  O4  non d ame     -34.018  16.507  28.422  0.00  0.00    -0.271 OA
ATOM      6  H19 non d ame     -34.008  15.175  25.467  0.00  0.00     0.163 HD
BRANCH   4   7
ATOM      7  C9  non d ame     -32.420  17.074  26.813  0.00  0.00     0.092 C 
ATOM      8  H11 non d ame     -31.582  16.901  27.488  0.00  0.00     0.088 H 
BRANCH   7   9
ATOM      9  N3  non d ame     -32.033  16.551  25.499  0.00  0.00    -0.346 N 
ATOM     10  C7  non d ame     -31.304  15.310  25.404  0.00  0.00     0.240 C 
ATOM     11  O3  non d ame     -31.018  14.721  26.374  0.00  0.00    -0.271 OA
ATOM     12  H10 non d ame     -32.271  17.049  24.654  0.00  0.00     0.163 HD
BRANCH  10  13
ATOM     13  C6  non d ame     -30.892  14.760  24.003  0.00  0.00     0.086 C 
ATOM     14  H6  non d ame     -29.837  14.919  23.781  0.00  0.00     0.086 H 
BRANCH  13  15
ATOM     15  N2  non d ame     -31.111  13.324  23.978  0.00  0.00    -0.343 N 
ATOM     16  C5  non d ame     -30.324  12.490  23.066  0.00  0.00     0.273 C 
ATOM     17  O2  non d ame     -29.520  12.985  22.355  0.00  0.00    -0.266 OA
ATOM     18  H5  non d ame     -31.802  12.909  24.587  0.00  0.00     0.163 HD
BRANCH  16  19
ATOM     19  C4  non d ame     -30.544  10.970  23.030  0.00  0.00     0.154 A 
ATOM     20  C1  non d ame     -31.537  10.222  23.739  0.00  0.00    -0.017 A 
ATOM     21  C2  non d ame     -31.316   8.878  23.366  0.00  0.00     0.077 A 
ATOM     22  H1  non d ame     -32.301  10.598  24.421  0.00  0.00     0.091 H 
ATOM     23  O1  non d ame     -30.313   8.866  22.538  0.00  0.00    -0.218 OA
ATOM     24  N1  non d ame     -29.845  10.074  22.327  0.00  0.00    -0.123 NA
BRANCH  21  25
ATOM     25  C3  non d ame     -32.107   7.668  23.844  0.00  0.00    -0.029 C 
ATOM     26  H2  non d ame     -31.461   7.022  24.437  0.00  0.00     0.036 H 
ATOM     27  H3  non d ame     -32.946   8.001  24.454  0.00  0.00     0.036 H 
ATOM     28  H4  non d ame     -32.482   7.115  22.982  0.00  0.00     0.036 H 
ENDBRANCH  21  25
ENDBRANCH  16  19
ENDBRANCH  13  15
BRANCH  13  29
ATOM     29  C8  non d ame     -31.720  15.428  22.935  0.00  0.00    -0.049 C 
ATOM     30  H7  non d ame     -32.351  14.684  22.447  0.00  0.00     0.030 H 
ATOM     31  H8  non d ame     -32.348  16.195  23.388  0.00  0.00     0.030 H 
ATOM     32  H9  non d ame     -31.062  15.886  22.197  0.00  0.00     0.030 H 
ENDBRANCH  13  29
ENDBRANCH  10  13
ENDBRANCH   7   9
BRANCH   7  33
ATOM     33  C11 non d ame     -32.766  18.586  26.685  0.00  0.00    -0.033 C 
ATOM     34  H12 non d ame     -32.055  19.028  25.987  0.00  0.00     0.042 H 
BRANCH  33  35
ATOM     35  C12 non d ame     -34.195  18.794  26.092  0.00  0.00    -0.071 C 
ATOM     36  H13 non d ame     -34.120  19.304  25.132  0.00  0.00     0.028 H 
ATOM     37  H14 non d ame     -34.675  17.826  25.953  0.00  0.00     0.028 H 
ATOM     38  H15 non d ame     -34.788  19.398  26.778  0.00  0.00     0.028 H 
ENDBRANCH  33  35
BRANCH  33  39
ATOM     39  C13 non d ame     -32.612  19.314  28.059  0.00  0.00    -0.071 C 
ATOM     40  H16 non d ame     -31.611  19.739  28.134  0.00  0.00     0.028 H 
ATOM     41  H17 non d ame     -33.352  20.111  28.133  0.00  0.00     0.028 H 
ATOM     42  H18 non d ame     -32.766  18.600  28.868  0.00  0.00     0.028 H 
ENDBRANCH  33  39
ENDBRANCH   7  33
ENDBRANCH   4   7
ENDBRANCH   1   3
BRANCH   1  43
ATOM     43  C15 non d ame     -35.188  13.083  26.774  0.00  0.00     0.240 C 
ATOM     44  O5  non d ame     -35.337  12.526  25.735  0.00  0.00    -0.271 OA
ATOM     45  N6  non d ame     -34.707  12.322  27.962  0.00  0.00    -0.355 N 
ATOM     46  H46 non d ame     -34.573  12.786  28.849  0.00  0.00     0.162 HD
BRANCH  45  47
ATOM     47  C20 non d ame     -34.426  10.875  27.840  0.00  0.00     0.013 C 
ATOM     48  H30 non d ame     -34.343  10.638  26.779  0.00  0.00     0.072 H 
BRANCH  47  49
ATOM     49  C21 non d ame     -35.561  10.091  28.458  0.00  0.00    -0.038 C 
ATOM     50  H31 non d ame     -35.577  10.375  29.510  0.00  0.00     0.036 H 
ATOM     51  H32 non d ame     -36.429  10.285  27.828  0.00  0.00     0.036 H 
BRANCH  49  52
ATOM     52  C22 non d ame     -35.326   8.565  28.421  0.00  0.00     0.018 C 
ATOM     53  H33 non d ame     -36.124   8.159  27.801  0.00  0.00     0.048 H 
ATOM     54  H34 non d ame     -34.285   8.434  28.125  0.00  0.00     0.048 H 
BRANCH  52  55
ATOM     55  C23 non d ame     -35.467   7.876  29.807  0.00  0.00     0.259 C 
ATOM     56  O7  non d ame     -35.664   8.522  30.784  0.00  0.00    -0.265 OA
BRANCH  55  57
ATOM     57  O8  non d ame     -35.346   6.462  29.897  0.00  0.00    -0.317 OA
BRANCH  57  58
ATOM     58  C29 non d ame     -35.487   5.949  31.224  0.00  0.00     0.052 C 
ATOM     59  H47 non d ame     -35.327   6.799  31.888  0.00  0.00     0.082 H 
ATOM     60  H48 non d ame     -36.440   5.420  31.236  0.00  0.00     0.082 H 
BRANCH  58  61
ATOM     61  C35 non d ame     -34.352   4.918  31.464  0.00  0.00    -0.034 A 
ATOM     62  C30 non d ame     -34.214   4.310  32.707  0.00  0.00    -0.075 A 
ATOM     63  C31 non d ame     -33.194   3.384  32.922  0.00  0.00    -0.082 A 
ATOM     64  H49 non d ame     -34.905   4.558  33.513  0.00  0.00     0.084 H 
ATOM     65  C32 non d ame     -32.307   3.070  31.888  0.00  0.00    -0.083 A 
ATOM     66  H50 non d ame     -33.089   2.908  33.897  0.00  0.00     0.083 H 
ATOM     67  C33 non d ame     -32.447   3.683  30.650  0.00  0.00    -0.082 A 
ATOM     68  H51 non d ame     -31.507   2.347  32.048  0.00  0.00     0.083 H 
ATOM     69  C34 non d ame     -33.466   4.606  30.430  0.00  0.00    -0.075 A 
ATOM     70  H52 non d ame     -31.752   3.437  29.846  0.00  0.00     0.083 H 
ATOM     71  H53 non d ame     -33.570   5.082  29.455  0.00  0.00     0.084 H 
ENDBRANCH  58  61
ENDBRANCH  57  58
ENDBRANCH  55  57
ENDBRANCH  52  55
ENDBRANCH  49  52
ENDBRANCH  47  49
BRANCH  47  72
ATOM     72  C24 non d ame     -33.122  10.540  28.562  0.00  0.00    -0.039 C 
ATOM     73  H35 non d ame     -33.346   9.665  29.172  0.00  0.00     0.036 H 
ATOM     74  H36 non d ame     -32.365  10.480  27.780  0.00  0.00     0.036 H 
BRANCH  72  75
ATOM     75  C25 non d ame     -32.680  11.712  29.561  0.00  0.00    -0.001 C 
ATOM     76  C26 non d ame     -31.221  12.317  29.103  0.00  0.00    -0.035 C 
ATOM     77  C27 non d ame     -30.395  12.324  30.176  0.00  0.00     0.085 C 
ATOM     78  H38 non d ame     -30.733  11.632  28.410  0.00  0.00     0.036 H 
ATOM     79  H39 non d ame     -31.317  13.373  28.848  0.00  0.00     0.036 H 
ATOM     80  N5  non d ame     -31.049  11.478  31.242  0.00  0.00    -0.049 N 
ATOM     81  H40 non d ame     -29.481  11.832  29.843  0.00  0.00     0.075 H 
ATOM     82  H41 non d ame     -30.365  13.359  30.514  0.00  0.00     0.075 H 
ATOM     83  C28 non d ame     -32.581  11.280  30.774  0.00  0.00     0.193 C 
ATOM     84  H42 non d ame     -30.587  10.580  31.218  0.00  0.00     0.280 HD
ATOM     85  H43 non d ame     -31.039  12.028  32.089  0.00  0.00     0.280 HD
ATOM     86  H44 non d ame     -33.383  11.844  31.251  0.00  0.00     0.129 H 
ATOM     87  H37 non d ame     -33.481  12.430  29.736  0.00  0.00     0.046 H 
BRANCH  83  88
ATOM     88  O6  non d ame     -32.959   9.907  30.889  0.00  0.00    -0.369 OA
ATOM     89  H45 non d ame     -33.869   9.850  31.189  0.00  0.00     0.212 HD
ENDBRANCH  83  88
ENDBRANCH  72  75
ENDBRANCH  47  72
ENDBRANCH  45  47
ENDBRANCH   1  43
BRANCH   1  90
ATOM     90  C16 non d ame     -36.685  14.956  26.015  0.00  0.00    -0.035 C 
ATOM     91  H21 non d ame     -36.366  14.758  24.992  0.00  0.00     0.037 H 
ATOM     92  H22 non d ame     -37.523  14.404  26.441  0.00  0.00     0.037 H 
BRANCH  90  93
ATOM     93  C17 non d ame     -37.078  16.467  26.069  0.00  0.00    -0.059 C 
ATOM     94  H23 non d ame     -36.275  16.999  26.579  0.00  0.00     0.038 H 
BRANCH  93  95
ATOM     95  C18 non d ame     -37.231  17.087  24.644  0.00  0.00    -0.073 C 
ATOM     96  H24 non d ame     -37.137  18.171  24.707  0.00  0.00     0.028 H 
ATOM     97  H25 non d ame     -36.453  16.693  23.990  0.00  0.00     0.028 H 
ATOM     98  H26 non d ame     -38.210  16.831  24.239  0.00  0.00     0.028 H 
ENDBRANCH  93  95
BRANCH  93  99
ATOM     99  C19 non d ame     -38.353  16.670  26.892  0.00  0.00    -0.073 C 
ATOM    100  H27 non d ame     -39.225  16.493  26.261  0.00  0.00     0.028 H 
ATOM    101  H28 non d ame     -38.362  15.971  27.728  0.00  0.00     0.028 H 
ATOM    102  H29 non d ame     -38.381  17.691  27.272  0.00  0.00     0.028 H 
ENDBRANCH  93  99
ENDBRANCH  90  93
ENDBRANCH   1  90
TORSDOF 26
ENDMDL
MODEL 16
REMARK VINA RESULT:      -6.5      3.002      7.525
REMARK  26 active torsions:
REMARK  status: ('A' for Active; 'I' for Inactive)
REMARK    1  A    between atoms: C2_2  and  C3_3 
REMARK    2  A    between atoms: C4_6  and  C5_7 
REMARK       I    between atoms: C5_7  and  N2_9 
REMARK    3  A    between atoms: N2_9  and  C6_10 
REMARK    4  A    between atoms: C6_10  and  C7_11 
REMARK    5  A    between atoms: C6_10  and  C8_13 
REMARK       I    between atoms: C7_11  and  N3_14 
REMARK    6  A    between atoms: N3_14  and  C9_15 
REMARK    7  A    between atoms: C9_15  and  C10_16 
REMARK    8  A    between atoms: C9_15  and  C11_18 
REMARK       I    between atoms: C10_16  and  N4_21 
REMARK    9  A    between atoms: C11_18  and  C12_19 
REMARK   10  A    between atoms: C11_18  and  C13_20 
REMARK   11  A    between atoms: N4_21  and  C14_22 
REMARK   12  A    between atoms: C14_22  and  C15_23 
REMARK   13  A    between atoms: C14_22  and  C16_25 
REMARK       I    between atoms: C15_23  and  N6_40 
REMARK   14  A    between atoms: C16_25  and  C17_26 
REMARK   15  A    between atoms: C17_26  and  C18_27 
REMARK   16  A    between atoms: C17_26  and  C19_28 
REMARK   17  A    between atoms: C20_29  and  C21_30 
REMARK   18  A    between atoms: C20_29  and  C24_33 
REMARK   19  A    between atoms: C20_29  and  N6_40 
REMARK   20  A    between atoms: C21_30  and  C22_31 
REMARK   21  A    between atoms: C22_31  and  C23_32 
REMARK   22  A    between atoms: C23_32  and  O8_43 
REMARK   23  A    between atoms: C24_33  and  C25_34 
REMARK   24  A    between atoms: C28_38  and  O6_39 
REMARK   25  A    between atoms: C29_42  and  O8_43 
REMARK   26  A    between atoms: C29_42  and  C35_49 
ROOT
ATOM      1  C14 non d ame     -35.688  10.027  26.296  0.00  0.00     0.089 C 
ATOM      2  H20 non d ame     -36.741   9.898  26.550  0.00  0.00     0.087 H 
ENDROOT
BRANCH   1   3
ATOM      3  N4  non d ame     -34.923   9.914  27.529  0.00  0.00    -0.346 N 
ATOM      4  C10 non d ame     -35.564  10.235  28.855  0.00  0.00     0.241 C 
ATOM      5  O4  non d ame     -36.697  10.584  28.905  0.00  0.00    -0.271 OA
ATOM      6  H19 non d ame     -33.960   9.617  27.464  0.00  0.00     0.163 HD
BRANCH   4   7
ATOM      7  C9  non d ame     -34.759  10.107  30.122  0.00  0.00     0.092 C 
ATOM      8  H11 non d ame     -34.162   9.196  30.077  0.00  0.00     0.088 H 
BRANCH   7   9
ATOM      9  N3  non d ame     -33.826  11.233  30.223  0.00  0.00    -0.346 N 
ATOM     10  C7  non d ame     -32.575  11.199  29.505  0.00  0.00     0.240 C 
ATOM     11  O3  non d ame     -32.304  10.274  28.842  0.00  0.00    -0.271 OA
ATOM     12  H10 non d ame     -34.045  12.038  30.793  0.00  0.00     0.163 HD
BRANCH  10  13
ATOM     13  C6  non d ame     -31.585  12.399  29.619  0.00  0.00     0.086 C 
ATOM     14  H6  non d ame     -30.755  12.330  28.916  0.00  0.00     0.086 H 
BRANCH  13  15
ATOM     15  N2  non d ame     -32.294  13.628  29.306  0.00  0.00    -0.343 N 
ATOM     16  C5  non d ame     -31.723  14.563  28.334  0.00  0.00     0.273 C 
ATOM     17  O2  non d ame     -30.691  14.319  27.812  0.00  0.00    -0.266 OA
ATOM     18  H5  non d ame     -33.175  13.830  29.759  0.00  0.00     0.163 HD
BRANCH  16  19
ATOM     19  C4  non d ame     -32.464  15.866  27.992  0.00  0.00     0.154 A 
ATOM     20  C1  non d ame     -32.519  16.521  26.721  0.00  0.00    -0.017 A 
ATOM     21  C2  non d ame     -33.319  17.665  26.936  0.00  0.00     0.077 A 
ATOM     22  H1  non d ame     -32.050  16.213  25.786  0.00  0.00     0.091 H 
ATOM     23  O1  non d ame     -33.677  17.658  28.187  0.00  0.00    -0.218 OA
ATOM     24  N1  non d ame     -33.190  16.618  28.824  0.00  0.00    -0.123 NA
BRANCH  21  25
ATOM     25  C3  non d ame     -33.693  18.712  25.896  0.00  0.00    -0.029 C 
ATOM     26  H2  non d ame     -34.777  18.749  25.791  0.00  0.00     0.036 H 
ATOM     27  H3  non d ame     -33.326  19.687  26.214  0.00  0.00     0.036 H 
ATOM     28  H4  non d ame     -33.244  18.450  24.938  0.00  0.00     0.036 H 
ENDBRANCH  21  25
ENDBRANCH  16  19
ENDBRANCH  13  15
BRANCH  13  29
ATOM     29  C8  non d ame     -31.031  12.465  31.020  0.00  0.00    -0.049 C 
ATOM     30  H7  non d ame     -30.555  11.516  31.268  0.00  0.00     0.030 H 
ATOM     31  H8  non d ame     -30.295  13.267  31.082  0.00  0.00     0.030 H 
ATOM     32  H9  non d ame     -31.841  12.660  31.723  0.00  0.00     0.030 H 
ENDBRANCH  13  29
ENDBRANCH  10  13
ENDBRANCH   7   9
BRANCH   7  33
ATOM     33  C11 non d ame     -35.717  10.119  31.349  0.00  0.00    -0.033 C 
ATOM     34  H12 non d ame     -36.648  10.590  31.034  0.00  0.00     0.042 H 
BRANCH  33  35
ATOM     35  C12 non d ame     -36.059   8.670  31.817  0.00  0.00    -0.071 C 
ATOM     36  H13 non d ame     -35.270   8.304  32.474  0.00  0.00     0.028 H 
ATOM     37  H14 non d ame     -37.007   8.676  32.355  0.00  0.00     0.028 H 
ATOM     38  H15 non d ame     -36.139   8.017  30.947  0.00  0.00     0.028 H 
ENDBRANCH  33  35
BRANCH  33  39
ATOM     39  C13 non d ame     -35.118  10.965  32.518  0.00  0.00    -0.071 C 
ATOM     40  H16 non d ame     -34.806  10.301  33.324  0.00  0.00     0.028 H 
ATOM     41  H17 non d ame     -34.257  11.527  32.156  0.00  0.00     0.028 H 
ATOM     42  H18 non d ame     -35.873  11.658  32.889  0.00  0.00     0.028 H 
ENDBRANCH  33  39
ENDBRANCH   7  33
ENDBRANCH   4   7
ENDBRANCH   1   3
BRANCH   1  43
ATOM     43  C15 non d ame     -35.187   8.941  25.301  0.00  0.00     0.240 C 
ATOM     44  O5  non d ame     -35.962   8.185  24.812  0.00  0.00    -0.271 OA
ATOM     45  N6  non d ame     -33.741   8.851  24.950  0.00  0.00    -0.355 N 
ATOM     46  H46 non d ame     -33.074   9.491  25.355  0.00  0.00     0.162 HD
BRANCH  45  47
ATOM     47  C20 non d ame     -33.281   7.814  24.001  0.00  0.00     0.013 C 
ATOM     48  H30 non d ame     -34.156   7.265  23.654  0.00  0.00     0.072 H 
BRANCH  47  49
ATOM     49  C21 non d ame     -32.329   6.876  24.709  0.00  0.00    -0.038 C 
ATOM     50  H31 non d ame     -31.891   6.255  23.927  0.00  0.00     0.036 H 
ATOM     51  H32 non d ame     -31.691   7.512  25.323  0.00  0.00     0.036 H 
BRANCH  49  52
ATOM     52  C22 non d ame     -33.048   5.913  25.679  0.00  0.00     0.018 C 
ATOM     53  H33 non d ame     -34.085   5.878  25.347  0.00  0.00     0.048 H 
ATOM     54  H34 non d ame     -32.449   5.002  25.689  0.00  0.00     0.048 H 
BRANCH  52  55
ATOM     55  C23 non d ame     -33.086   6.416  27.148  0.00  0.00     0.259 C 
ATOM     56  O7  non d ame     -32.625   7.473  27.436  0.00  0.00    -0.265 OA
BRANCH  55  57
ATOM     57  O8  non d ame     -33.668   5.593  28.152  0.00  0.00    -0.317 OA
BRANCH  57  58
ATOM     58  C29 non d ame     -32.869   4.463  28.513  0.00  0.00     0.052 C 
ATOM     59  H47 non d ame     -33.280   3.621  27.956  0.00  0.00     0.082 H 
ATOM     60  H48 non d ame     -31.835   4.769  28.354  0.00  0.00     0.082 H 
BRANCH  58  61
ATOM     61  C35 non d ame     -33.074   4.196  30.028  0.00  0.00    -0.034 A 
ATOM     62  C30 non d ame     -34.101   4.835  30.716  0.00  0.00    -0.075 A 
ATOM     63  C31 non d ame     -34.286   4.595  32.076  0.00  0.00    -0.082 A 
ATOM     64  H49 non d ame     -34.762   5.523  30.188  0.00  0.00     0.084 H 
ATOM     65  C32 non d ame     -33.436   3.714  32.751  0.00  0.00    -0.083 A 
ATOM     66  H50 non d ame     -35.092   5.096  32.612  0.00  0.00     0.083 H 
ATOM     67  C33 non d ame     -32.410   3.082  32.062  0.00  0.00    -0.082 A 
ATOM     68  H51 non d ame     -33.573   3.521  33.815  0.00  0.00     0.083 H 
ATOM     69  C34 non d ame     -32.224   3.317  30.701  0.00  0.00    -0.075 A 
ATOM     70  H52 non d ame     -31.748   2.397  32.592  0.00  0.00     0.083 H 
ATOM     71  H53 non d ame     -31.417   2.815  30.167  0.00  0.00     0.084 H 
ENDBRANCH  58  61
ENDBRANCH  57  58
ENDBRANCH  55  57
ENDBRANCH  52  55
ENDBRANCH  49  52
ENDBRANCH  47  49
BRANCH  47  72
ATOM     72  C24 non d ame     -32.565   8.472  22.824  0.00  0.00    -0.039 C 
ATOM     73  H35 non d ame     -32.497   7.700  22.057  0.00  0.00     0.036 H 
ATOM     74  H36 non d ame     -33.119   9.390  22.624  0.00  0.00     0.036 H 
BRANCH  72  75
ATOM     75  C25 non d ame     -31.068   8.897  23.202  0.00  0.00    -0.001 C 
ATOM     76  C26 non d ame     -30.979  10.528  23.393  0.00  0.00    -0.035 C 
ATOM     77  C27 non d ame     -29.958  11.000  22.639  0.00  0.00     0.085 C 
ATOM     78  H38 non d ame     -31.858  11.003  22.958  0.00  0.00     0.036 H 
ATOM     79  H39 non d ame     -30.677  10.769  24.412  0.00  0.00     0.036 H 
ATOM     80  N5  non d ame     -29.551   9.890  21.701  0.00  0.00    -0.049 N 
ATOM     81  H40 non d ame     -30.380  11.820  22.058  0.00  0.00     0.075 H 
ATOM     82  H41 non d ame     -29.144  11.191  23.338  0.00  0.00     0.075 H 
ATOM     83  C28 non d ame     -30.235   8.547  22.279  0.00  0.00     0.193 C 
ATOM     84  H42 non d ame     -29.967  10.104  20.806  0.00  0.00     0.280 HD
ATOM     85  H43 non d ame     -28.548   9.801  21.783  0.00  0.00     0.280 HD
ATOM     86  H44 non d ame     -29.640   7.810  22.818  0.00  0.00     0.129 H 
ATOM     87  H37 non d ame     -30.653   8.281  24.000  0.00  0.00     0.046 H 
BRANCH  83  88
ATOM     88  O6  non d ame     -30.873   7.826  21.223  0.00  0.00    -0.369 OA
ATOM     89  H45 non d ame     -30.663   6.892  21.301  0.00  0.00     0.212 HD
ENDBRANCH  83  88
ENDBRANCH  72  75
ENDBRANCH  47  72
ENDBRANCH  45  47
ENDBRANCH   1  43
BRANCH   1  90
ATOM     90  C16 non d ame     -35.468  11.408  25.700  0.00  0.00    -0.035 C 
ATOM     91  H21 non d ame     -35.000  11.233  24.731  0.00  0.00     0.037 H 
ATOM     92  H22 non d ame     -36.437  11.904  25.755  0.00  0.00     0.037 H 
BRANCH  90  93
ATOM     93  C17 non d ame     -34.472  12.291  26.516  0.00  0.00    -0.059 C 
ATOM     94  H23 non d ame     -34.278  11.784  27.462  0.00  0.00     0.038 H 
BRANCH  93  95
ATOM     95  C18 non d ame     -33.104  12.469  25.783  0.00  0.00    -0.073 C 
ATOM     96  H24 non d ame     -32.642  13.405  26.096  0.00  0.00     0.028 H 
ATOM     97  H25 non d ame     -32.445  11.638  26.034  0.00  0.00     0.028 H 
ATOM     98  H26 non d ame     -33.269  12.488  24.706  0.00  0.00     0.028 H 
ENDBRANCH  93  95
BRANCH  93  99
ATOM     99  C19 non d ame     -35.092  13.651  26.848  0.00  0.00    -0.073 C 
ATOM    100  H27 non d ame     -36.108  13.693  26.453  0.00  0.00     0.028 H 
ATOM    101  H28 non d ame     -35.118  13.785  27.930  0.00  0.00     0.028 H 
ATOM    102  H29 non d ame     -34.494  14.443  26.399  0.00  0.00     0.028 H 
ENDBRANCH  93  99
ENDBRANCH  90  93
ENDBRANCH   1  90
TORSDOF 26
ENDMDL
MODEL 17
REMARK VINA RESULT:      -6.5      3.017      8.104
REMARK  26 active torsions:
REMARK  status: ('A' for Active; 'I' for Inactive)
REMARK    1  A    between atoms: C2_2  and  C3_3 
REMARK    2  A    between atoms: C4_6  and  C5_7 
REMARK       I    between atoms: C5_7  and  N2_9 
REMARK    3  A    between atoms: N2_9  and  C6_10 
REMARK    4  A    between atoms: C6_10  and  C7_11 
REMARK    5  A    between atoms: C6_10  and  C8_13 
REMARK       I    between atoms: C7_11  and  N3_14 
REMARK    6  A    between atoms: N3_14  and  C9_15 
REMARK    7  A    between atoms: C9_15  and  C10_16 
REMARK    8  A    between atoms: C9_15  and  C11_18 
REMARK       I    between atoms: C10_16  and  N4_21 
REMARK    9  A    between atoms: C11_18  and  C12_19 
REMARK   10  A    between atoms: C11_18  and  C13_20 
REMARK   11  A    between atoms: N4_21  and  C14_22 
REMARK   12  A    between atoms: C14_22  and  C15_23 
REMARK   13  A    between atoms: C14_22  and  C16_25 
REMARK       I    between atoms: C15_23  and  N6_40 
REMARK   14  A    between atoms: C16_25  and  C17_26 
REMARK   15  A    between atoms: C17_26  and  C18_27 
REMARK   16  A    between atoms: C17_26  and  C19_28 
REMARK   17  A    between atoms: C20_29  and  C21_30 
REMARK   18  A    between atoms: C20_29  and  C24_33 
REMARK   19  A    between atoms: C20_29  and  N6_40 
REMARK   20  A    between atoms: C21_30  and  C22_31 
REMARK   21  A    between atoms: C22_31  and  C23_32 
REMARK   22  A    between atoms: C23_32  and  O8_43 
REMARK   23  A    between atoms: C24_33  and  C25_34 
REMARK   24  A    between atoms: C28_38  and  O6_39 
REMARK   25  A    between atoms: C29_42  and  O8_43 
REMARK   26  A    between atoms: C29_42  and  C35_49 
ROOT
ATOM      1  C14 non d ame     -34.486   9.102  30.094  0.00  0.00     0.089 C 
ATOM      2  H20 non d ame     -35.495   9.404  29.813  0.00  0.00     0.087 H 
ENDROOT
BRANCH   1   3
ATOM      3  N4  non d ame     -34.116   7.971  29.256  0.00  0.00    -0.346 N 
ATOM      4  C10 non d ame     -35.144   7.310  28.373  0.00  0.00     0.241 C 
ATOM      5  O4  non d ame     -36.263   7.704  28.356  0.00  0.00    -0.271 OA
ATOM      6  H19 non d ame     -33.159   7.650  29.287  0.00  0.00     0.163 HD
BRANCH   4   7
ATOM      7  C9  non d ame     -34.742   6.145  27.507  0.00  0.00     0.092 C 
ATOM      8  H11 non d ame     -35.499   5.364  27.583  0.00  0.00     0.088 H 
BRANCH   7   9
ATOM      9  N3  non d ame     -34.698   6.569  26.105  0.00  0.00    -0.346 N 
ATOM     10  C7  non d ame     -35.228   5.710  25.074  0.00  0.00     0.240 C 
ATOM     11  O3  non d ame     -35.692   4.673  25.356  0.00  0.00    -0.271 OA
ATOM     12  H10 non d ame     -34.299   7.461  25.846  0.00  0.00     0.163 HD
BRANCH  10  13
ATOM     13  C6  non d ame     -35.175   6.166  23.583  0.00  0.00     0.086 C 
ATOM     14  H6  non d ame     -35.782   7.051  23.391  0.00  0.00     0.086 H 
BRANCH  13  15
ATOM     15  N2  non d ame     -33.806   6.521  23.247  0.00  0.00    -0.343 N 
ATOM     16  C5  non d ame     -33.370   7.914  23.369  0.00  0.00     0.273 C 
ATOM     17  O2  non d ame     -34.130   8.742  23.735  0.00  0.00    -0.266 OA
ATOM     18  H5  non d ame     -33.164   5.807  22.932  0.00  0.00     0.163 HD
BRANCH  16  19
ATOM     19  C4  non d ame     -31.926   8.302  23.018  0.00  0.00     0.154 A 
ATOM     20  C1  non d ame     -30.783   7.442  22.983  0.00  0.00    -0.017 A 
ATOM     21  C2  non d ame     -29.709   8.279  22.608  0.00  0.00     0.077 A 
ATOM     22  H1  non d ame     -30.740   6.373  23.196  0.00  0.00     0.091 H 
ATOM     23  O1  non d ame     -30.189   9.477  22.448  0.00  0.00    -0.218 OA
ATOM     24  N1  non d ame     -31.480   9.516  22.682  0.00  0.00    -0.123 NA
BRANCH  21  25
ATOM     25  C3  non d ame     -28.257   7.855  22.425  0.00  0.00    -0.029 C 
ATOM     26  H2  non d ame     -27.637   8.352  23.170  0.00  0.00     0.036 H 
ATOM     27  H3  non d ame     -28.176   6.776  22.546  0.00  0.00     0.036 H 
ATOM     28  H4  non d ame     -27.921   8.135  21.426  0.00  0.00     0.036 H 
ENDBRANCH  21  25
ENDBRANCH  16  19
ENDBRANCH  13  15
BRANCH  13  29
ATOM     29  C8  non d ame     -35.651   5.046  22.695  0.00  0.00    -0.049 C 
ATOM     30  H7  non d ame     -36.587   5.334  22.217  0.00  0.00     0.030 H 
ATOM     31  H8  non d ame     -34.901   4.844  21.931  0.00  0.00     0.030 H 
ATOM     32  H9  non d ame     -35.810   4.149  23.294  0.00  0.00     0.030 H 
ENDBRANCH  13  29
ENDBRANCH  10  13
ENDBRANCH   7   9
BRANCH   7  33
ATOM     33  C11 non d ame     -33.334   5.639  27.938  0.00  0.00    -0.033 C 
ATOM     34  H12 non d ame     -33.107   6.086  28.906  0.00  0.00     0.042 H 
BRANCH  33  35
ATOM     35  C12 non d ame     -33.318   4.090  28.121  0.00  0.00    -0.071 C 
ATOM     36  H13 non d ame     -32.364   3.785  28.551  0.00  0.00     0.028 H 
ATOM     37  H14 non d ame     -34.128   3.794  28.788  0.00  0.00     0.028 H 
ATOM     38  H15 non d ame     -33.450   3.608  27.152  0.00  0.00     0.028 H 
ENDBRANCH  33  35
BRANCH  33  39
ATOM     39  C13 non d ame     -32.240   6.101  26.923  0.00  0.00    -0.071 C 
ATOM     40  H16 non d ame     -31.254   5.833  27.305  0.00  0.00     0.028 H 
ATOM     41  H17 non d ame     -32.404   5.611  25.963  0.00  0.00     0.028 H 
ATOM     42  H18 non d ame     -32.298   7.182  26.793  0.00  0.00     0.028 H 
ENDBRANCH  33  39
ENDBRANCH   7  33
ENDBRANCH   4   7
ENDBRANCH   1   3
BRANCH   1  43
ATOM     43  C15 non d ame     -33.450  10.241  29.875  0.00  0.00     0.240 C 
ATOM     44  O5  non d ame     -32.637  10.471  30.712  0.00  0.00    -0.271 OA
ATOM     45  N6  non d ame     -33.464  11.041  28.617  0.00  0.00    -0.355 N 
ATOM     46  H46 non d ame     -34.146  10.852  27.897  0.00  0.00     0.162 HD
BRANCH  45  47
ATOM     47  C20 non d ame     -32.472  12.120  28.423  0.00  0.00     0.013 C 
ATOM     48  H30 non d ame     -31.479  11.688  28.548  0.00  0.00     0.072 H 
BRANCH  47  49
ATOM     49  C21 non d ame     -32.699  13.200  29.456  0.00  0.00    -0.038 C 
ATOM     50  H31 non d ame     -33.558  13.770  29.101  0.00  0.00     0.036 H 
ATOM     51  H32 non d ame     -32.745  12.685  30.415  0.00  0.00     0.036 H 
BRANCH  49  52
ATOM     52  C22 non d ame     -31.523  14.196  29.551  0.00  0.00     0.018 C 
ATOM     53  H33 non d ame     -31.032  13.983  30.499  0.00  0.00     0.048 H 
ATOM     54  H34 non d ame     -30.972  14.092  28.616  0.00  0.00     0.048 H 
BRANCH  52  55
ATOM     55  C23 non d ame     -31.966  15.683  29.623  0.00  0.00     0.259 C 
ATOM     56  O7  non d ame     -31.373  16.457  30.303  0.00  0.00    -0.265 OA
BRANCH  55  57
ATOM     57  O8  non d ame     -33.098  16.110  28.875  0.00  0.00    -0.317 OA
BRANCH  57  58
ATOM     58  C29 non d ame     -32.827  16.344  27.490  0.00  0.00     0.052 C 
ATOM     59  H47 non d ame     -31.749  16.235  27.378  0.00  0.00     0.082 H 
ATOM     60  H48 non d ame     -33.502  15.686  26.943  0.00  0.00     0.082 H 
BRANCH  58  61
ATOM     61  C35 non d ame     -33.208  17.814  27.170  0.00  0.00    -0.034 A 
ATOM     62  C30 non d ame     -34.144  18.091  26.178  0.00  0.00    -0.075 A 
ATOM     63  C31 non d ame     -34.485  19.412  25.890  0.00  0.00    -0.082 A 
ATOM     64  H49 non d ame     -34.609  17.274  25.627  0.00  0.00     0.084 H 
ATOM     65  C32 non d ame     -33.885  20.458  26.596  0.00  0.00    -0.083 A 
ATOM     66  H50 non d ame     -35.221  19.625  25.113  0.00  0.00     0.083 H 
ATOM     67  C33 non d ame     -32.949  20.177  27.582  0.00  0.00    -0.082 A 
ATOM     68  H51 non d ame     -34.147  21.493  26.377  0.00  0.00     0.083 H 
ATOM     69  C34 non d ame     -32.606  18.858  27.875  0.00  0.00    -0.075 A 
ATOM     70  H52 non d ame     -32.481  20.995  28.129  0.00  0.00     0.083 H 
ATOM     71  H53 non d ame     -31.871  18.646  28.651  0.00  0.00     0.084 H 
ENDBRANCH  58  61
ENDBRANCH  57  58
ENDBRANCH  55  57
ENDBRANCH  52  55
ENDBRANCH  49  52
ENDBRANCH  47  49
BRANCH  47  72
ATOM     72  C24 non d ame     -32.620  12.712  27.023  0.00  0.00    -0.039 C 
ATOM     73  H35 non d ame     -33.382  12.107  26.531  0.00  0.00     0.036 H 
ATOM     74  H36 non d ame     -32.787  13.779  27.176  0.00  0.00     0.036 H 
BRANCH  72  75
ATOM     75  C25 non d ame     -31.273  12.562  26.170  0.00  0.00    -0.001 C 
ATOM     76  C26 non d ame     -30.997  13.937  25.311  0.00  0.00    -0.035 C 
ATOM     77  C27 non d ame     -30.782  13.607  24.015  0.00  0.00     0.085 C 
ATOM     78  H38 non d ame     -31.903  14.542  25.273  0.00  0.00     0.036 H 
ATOM     79  H39 non d ame     -30.053  14.388  25.619  0.00  0.00     0.036 H 
ATOM     80  N5  non d ame     -31.208  12.169  23.850  0.00  0.00    -0.049 N 
ATOM     81  H40 non d ame     -31.451  14.245  23.438  0.00  0.00     0.075 H 
ATOM     82  H41 non d ame     -29.704  13.677  23.872  0.00  0.00     0.075 H 
ATOM     83  C28 non d ame     -31.351  11.573  25.343  0.00  0.00     0.193 C 
ATOM     84  H42 non d ame     -32.123  12.188  23.423  0.00  0.00     0.280 HD
ATOM     85  H43 non d ame     -30.445  11.696  23.386  0.00  0.00     0.280 HD
ATOM     86  H44 non d ame     -30.585  10.913  25.752  0.00  0.00     0.129 H 
ATOM     87  H37 non d ame     -30.446  12.176  26.767  0.00  0.00     0.046 H 
BRANCH  83  88
ATOM     88  O6  non d ame     -32.580  10.857  25.474  0.00  0.00    -0.369 OA
ATOM     89  H45 non d ame     -32.747  10.673  26.401  0.00  0.00     0.212 HD
ENDBRANCH  83  88
ENDBRANCH  72  75
ENDBRANCH  47  72
ENDBRANCH  45  47
ENDBRANCH   1  43
BRANCH   1  90
ATOM     90  C16 non d ame     -34.466   8.667  31.551  0.00  0.00    -0.035 C 
ATOM     91  H21 non d ame     -34.626   7.589  31.532  0.00  0.00     0.037 H 
ATOM     92  H22 non d ame     -33.542   9.074  31.962  0.00  0.00     0.037 H 
BRANCH  90  93
ATOM     93  C17 non d ame     -35.630   9.269  32.401  0.00  0.00    -0.059 C 
ATOM     94  H23 non d ame     -35.799   8.605  33.248  0.00  0.00     0.038 H 
BRANCH  93  95
ATOM     95  C18 non d ame     -35.277  10.682  32.966  0.00  0.00    -0.073 C 
ATOM     96  H24 non d ame     -34.285  10.974  32.621  0.00  0.00     0.028 H 
ATOM     97  H25 non d ame     -36.011  11.408  32.616  0.00  0.00     0.028 H 
ATOM     98  H26 non d ame     -35.288  10.651  34.055  0.00  0.00     0.028 H 
ENDBRANCH  93  95
BRANCH  93  99
ATOM     99  C19 non d ame     -36.930   9.315  31.593  0.00  0.00    -0.073 C 
ATOM    100  H27 non d ame     -36.885   8.578  30.790  0.00  0.00     0.028 H 
ATOM    101  H28 non d ame     -37.773   9.089  32.247  0.00  0.00     0.028 H 
ATOM    102  H29 non d ame     -37.058  10.310  31.167  0.00  0.00     0.028 H 
ENDBRANCH  93  99
ENDBRANCH  90  93
ENDBRANCH   1  90
TORSDOF 26
ENDMDL
MODEL 18
REMARK VINA RESULT:      -6.5      3.502      8.320
REMARK  26 active torsions:
REMARK  status: ('A' for Active; 'I' for Inactive)
REMARK    1  A    between atoms: C2_2  and  C3_3 
REMARK    2  A    between atoms: C4_6  and  C5_7 
REMARK       I    between atoms: C5_7  and  N2_9 
REMARK    3  A    between atoms: N2_9  and  C6_10 
REMARK    4  A    between atoms: C6_10  and  C7_11 
REMARK    5  A    between atoms: C6_10  and  C8_13 
REMARK       I    between atoms: C7_11  and  N3_14 
REMARK    6  A    between atoms: N3_14  and  C9_15 
REMARK    7  A    between atoms: C9_15  and  C10_16 
REMARK    8  A    between atoms: C9_15  and  C11_18 
REMARK       I    between atoms: C10_16  and  N4_21 
REMARK    9  A    between atoms: C11_18  and  C12_19 
REMARK   10  A    between atoms: C11_18  and  C13_20 
REMARK   11  A    between atoms: N4_21  and  C14_22 
REMARK   12  A    between atoms: C14_22  and  C15_23 
REMARK   13  A    between atoms: C14_22  and  C16_25 
REMARK       I    between atoms: C15_23  and  N6_40 
REMARK   14  A    between atoms: C16_25  and  C17_26 
REMARK   15  A    between atoms: C17_26  and  C18_27 
REMARK   16  A    between atoms: C17_26  and  C19_28 
REMARK   17  A    between atoms: C20_29  and  C21_30 
REMARK   18  A    between atoms: C20_29  and  C24_33 
REMARK   19  A    between atoms: C20_29  and  N6_40 
REMARK   20  A    between atoms: C21_30  and  C22_31 
REMARK   21  A    between atoms: C22_31  and  C23_32 
REMARK   22  A    between atoms: C23_32  and  O8_43 
REMARK   23  A    between atoms: C24_33  and  C25_34 
REMARK   24  A    between atoms: C28_38  and  O6_39 
REMARK   25  A    between atoms: C29_42  and  O8_43 
REMARK   26  A    between atoms: C29_42  and  C35_49 
ROOT
ATOM      1  C14 non d ame     -32.816  13.024  28.077  0.00  0.00     0.089 C 
ATOM      2  H20 non d ame     -33.897  13.128  27.977  0.00  0.00     0.087 H 
ENDROOT
BRANCH   1   3
ATOM      3  N4  non d ame     -32.450  11.721  27.542  0.00  0.00    -0.346 N 
ATOM      4  C10 non d ame     -33.099  11.204  26.283  0.00  0.00     0.241 C 
ATOM      5  O4  non d ame     -33.917  11.854  25.719  0.00  0.00    -0.271 OA
ATOM      6  H19 non d ame     -31.754  11.182  28.038  0.00  0.00     0.163 HD
BRANCH   4   7
ATOM      7  C9  non d ame     -32.704   9.856  25.741  0.00  0.00     0.092 C 
ATOM      8  H11 non d ame     -31.748   9.561  26.174  0.00  0.00     0.088 H 
BRANCH   7   9
ATOM      9  N3  non d ame     -33.693   8.854  26.152  0.00  0.00    -0.346 N 
ATOM     10  C7  non d ame     -33.685   8.346  27.502  0.00  0.00     0.240 C 
ATOM     11  O3  non d ame     -32.890   8.731  28.269  0.00  0.00    -0.271 OA
ATOM     12  H10 non d ame     -34.385   8.512  25.500  0.00  0.00     0.163 HD
BRANCH  10  13
ATOM     13  C6  non d ame     -34.738   7.278  27.933  0.00  0.00     0.086 C 
ATOM     14  H6  non d ame     -34.873   6.494  27.188  0.00  0.00     0.086 H 
BRANCH  13  15
ATOM     15  N2  non d ame     -34.277   6.624  29.146  0.00  0.00    -0.343 N 
ATOM     16  C5  non d ame     -34.000   5.186  29.130  0.00  0.00     0.273 C 
ATOM     17  O2  non d ame     -34.153   4.564  28.136  0.00  0.00    -0.266 OA
ATOM     18  H5  non d ame     -34.151   7.163  29.991  0.00  0.00     0.163 HD
BRANCH  16  19
ATOM     19  C4  non d ame     -33.510   4.482  30.405  0.00  0.00     0.154 A 
ATOM     20  C1  non d ame     -32.422   3.561  30.520  0.00  0.00    -0.017 A 
ATOM     21  C2  non d ame     -32.387   3.209  31.888  0.00  0.00     0.077 A 
ATOM     22  H1  non d ame     -31.759   3.202  29.732  0.00  0.00     0.091 H 
ATOM     23  O1  non d ame     -33.346   3.859  32.480  0.00  0.00    -0.218 OA
ATOM     24  N1  non d ame     -34.016   4.608  31.635  0.00  0.00    -0.123 NA
BRANCH  21  25
ATOM     25  C3  non d ame     -31.406   2.247  32.547  0.00  0.00    -0.029 C 
ATOM     26  H2  non d ame     -31.174   1.436  31.857  0.00  0.00     0.036 H 
ATOM     27  H3  non d ame     -30.491   2.780  32.801  0.00  0.00     0.036 H 
ATOM     28  H4  non d ame     -31.852   1.838  33.453  0.00  0.00     0.036 H 
ENDBRANCH  21  25
ENDBRANCH  16  19
ENDBRANCH  13  15
BRANCH  13  29
ATOM     29  C8  non d ame     -36.066   7.949  28.180  0.00  0.00    -0.049 C 
ATOM     30  H7  non d ame     -35.985   9.011  27.948  0.00  0.00     0.030 H 
ATOM     31  H8  non d ame     -36.825   7.495  27.544  0.00  0.00     0.030 H 
ATOM     32  H9  non d ame     -36.346   7.825  29.226  0.00  0.00     0.030 H 
ENDBRANCH  13  29
ENDBRANCH  10  13
ENDBRANCH   7   9
BRANCH   7  33
ATOM     33  C11 non d ame     -32.649   9.918  24.186  0.00  0.00    -0.033 C 
ATOM     34  H12 non d ame     -33.088  10.867  23.879  0.00  0.00     0.042 H 
BRANCH  33  35
ATOM     35  C12 non d ame     -31.177   9.894  23.669  0.00  0.00    -0.071 C 
ATOM     36  H13 non d ame     -30.585   9.219  24.288  0.00  0.00     0.028 H 
ATOM     37  H14 non d ame     -31.161   9.547  22.636  0.00  0.00     0.028 H 
ATOM     38  H15 non d ame     -30.756  10.898  23.722  0.00  0.00     0.028 H 
ENDBRANCH  33  35
BRANCH  33  39
ATOM     39  C13 non d ame     -33.492   8.766  23.550  0.00  0.00    -0.071 C 
ATOM     40  H16 non d ame     -33.920   8.150  24.341  0.00  0.00     0.028 H 
ATOM     41  H17 non d ame     -34.294   9.194  22.947  0.00  0.00     0.028 H 
ATOM     42  H18 non d ame     -32.850   8.153  22.917  0.00  0.00     0.028 H 
ENDBRANCH  33  39
ENDBRANCH   7  33
ENDBRANCH   4   7
ENDBRANCH   1   3
BRANCH   1  43
ATOM     43  C15 non d ame     -32.046  14.119  27.284  0.00  0.00     0.240 C 
ATOM     44  O5  non d ame     -30.977  14.479  27.660  0.00  0.00    -0.271 OA
ATOM     45  N6  non d ame     -32.636  14.711  26.050  0.00  0.00    -0.355 N 
ATOM     46  H46 non d ame     -33.541  14.410  25.718  0.00  0.00     0.162 HD
BRANCH  45  47
ATOM     47  C20 non d ame     -31.891  15.750  25.307  0.00  0.00     0.013 C 
ATOM     48  H30 non d ame     -30.839  15.667  25.578  0.00  0.00     0.072 H 
BRANCH  47  49
ATOM     49  C21 non d ame     -32.417  17.114  25.691  0.00  0.00    -0.038 C 
ATOM     50  H31 non d ame     -31.671  17.540  26.362  0.00  0.00     0.036 H 
ATOM     51  H32 non d ame     -32.654  17.614  24.751  0.00  0.00     0.036 H 
BRANCH  49  52
ATOM     52  C22 non d ame     -33.735  17.044  26.493  0.00  0.00     0.018 C 
ATOM     53  H33 non d ame     -34.448  17.657  25.942  0.00  0.00     0.048 H 
ATOM     54  H34 non d ame     -33.932  15.983  26.645  0.00  0.00     0.048 H 
BRANCH  52  55
ATOM     55  C23 non d ame     -33.639  17.670  27.912  0.00  0.00     0.259 C 
ATOM     56  O7  non d ame     -32.885  17.228  28.716  0.00  0.00    -0.265 OA
BRANCH  55  57
ATOM     57  O8  non d ame     -34.474  18.773  28.245  0.00  0.00    -0.317 OA
BRANCH  57  58
ATOM     58  C29 non d ame     -34.261  19.930  27.432  0.00  0.00     0.052 C 
ATOM     59  H47 non d ame     -34.057  20.745  28.127  0.00  0.00     0.082 H 
ATOM     60  H48 non d ame     -33.511  19.641  26.697  0.00  0.00     0.082 H 
BRANCH  58  61
ATOM     61  C35 non d ame     -35.586  20.241  26.686  0.00  0.00    -0.034 A 
ATOM     62  C30 non d ame     -35.785  19.767  25.393  0.00  0.00    -0.075 A 
ATOM     63  C31 non d ame     -36.975  20.046  24.722  0.00  0.00    -0.082 A 
ATOM     64  H49 non d ame     -35.009  19.176  24.905  0.00  0.00     0.084 H 
ATOM     65  C32 non d ame     -37.967  20.806  25.348  0.00  0.00    -0.083 A 
ATOM     66  H50 non d ame     -37.129  19.671  23.710  0.00  0.00     0.083 H 
ATOM     67  C33 non d ame     -37.762  21.280  26.637  0.00  0.00    -0.082 A 
ATOM     68  H51 non d ame     -38.900  21.028  24.831  0.00  0.00     0.083 H 
ATOM     69  C34 non d ame     -36.576  21.001  27.312  0.00  0.00    -0.075 A 
ATOM     70  H52 non d ame     -38.537  21.875  27.121  0.00  0.00     0.083 H 
ATOM     71  H53 non d ame     -36.423  21.377  28.324  0.00  0.00     0.084 H 
ENDBRANCH  58  61
ENDBRANCH  57  58
ENDBRANCH  55  57
ENDBRANCH  52  55
ENDBRANCH  49  52
ENDBRANCH  47  49
BRANCH  47  72
ATOM     72  C24 non d ame     -32.070  15.539  23.805  0.00  0.00    -0.039 C 
ATOM     73  H35 non d ame     -32.477  14.533  23.700  0.00  0.00     0.036 H 
ATOM     74  H36 non d ame     -32.644  16.398  23.458  0.00  0.00     0.036 H 
BRANCH  72  75
ATOM     75  C25 non d ame     -30.667  15.565  23.031  0.00  0.00    -0.001 C 
ATOM     76  C26 non d ame     -30.865  16.215  21.534  0.00  0.00    -0.035 C 
ATOM     77  C27 non d ame     -30.323  15.376  20.619  0.00  0.00     0.085 C 
ATOM     78  H38 non d ame     -31.922  16.232  21.271  0.00  0.00     0.036 H 
ATOM     79  H39 non d ame     -30.264  17.120  21.437  0.00  0.00     0.036 H 
ATOM     80  N5  non d ame     -30.067  14.064  21.320  0.00  0.00    -0.049 N 
ATOM     81  H40 non d ame     -31.096  15.231  19.864  0.00  0.00     0.075 H 
ATOM     82  H41 non d ame     -29.369  15.823  20.343  0.00  0.00     0.075 H 
ATOM     83  C28 non d ame     -30.184  14.374  22.900  0.00  0.00     0.193 C 
ATOM     84  H42 non d ame     -30.822  13.447  21.057  0.00  0.00     0.280 HD
ATOM     85  H43 non d ame     -29.112  13.810  21.111  0.00  0.00     0.280 HD
ATOM     86  H44 non d ame     -29.288  14.455  23.516  0.00  0.00     0.129 H 
ATOM     87  H37 non d ame     -29.864  15.971  23.647  0.00  0.00     0.046 H 
BRANCH  83  88
ATOM     88  O6  non d ame     -30.998  13.389  23.537  0.00  0.00    -0.369 OA
ATOM     89  H45 non d ame     -31.506  12.915  22.874  0.00  0.00     0.212 HD
ENDBRANCH  83  88
ENDBRANCH  72  75
ENDBRANCH  47  72
ENDBRANCH  45  47
ENDBRANCH   1  43
BRANCH   1  90
ATOM     90  C16 non d ame     -32.425  13.086  29.544  0.00  0.00    -0.035 C 
ATOM     91  H21 non d ame     -31.565  13.753  29.586  0.00  0.00     0.037 H 
ATOM     92  H22 non d ame     -33.341  13.343  30.076  0.00  0.00     0.037 H 
BRANCH  90  93
ATOM     93  C17 non d ame     -31.948  11.716  30.124  0.00  0.00    -0.059 C 
ATOM     94  H23 non d ame     -31.780  11.042  29.284  0.00  0.00     0.038 H 
BRANCH  93  95
ATOM     95  C18 non d ame     -30.603  11.844  30.909  0.00  0.00    -0.073 C 
ATOM     96  H24 non d ame     -29.968  10.988  30.684  0.00  0.00     0.028 H 
ATOM     97  H25 non d ame     -30.095  12.761  30.611  0.00  0.00     0.028 H 
ATOM     98  H26 non d ame     -30.808  11.874  31.979  0.00  0.00     0.028 H 
ENDBRANCH  93  95
BRANCH  93  99
ATOM     99  C19 non d ame     -33.033  11.086  31.002  0.00  0.00    -0.073 C 
ATOM    100  H27 non d ame     -33.688  10.470  30.385  0.00  0.00     0.028 H 
ATOM    101  H28 non d ame     -32.566  10.466  31.767  0.00  0.00     0.028 H 
ATOM    102  H29 non d ame     -33.616  11.873  31.479  0.00  0.00     0.028 H 
ENDBRANCH  93  99
ENDBRANCH  90  93
ENDBRANCH   1  90
TORSDOF 26
ENDMDL
MODEL 19
REMARK VINA RESULT:      -6.4      3.084      7.472
REMARK  26 active torsions:
REMARK  status: ('A' for Active; 'I' for Inactive)
REMARK    1  A    between atoms: C2_2  and  C3_3 
REMARK    2  A    between atoms: C4_6  and  C5_7 
REMARK       I    between atoms: C5_7  and  N2_9 
REMARK    3  A    between atoms: N2_9  and  C6_10 
REMARK    4  A    between atoms: C6_10  and  C7_11 
REMARK    5  A    between atoms: C6_10  and  C8_13 
REMARK       I    between atoms: C7_11  and  N3_14 
REMARK    6  A    between atoms: N3_14  and  C9_15 
REMARK    7  A    between atoms: C9_15  and  C10_16 
REMARK    8  A    between atoms: C9_15  and  C11_18 
REMARK       I    between atoms: C10_16  and  N4_21 
REMARK    9  A    between atoms: C11_18  and  C12_19 
REMARK   10  A    between atoms: C11_18  and  C13_20 
REMARK   11  A    between atoms: N4_21  and  C14_22 
REMARK   12  A    between atoms: C14_22  and  C15_23 
REMARK   13  A    between atoms: C14_22  and  C16_25 
REMARK       I    between atoms: C15_23  and  N6_40 
REMARK   14  A    between atoms: C16_25  and  C17_26 
REMARK   15  A    between atoms: C17_26  and  C18_27 
REMARK   16  A    between atoms: C17_26  and  C19_28 
REMARK   17  A    between atoms: C20_29  and  C21_30 
REMARK   18  A    between atoms: C20_29  and  C24_33 
REMARK   19  A    between atoms: C20_29  and  N6_40 
REMARK   20  A    between atoms: C21_30  and  C22_31 
REMARK   21  A    between atoms: C22_31  and  C23_32 
REMARK   22  A    between atoms: C23_32  and  O8_43 
REMARK   23  A    between atoms: C24_33  and  C25_34 
REMARK   24  A    between atoms: C28_38  and  O6_39 
REMARK   25  A    between atoms: C29_42  and  O8_43 
REMARK   26  A    between atoms: C29_42  and  C35_49 
ROOT
ATOM      1  C14 non d ame     -36.401  15.743  26.266  0.00  0.00     0.089 C 
ATOM      2  H20 non d ame     -37.104  16.217  26.953  0.00  0.00     0.087 H 
ENDROOT
BRANCH   1   3
ATOM      3  N4  non d ame     -35.063  15.938  26.805  0.00  0.00    -0.346 N 
ATOM      4  C10 non d ame     -34.755  17.138  27.663  0.00  0.00     0.241 C 
ATOM      5  O4  non d ame     -35.599  17.936  27.905  0.00  0.00    -0.271 OA
ATOM      6  H19 non d ame     -34.358  15.248  26.585  0.00  0.00     0.163 HD
BRANCH   4   7
ATOM      7  C9  non d ame     -33.366  17.320  28.217  0.00  0.00     0.092 C 
ATOM      8  H11 non d ame     -33.430  17.793  29.197  0.00  0.00     0.088 H 
BRANCH   7   9
ATOM      9  N3  non d ame     -32.739  16.009  28.407  0.00  0.00    -0.346 N 
ATOM     10  C7  non d ame     -31.821  15.801  29.500  0.00  0.00     0.240 C 
ATOM     11  O3  non d ame     -31.575  16.678  30.235  0.00  0.00    -0.271 OA
ATOM     12  H10 non d ame     -32.941  15.243  27.781  0.00  0.00     0.163 HD
BRANCH  10  13
ATOM     13  C6  non d ame     -31.155  14.404  29.696  0.00  0.00     0.086 C 
ATOM     14  H6  non d ame     -30.531  14.356  30.588  0.00  0.00     0.086 H 
BRANCH  13  15
ATOM     15  N2  non d ame     -32.197  13.404  29.862  0.00  0.00    -0.343 N 
ATOM     16  C5  non d ame     -31.899  12.166  30.587  0.00  0.00     0.273 C 
ATOM     17  O2  non d ame     -30.819  11.983  31.029  0.00  0.00    -0.266 OA
ATOM     18  H5  non d ame     -33.117  13.567  29.479  0.00  0.00     0.163 HD
BRANCH  16  19
ATOM     19  C4  non d ame     -32.992  11.101  30.772  0.00  0.00     0.154 A 
ATOM     20  C1  non d ame     -34.048  11.105  31.737  0.00  0.00    -0.017 A 
ATOM     21  C2  non d ame     -34.770   9.916  31.489  0.00  0.00     0.077 A 
ATOM     22  H1  non d ame     -34.259  11.855  32.499  0.00  0.00     0.091 H 
ATOM     23  O1  non d ame     -34.189   9.309  30.496  0.00  0.00    -0.218 OA
ATOM     24  N1  non d ame     -33.149   9.981  30.061  0.00  0.00    -0.123 NA
BRANCH  21  25
ATOM     25  C3  non d ame     -36.002   9.435  32.246  0.00  0.00    -0.029 C 
ATOM     26  H2  non d ame     -36.646   8.873  31.571  0.00  0.00     0.036 H 
ATOM     27  H3  non d ame     -35.694   8.795  33.071  0.00  0.00     0.036 H 
ATOM     28  H4  non d ame     -36.547  10.294  32.636  0.00  0.00     0.036 H 
ENDBRANCH  21  25
ENDBRANCH  16  19
ENDBRANCH  13  15
BRANCH  13  29
ATOM     29  C8  non d ame     -30.310  14.074  28.492  0.00  0.00    -0.049 C 
ATOM     30  H7  non d ame     -30.680  13.160  28.028  0.00  0.00     0.030 H 
ATOM     31  H8  non d ame     -30.364  14.892  27.775  0.00  0.00     0.030 H 
ATOM     32  H9  non d ame     -29.275  13.930  28.803  0.00  0.00     0.030 H 
ENDBRANCH  13  29
ENDBRANCH  10  13
ENDBRANCH   7   9
BRANCH   7  33
ATOM     33  C11 non d ame     -32.515  18.158  27.217  0.00  0.00    -0.033 C 
ATOM     34  H12 non d ame     -31.483  17.818  27.298  0.00  0.00     0.042 H 
BRANCH  33  35
ATOM     35  C12 non d ame     -32.973  17.922  25.744  0.00  0.00    -0.071 C 
ATOM     36  H13 non d ame     -32.258  18.383  25.063  0.00  0.00     0.028 H 
ATOM     37  H14 non d ame     -33.025  16.852  25.547  0.00  0.00     0.028 H 
ATOM     38  H15 non d ame     -33.956  18.368  25.594  0.00  0.00     0.028 H 
ENDBRANCH  33  35
BRANCH  33  39
ATOM     39  C13 non d ame     -32.554  19.676  27.586  0.00  0.00    -0.071 C 
ATOM     40  H16 non d ame     -32.861  20.254  26.714  0.00  0.00     0.028 H 
ATOM     41  H17 non d ame     -33.264  19.835  28.398  0.00  0.00     0.028 H 
ATOM     42  H18 non d ame     -31.562  19.998  27.905  0.00  0.00     0.028 H 
ENDBRANCH  33  39
ENDBRANCH   7  33
ENDBRANCH   4   7
ENDBRANCH   1   3
BRANCH   1  43
ATOM     43  C15 non d ame     -36.660  14.216  26.122  0.00  0.00     0.240 C 
ATOM     44  O5  non d ame     -37.302  13.809  25.208  0.00  0.00    -0.271 OA
ATOM     45  N6  non d ame     -36.101  13.260  27.119  0.00  0.00    -0.355 N 
ATOM     46  H46 non d ame     -35.550  13.593  27.897  0.00  0.00     0.162 HD
BRANCH  45  47
ATOM     47  C20 non d ame     -36.355  11.811  26.967  0.00  0.00     0.013 C 
ATOM     48  H30 non d ame     -36.425  11.592  25.902  0.00  0.00     0.072 H 
BRANCH  47  49
ATOM     49  C21 non d ame     -37.654  11.456  27.654  0.00  0.00    -0.038 C 
ATOM     50  H31 non d ame     -38.122  12.408  27.909  0.00  0.00     0.036 H 
ATOM     51  H32 non d ame     -38.161  10.762  26.984  0.00  0.00     0.036 H 
BRANCH  49  52
ATOM     52  C22 non d ame     -37.443  10.703  28.986  0.00  0.00     0.018 C 
ATOM     53  H33 non d ame     -37.171   9.685  28.709  0.00  0.00     0.048 H 
ATOM     54  H34 non d ame     -36.749  11.315  29.564  0.00  0.00     0.048 H 
BRANCH  52  55
ATOM     55  C23 non d ame     -38.729  10.583  29.849  0.00  0.00     0.259 C 
ATOM     56  O7  non d ame     -39.368  11.549  30.117  0.00  0.00    -0.265 OA
BRANCH  55  57
ATOM     57  O8  non d ame     -39.131   9.305  30.326  0.00  0.00    -0.317 OA
BRANCH  57  58
ATOM     58  C29 non d ame     -39.051   8.266  29.347  0.00  0.00     0.052 C 
ATOM     59  H47 non d ame     -39.974   7.695  29.447  0.00  0.00     0.082 H 
ATOM     60  H48 non d ame     -38.817   8.764  28.406  0.00  0.00     0.082 H 
BRANCH  58  61
ATOM     61  C35 non d ame     -37.860   7.344  29.723  0.00  0.00    -0.034 A 
ATOM     62  C30 non d ame     -36.761   7.245  28.875  0.00  0.00    -0.075 A 
ATOM     63  C31 non d ame     -35.692   6.417  29.212  0.00  0.00    -0.082 A 
ATOM     64  H49 non d ame     -36.739   7.815  27.946  0.00  0.00     0.084 H 
ATOM     65  C32 non d ame     -35.725   5.684  30.402  0.00  0.00    -0.083 A 
ATOM     66  H50 non d ame     -34.832   6.342  28.547  0.00  0.00     0.083 H 
ATOM     67  C33 non d ame     -36.825   5.784  31.243  0.00  0.00    -0.082 A 
ATOM     68  H51 non d ame     -34.892   5.035  30.674  0.00  0.00     0.083 H 
ATOM     69  C34 non d ame     -37.895   6.612  30.911  0.00  0.00    -0.075 A 
ATOM     70  H52 non d ame     -36.848   5.210  32.170  0.00  0.00     0.083 H 
ATOM     71  H53 non d ame     -38.755   6.686  31.578  0.00  0.00     0.084 H 
ENDBRANCH  58  61
ENDBRANCH  57  58
ENDBRANCH  55  57
ENDBRANCH  52  55
ENDBRANCH  49  52
ENDBRANCH  47  49
BRANCH  47  72
ATOM     72  C24 non d ame     -35.212  11.017  27.598  0.00  0.00    -0.039 C 
ATOM     73  H35 non d ame     -34.613  11.751  28.138  0.00  0.00     0.036 H 
ATOM     74  H36 non d ame     -35.690  10.200  28.138  0.00  0.00     0.036 H 
BRANCH  72  75
ATOM     75  C25 non d ame     -34.264  10.358  26.486  0.00  0.00    -0.001 C 
ATOM     76  C26 non d ame     -34.061   8.757  26.802  0.00  0.00    -0.035 C 
ATOM     77  C27 non d ame     -32.736   8.477  26.797  0.00  0.00     0.085 C 
ATOM     78  H38 non d ame     -34.365   8.536  27.824  0.00  0.00     0.036 H 
ATOM     79  H39 non d ame     -34.450   8.161  25.976  0.00  0.00     0.036 H 
ATOM     80  N5  non d ame     -32.005   9.797  26.833  0.00  0.00    -0.049 N 
ATOM     81  H40 non d ame     -32.549   7.941  27.728  0.00  0.00     0.075 H 
ATOM     82  H41 non d ame     -32.544   7.991  25.841  0.00  0.00     0.075 H 
ATOM     83  C28 non d ame     -33.103  10.923  26.468  0.00  0.00     0.193 C 
ATOM     84  H42 non d ame     -31.708   9.934  27.789  0.00  0.00     0.280 HD
ATOM     85  H43 non d ame     -31.319   9.764  26.091  0.00  0.00     0.280 HD
ATOM     86  H44 non d ame     -33.120  11.380  25.479  0.00  0.00     0.129 H 
ATOM     87  H37 non d ame     -34.564  10.630  25.474  0.00  0.00     0.046 H 
BRANCH  83  88
ATOM     88  O6  non d ame     -33.018  12.011  27.390  0.00  0.00    -0.369 OA
ATOM     89  H45 non d ame     -32.154  12.423  27.320  0.00  0.00     0.212 HD
ENDBRANCH  83  88
ENDBRANCH  72  75
ENDBRANCH  47  72
ENDBRANCH  45  47
ENDBRANCH   1  43
BRANCH   1  90
ATOM     90  C16 non d ame     -36.489  16.408  24.902  0.00  0.00    -0.035 C 
ATOM     91  H21 non d ame     -35.498  16.822  24.719  0.00  0.00     0.037 H 
ATOM     92  H22 non d ame     -36.892  15.645  24.235  0.00  0.00     0.037 H 
BRANCH  90  93
ATOM     93  C17 non d ame     -37.485  17.609  24.852  0.00  0.00    -0.059 C 
ATOM     94  H23 non d ame     -38.042  17.539  23.919  0.00  0.00     0.038 H 
BRANCH  93  95
ATOM     95  C18 non d ame     -38.515  17.569  26.026  0.00  0.00    -0.073 C 
ATOM     96  H24 non d ame     -38.900  16.556  26.138  0.00  0.00     0.028 H 
ATOM     97  H25 non d ame     -38.025  17.875  26.951  0.00  0.00     0.028 H 
ATOM     98  H26 non d ame     -39.339  18.249  25.810  0.00  0.00     0.028 H 
ENDBRANCH  93  95
BRANCH  93  99
ATOM     99  C19 non d ame     -36.733  18.943  24.833  0.00  0.00    -0.073 C 
ATOM    100  H27 non d ame     -35.900  18.880  24.132  0.00  0.00     0.028 H 
ATOM    101  H28 non d ame     -37.410  19.738  24.522  0.00  0.00     0.028 H 
ATOM    102  H29 non d ame     -36.353  19.160  25.831  0.00  0.00     0.028 H 
ENDBRANCH  93  99
ENDBRANCH  90  93
ENDBRANCH   1  90
TORSDOF 26
ENDMDL
MODEL 20
REMARK VINA RESULT:      -6.4      3.397      9.002
REMARK  26 active torsions:
REMARK  status: ('A' for Active; 'I' for Inactive)
REMARK    1  A    between atoms: C2_2  and  C3_3 
REMARK    2  A    between atoms: C4_6  and  C5_7 
REMARK       I    between atoms: C5_7  and  N2_9 
REMARK    3  A    between atoms: N2_9  and  C6_10 
REMARK    4  A    between atoms: C6_10  and  C7_11 
REMARK    5  A    between atoms: C6_10  and  C8_13 
REMARK       I    between atoms: C7_11  and  N3_14 
REMARK    6  A    between atoms: N3_14  and  C9_15 
REMARK    7  A    between atoms: C9_15  and  C10_16 
REMARK    8  A    between atoms: C9_15  and  C11_18 
REMARK       I    between atoms: C10_16  and  N4_21 
REMARK    9  A    between atoms: C11_18  and  C12_19 
REMARK   10  A    between atoms: C11_18  and  C13_20 
REMARK   11  A    between atoms: N4_21  and  C14_22 
REMARK   12  A    between atoms: C14_22  and  C15_23 
REMARK   13  A    between atoms: C14_22  and  C16_25 
REMARK       I    between atoms: C15_23  and  N6_40 
REMARK   14  A    between atoms: C16_25  and  C17_26 
REMARK   15  A    between atoms: C17_26  and  C18_27 
REMARK   16  A    between atoms: C17_26  and  C19_28 
REMARK   17  A    between atoms: C20_29  and  C21_30 
REMARK   18  A    between atoms: C20_29  and  C24_33 
REMARK   19  A    between atoms: C20_29  and  N6_40 
REMARK   20  A    between atoms: C21_30  and  C22_31 
REMARK   21  A    between atoms: C22_31  and  C23_32 
REMARK   22  A    between atoms: C23_32  and  O8_43 
REMARK   23  A    between atoms: C24_33  and  C25_34 
REMARK   24  A    between atoms: C28_38  and  O6_39 
REMARK   25  A    between atoms: C29_42  and  O8_43 
REMARK   26  A    between atoms: C29_42  and  C35_49 
ROOT
ATOM      1  C14 non d ame     -34.842   8.421  31.248  0.00  0.00     0.089 C 
ATOM      2  H20 non d ame     -34.409   8.479  32.247  0.00  0.00     0.087 H 
ENDROOT
BRANCH   1   3
ATOM      3  N4  non d ame     -33.972   9.166  30.350  0.00  0.00    -0.346 N 
ATOM      4  C10 non d ame     -33.462  10.530  30.742  0.00  0.00     0.241 C 
ATOM      5  O4  non d ame     -33.768  11.009  31.784  0.00  0.00    -0.271 OA
ATOM      6  H19 non d ame     -33.726   8.742  29.467  0.00  0.00     0.163 HD
BRANCH   4   7
ATOM      7  C9  non d ame     -32.558  11.285  29.802  0.00  0.00     0.092 C 
ATOM      8  H11 non d ame     -31.907  10.579  29.288  0.00  0.00     0.088 H 
BRANCH   7   9
ATOM      9  N3  non d ame     -33.366  11.955  28.779  0.00  0.00    -0.346 N 
ATOM     10  C7  non d ame     -33.560  11.332  27.493  0.00  0.00     0.240 C 
ATOM     11  O3  non d ame     -33.073  10.293  27.264  0.00  0.00    -0.271 OA
ATOM     12  H10 non d ame     -33.792  12.852  28.961  0.00  0.00     0.163 HD
BRANCH  10  13
ATOM     13  C6  non d ame     -34.419  12.051  26.406  0.00  0.00     0.086 C 
ATOM     14  H6  non d ame     -35.076  12.813  26.824  0.00  0.00     0.086 H 
BRANCH  13  15
ATOM     15  N2  non d ame     -33.531  12.732  25.478  0.00  0.00    -0.343 N 
ATOM     16  C5  non d ame     -33.001  14.053  25.824  0.00  0.00     0.273 C 
ATOM     17  O2  non d ame     -33.297  14.560  26.850  0.00  0.00    -0.266 OA
ATOM     18  H5  non d ame     -33.285  12.292  24.603  0.00  0.00     0.163 HD
BRANCH  16  19
ATOM     19  C4  non d ame     -32.060  14.783  24.854  0.00  0.00     0.154 A 
ATOM     20  C1  non d ame     -30.938  14.232  24.158  0.00  0.00    -0.017 A 
ATOM     21  C2  non d ame     -30.416  15.305  23.402  0.00  0.00     0.077 A 
ATOM     22  H1  non d ame     -30.560  13.210  24.195  0.00  0.00     0.091 H 
ATOM     23  O1  non d ame     -31.159  16.345  23.642  0.00  0.00    -0.218 OA
ATOM     24  N1  non d ame     -32.125  16.066  24.486  0.00  0.00    -0.123 NA
BRANCH  21  25
ATOM     25  C3  non d ame     -29.207  15.252  22.477  0.00  0.00    -0.029 C 
ATOM     26  H2  non d ame     -29.322  14.427  21.774  0.00  0.00     0.036 H 
ATOM     27  H3  non d ame     -29.130  16.190  21.926  0.00  0.00     0.036 H 
ATOM     28  H4  non d ame     -28.303  15.103  23.067  0.00  0.00     0.036 H 
ENDBRANCH  21  25
ENDBRANCH  16  19
ENDBRANCH  13  15
BRANCH  13  29
ATOM     29  C8  non d ame     -35.256  11.036  25.670  0.00  0.00    -0.049 C 
ATOM     30  H7  non d ame     -36.173  11.508  25.319  0.00  0.00     0.030 H 
ATOM     31  H8  non d ame     -34.695  10.654  24.817  0.00  0.00     0.030 H 
ATOM     32  H9  non d ame     -35.504  10.214  26.341  0.00  0.00     0.030 H 
ENDBRANCH  13  29
ENDBRANCH  10  13
ENDBRANCH   7   9
BRANCH   7  33
ATOM     33  C11 non d ame     -31.752  12.350  30.602  0.00  0.00    -0.033 C 
ATOM     34  H12 non d ame     -32.299  12.552  31.523  0.00  0.00     0.042 H 
BRANCH  33  35
ATOM     35  C12 non d ame     -30.342  11.814  31.002  0.00  0.00    -0.071 C 
ATOM     36  H13 non d ame     -29.791  11.536  30.103  0.00  0.00     0.028 H 
ATOM     37  H14 non d ame     -29.797  12.590  31.537  0.00  0.00     0.028 H 
ATOM     38  H15 non d ame     -30.455  10.940  31.643  0.00  0.00     0.028 H 
ENDBRANCH  33  35
BRANCH  33  39
ATOM     39  C13 non d ame     -31.644  13.687  29.801  0.00  0.00    -0.071 C 
ATOM     40  H16 non d ame     -30.600  13.875  29.547  0.00  0.00     0.028 H 
ATOM     41  H17 non d ame     -32.233  13.612  28.887  0.00  0.00     0.028 H 
ATOM     42  H18 non d ame     -32.024  14.507  30.410  0.00  0.00     0.028 H 
ENDBRANCH  33  39
ENDBRANCH   7  33
ENDBRANCH   4   7
ENDBRANCH   1   3
BRANCH   1  43
ATOM     43  C15 non d ame     -34.944   6.956  30.736  0.00  0.00     0.240 C 
ATOM     44  O5  non d ame     -35.426   6.120  31.430  0.00  0.00    -0.271 OA
ATOM     45  N6  non d ame     -34.449   6.597  29.377  0.00  0.00    -0.355 N 
ATOM     46  H46 non d ame     -34.042   7.299  28.776  0.00  0.00     0.162 HD
BRANCH  45  47
ATOM     47  C20 non d ame     -34.555   5.199  28.904  0.00  0.00     0.013 C 
ATOM     48  H30 non d ame     -34.864   4.582  29.748  0.00  0.00     0.072 H 
BRANCH  47  49
ATOM     49  C21 non d ame     -33.207   4.741  28.395  0.00  0.00    -0.038 C 
ATOM     50  H31 non d ame     -32.475   5.399  28.864  0.00  0.00     0.036 H 
ATOM     51  H32 non d ame     -33.172   3.667  28.580  0.00  0.00     0.036 H 
BRANCH  49  52
ATOM     52  C22 non d ame     -33.047   4.926  26.870  0.00  0.00     0.018 C 
ATOM     53  H33 non d ame     -32.471   4.068  26.527  0.00  0.00     0.048 H 
ATOM     54  H34 non d ame     -34.053   5.096  26.487  0.00  0.00     0.048 H 
BRANCH  52  55
ATOM     55  C23 non d ame     -32.221   6.181  26.475  0.00  0.00     0.259 C 
ATOM     56  O7  non d ame     -32.169   7.122  27.200  0.00  0.00    -0.265 OA
BRANCH  55  57
ATOM     57  O8  non d ame     -31.534   6.200  25.229  0.00  0.00    -0.317 OA
BRANCH  57  58
ATOM     58  C29 non d ame     -32.310   6.720  24.146  0.00  0.00     0.052 C 
ATOM     59  H47 non d ame     -32.248   5.973  23.354  0.00  0.00     0.082 H 
ATOM     60  H48 non d ame     -33.277   6.981  24.573  0.00  0.00     0.082 H 
BRANCH  58  61
ATOM     61  C35 non d ame     -31.626   8.021  23.648  0.00  0.00    -0.034 A 
ATOM     62  C30 non d ame     -32.058   9.258  24.114  0.00  0.00    -0.075 A 
ATOM     63  C31 non d ame     -31.444  10.427  23.667  0.00  0.00    -0.082 A 
ATOM     64  H49 non d ame     -32.879   9.312  24.830  0.00  0.00     0.084 H 
ATOM     65  C32 non d ame     -30.395  10.355  22.747  0.00  0.00    -0.083 A 
ATOM     66  H50 non d ame     -31.784  11.395  24.036  0.00  0.00     0.083 H 
ATOM     67  C33 non d ame     -29.969   9.119  22.282  0.00  0.00    -0.082 A 
ATOM     68  H51 non d ame     -29.908  11.264  22.393  0.00  0.00     0.083 H 
ATOM     69  C34 non d ame     -30.578   7.948  22.728  0.00  0.00    -0.075 A 
ATOM     70  H52 non d ame     -29.151   9.066  21.562  0.00  0.00     0.083 H 
ATOM     71  H53 non d ame     -30.237   6.980  22.358  0.00  0.00     0.084 H 
ENDBRANCH  58  61
ENDBRANCH  57  58
ENDBRANCH  55  57
ENDBRANCH  52  55
ENDBRANCH  49  52
ENDBRANCH  47  49
BRANCH  47  72
ATOM     72  C24 non d ame     -35.582   5.111  27.777  0.00  0.00    -0.039 C 
ATOM     73  H35 non d ame     -35.131   5.632  26.932  0.00  0.00     0.036 H 
ATOM     74  H36 non d ame     -35.832   4.054  27.695  0.00  0.00     0.036 H 
BRANCH  72  75
ATOM     75  C25 non d ame     -36.933   5.889  28.146  0.00  0.00    -0.001 C 
ATOM     76  C26 non d ame     -37.838   4.983  29.178  0.00  0.00    -0.035 C 
ATOM     77  C27 non d ame     -39.096   4.887  28.687  0.00  0.00     0.085 C 
ATOM     78  H38 non d ame     -37.485   3.952  29.177  0.00  0.00     0.036 H 
ATOM     79  H39 non d ame     -37.972   5.513  30.121  0.00  0.00     0.036 H 
ATOM     80  N5  non d ame     -39.049   5.367  27.256  0.00  0.00    -0.049 N 
ATOM     81  H40 non d ame     -39.333   3.823  28.697  0.00  0.00     0.075 H 
ATOM     82  H41 non d ame     -39.692   5.584  29.275  0.00  0.00     0.075 H 
ATOM     83  C28 non d ame     -37.636   6.130  27.090  0.00  0.00     0.193 C 
ATOM     84  H42 non d ame     -39.038   4.540  26.677  0.00  0.00     0.280 HD
ATOM     85  H43 non d ame     -39.794   6.043  27.157  0.00  0.00     0.280 HD
ATOM     86  H44 non d ame     -37.595   7.220  27.068  0.00  0.00     0.129 H 
ATOM     87  H37 non d ame     -36.749   6.926  28.427  0.00  0.00     0.046 H 
BRANCH  83  88
ATOM     88  O6  non d ame     -36.981   5.699  25.896  0.00  0.00    -0.369 OA
ATOM     89  H45 non d ame     -37.638   5.487  25.229  0.00  0.00     0.212 HD
ENDBRANCH  83  88
ENDBRANCH  72  75
ENDBRANCH  47  72
ENDBRANCH  45  47
ENDBRANCH   1  43
BRANCH   1  90
ATOM     90  C16 non d ame     -36.221   9.061  31.247  0.00  0.00    -0.035 C 
ATOM     91  H21 non d ame     -36.811   8.476  31.952  0.00  0.00     0.037 H 
ATOM     92  H22 non d ame     -36.048  10.121  31.428  0.00  0.00     0.037 H 
BRANCH  90  93
ATOM     93  C17 non d ame     -36.956   8.963  29.872  0.00  0.00    -0.059 C 
ATOM     94  H23 non d ame     -36.455   8.195  29.283  0.00  0.00     0.038 H 
BRANCH  93  95
ATOM     95  C18 non d ame     -38.452   8.540  30.032  0.00  0.00    -0.073 C 
ATOM     96  H24 non d ame     -38.759   8.675  31.068  0.00  0.00     0.028 H 
ATOM     97  H25 non d ame     -39.075   9.157  29.385  0.00  0.00     0.028 H 
ATOM     98  H26 non d ame     -38.565   7.493  29.753  0.00  0.00     0.028 H 
ENDBRANCH  93  95
BRANCH  93  99
ATOM     99  C19 non d ame     -36.842  10.277  29.096  0.00  0.00    -0.073 C 
ATOM    100  H27 non d ame     -37.822  10.559  28.712  0.00  0.00     0.028 H 
ATOM    101  H28 non d ame     -36.473  11.060  29.759  0.00  0.00     0.028 H 
ATOM    102  H29 non d ame     -36.148  10.150  28.265  0.00  0.00     0.028 H 
ENDBRANCH  93  99
ENDBRANCH  90  93
ENDBRANCH   1  90
TORSDOF 26
ENDMDL
