MODEL 1
REMARK VINA RESULT:      -6.9      0.000      0.000
REMARK  26 active torsions:
REMARK  status: ('A' for Active; 'I' for Inactive)
REMARK    1  A    between atoms: C2_2  and  C3_3 
REMARK    2  A    between atoms: C4_6  and  C5_7 
REMARK       I    between atoms: C5_7  and  N2_9 
REMARK    3  A    between atoms: N2_9  and  C6_10 
REMARK    4  A    between atoms: C6_10  and  C7_11 
REMARK    5  A    between atoms: C6_10  and  C8_13 
REMARK       I    between atoms: C7_11  and  N3_14 
REMARK    6  A    between atoms: N3_14  and  C9_15 
REMARK    7  A    between atoms: C9_15  and  C10_16 
REMARK    8  A    between atoms: C9_15  and  C11_18 
REMARK       I    between atoms: C10_16  and  N4_21 
REMARK    9  A    between atoms: C11_18  and  C12_19 
REMARK   10  A    between atoms: C11_18  and  C13_20 
REMARK   11  A    between atoms: N4_21  and  C14_22 
REMARK   12  A    between atoms: C14_22  and  C15_23 
REMARK   13  A    between atoms: C14_22  and  C16_25 
REMARK       I    between atoms: C15_23  and  N6_40 
REMARK   14  A    between atoms: C16_25  and  C17_26 
REMARK   15  A    between atoms: C17_26  and  C18_27 
REMARK   16  A    between atoms: C17_26  and  C19_28 
REMARK   17  A    between atoms: C20_29  and  C21_30 
REMARK   18  A    between atoms: C20_29  and  C24_33 
REMARK   19  A    between atoms: C20_29  and  N6_40 
REMARK   20  A    between atoms: C21_30  and  C22_31 
REMARK   21  A    between atoms: C22_31  and  C23_32 
REMARK   22  A    between atoms: C23_32  and  O8_43 
REMARK   23  A    between atoms: C24_33  and  C25_34 
REMARK   24  A    between atoms: C28_38  and  O6_39 
REMARK   25  A    between atoms: C29_42  and  O8_43 
REMARK   26  A    between atoms: C29_42  and  C35_49 
ROOT
ATOM      1  C14 non d ame     -31.155  14.056  24.424  0.00  0.00     0.089 C 
ATOM      2  H20 non d ame     -30.173  13.619  24.606  0.00  0.00     0.087 H 
ENDROOT
BRANCH   1   3
ATOM      3  N4  non d ame     -32.147  13.017  24.657  0.00  0.00    -0.346 N 
ATOM      4  C10 non d ame     -31.859  11.890  25.617  0.00  0.00     0.241 C 
ATOM      5  O4  non d ame     -30.820  11.839  26.188  0.00  0.00    -0.271 OA
ATOM      6  H19 non d ame     -33.024  13.077  24.159  0.00  0.00     0.163 HD
BRANCH   4   7
ATOM      7  C9  non d ame     -32.899  10.826  25.850  0.00  0.00     0.092 C 
ATOM      8  H11 non d ame     -33.052  10.703  26.922  0.00  0.00     0.088 H 
BRANCH   7   9
ATOM      9  N3  non d ame     -34.178  11.258  25.277  0.00  0.00    -0.346 N 
ATOM     10  C7  non d ame     -35.199  11.812  26.132  0.00  0.00     0.240 C 
ATOM     11  O3  non d ame     -35.010  11.915  27.282  0.00  0.00    -0.271 OA
ATOM     12  H10 non d ame     -34.356  11.174  24.287  0.00  0.00     0.163 HD
BRANCH  10  13
ATOM     13  C6  non d ame     -36.559  12.267  25.517  0.00  0.00     0.086 C 
ATOM     14  H6  non d ame     -37.411  12.027  26.153  0.00  0.00     0.086 H 
BRANCH  13  15
ATOM     15  N2  non d ame     -36.548  13.713  25.367  0.00  0.00    -0.343 N 
ATOM     16  C5  non d ame     -37.520  14.523  26.104  0.00  0.00     0.273 C 
ATOM     17  O2  non d ame     -38.309  14.001  26.813  0.00  0.00    -0.266 OA
ATOM     18  H5  non d ame     -35.872  14.149  24.756  0.00  0.00     0.163 HD
BRANCH  16  19
ATOM     19  C4  non d ame     -37.519  16.052  25.955  0.00  0.00     0.154 A 
ATOM     20  C1  non d ame     -37.150  16.808  24.797  0.00  0.00    -0.017 A 
ATOM     21  C2  non d ame     -37.321  18.158  25.175  0.00  0.00     0.077 A 
ATOM     22  H1  non d ame     -36.810  16.434  23.831  0.00  0.00     0.091 H 
ATOM     23  O1  non d ame     -37.741  18.166  26.406  0.00  0.00    -0.218 OA
ATOM     24  N1  non d ame     -37.864  16.949  26.883  0.00  0.00    -0.123 NA
BRANCH  21  25
ATOM     25  C3  non d ame     -37.064  19.379  24.301  0.00  0.00    -0.029 C 
ATOM     26  H2  non d ame     -37.774  20.165  24.555  0.00  0.00     0.036 H 
ATOM     27  H3  non d ame     -36.049  19.738  24.469  0.00  0.00     0.036 H 
ATOM     28  H4  non d ame     -37.183  19.106  23.252  0.00  0.00     0.036 H 
ENDBRANCH  21  25
ENDBRANCH  16  19
ENDBRANCH  13  15
BRANCH  13  29
ATOM     29  C8  non d ame     -36.753  11.609  24.175  0.00  0.00    -0.049 C 
ATOM     30  H7  non d ame     -36.038  10.794  24.064  0.00  0.00     0.030 H 
ATOM     31  H8  non d ame     -37.766  11.216  24.106  0.00  0.00     0.030 H 
ATOM     32  H9  non d ame     -36.593  12.343  23.384  0.00  0.00     0.030 H 
ENDBRANCH  13  29
ENDBRANCH  10  13
ENDBRANCH   7   9
BRANCH   7  33
ATOM     33  C11 non d ame     -32.449   9.502  25.166  0.00  0.00    -0.033 C 
ATOM     34  H12 non d ame     -31.371   9.412  25.302  0.00  0.00     0.042 H 
BRANCH  33  35
ATOM     35  C12 non d ame     -33.112   8.260  25.840  0.00  0.00    -0.071 C 
ATOM     36  H13 non d ame     -33.444   7.563  25.070  0.00  0.00     0.028 H 
ATOM     37  H14 non d ame     -32.387   7.768  26.488  0.00  0.00     0.028 H 
ATOM     38  H15 non d ame     -33.969   8.582  26.431  0.00  0.00     0.028 H 
ENDBRANCH  33  35
BRANCH  33  39
ATOM     39  C13 non d ame     -32.742   9.537  23.631  0.00  0.00    -0.071 C 
ATOM     40  H16 non d ame     -31.807   9.430  23.081  0.00  0.00     0.028 H 
ATOM     41  H17 non d ame     -33.413   8.719  23.370  0.00  0.00     0.028 H 
ATOM     42  H18 non d ame     -33.210  10.487  23.373  0.00  0.00     0.028 H 
ENDBRANCH  33  39
ENDBRANCH   7  33
ENDBRANCH   4   7
ENDBRANCH   1   3
BRANCH   1  43
ATOM     43  C15 non d ame     -31.453  15.248  25.378  0.00  0.00     0.240 C 
ATOM     44  O5  non d ame     -30.937  16.301  25.186  0.00  0.00    -0.271 OA
ATOM     45  N6  non d ame     -32.390  15.079  26.525  0.00  0.00    -0.355 N 
ATOM     46  H46 non d ame     -32.838  14.190  26.694  0.00  0.00     0.162 HD
BRANCH  45  47
ATOM     47  C20 non d ame     -32.664  16.222  27.422  0.00  0.00     0.013 C 
ATOM     48  H30 non d ame     -31.937  17.003  27.202  0.00  0.00     0.072 H 
BRANCH  47  49
ATOM     49  C21 non d ame     -32.523  15.775  28.859  0.00  0.00    -0.038 C 
ATOM     50  H31 non d ame     -31.518  16.067  29.162  0.00  0.00     0.036 H 
ATOM     51  H32 non d ame     -33.390  16.182  29.380  0.00  0.00     0.036 H 
BRANCH  49  52
ATOM     52  C22 non d ame     -32.599  14.241  29.020  0.00  0.00     0.018 C 
ATOM     53  H33 non d ame     -33.078  14.068  29.983  0.00  0.00     0.048 H 
ATOM     54  H34 non d ame     -33.063  13.871  28.105  0.00  0.00     0.048 H 
BRANCH  52  55
ATOM     55  C23 non d ame     -31.209  13.551  29.103  0.00  0.00     0.259 C 
ATOM     56  O7  non d ame     -30.243  14.086  28.666  0.00  0.00    -0.265 OA
BRANCH  55  57
ATOM     57  O8  non d ame     -31.105  12.263  29.699  0.00  0.00    -0.317 OA
BRANCH  57  58
ATOM     58  C29 non d ame     -31.845  12.123  30.915  0.00  0.00     0.052 C 
ATOM     59  H47 non d ame     -31.144  11.709  31.640  0.00  0.00     0.082 H 
ATOM     60  H48 non d ame     -32.305  13.094  31.094  0.00  0.00     0.082 H 
BRANCH  58  61
ATOM     61  C35 non d ame     -32.972  11.083  30.673  0.00  0.00    -0.034 A 
ATOM     62  C30 non d ame     -34.028  10.979  31.572  0.00  0.00    -0.075 A 
ATOM     63  C31 non d ame     -35.040  10.045  31.355  0.00  0.00    -0.082 A 
ATOM     64  H49 non d ame     -34.063  11.629  32.447  0.00  0.00     0.084 H 
ATOM     65  C32 non d ame     -34.991   9.211  30.235  0.00  0.00    -0.083 A 
ATOM     66  H50 non d ame     -35.868   9.967  32.061  0.00  0.00     0.083 H 
ATOM     67  C33 non d ame     -33.933   9.316  29.342  0.00  0.00    -0.082 A 
ATOM     68  H51 non d ame     -35.779   8.479  30.057  0.00  0.00     0.083 H 
ATOM     69  C34 non d ame     -32.921  10.250  29.554  0.00  0.00    -0.075 A 
ATOM     70  H52 non d ame     -33.897   8.663  28.470  0.00  0.00     0.083 H 
ATOM     71  H53 non d ame     -32.094  10.327  28.848  0.00  0.00     0.084 H 
ENDBRANCH  58  61
ENDBRANCH  57  58
ENDBRANCH  55  57
ENDBRANCH  52  55
ENDBRANCH  49  52
ENDBRANCH  47  49
BRANCH  47  72
ATOM     72  C24 non d ame     -34.083  16.736  27.184  0.00  0.00    -0.039 C 
ATOM     73  H35 non d ame     -34.447  16.190  26.314  0.00  0.00     0.036 H 
ATOM     74  H36 non d ame     -34.592  16.636  28.143  0.00  0.00     0.036 H 
BRANCH  72  75
ATOM     75  C25 non d ame     -34.093  18.293  26.804  0.00  0.00    -0.001 C 
ATOM     76  C26 non d ame     -32.565  18.896  26.874  0.00  0.00    -0.035 C 
ATOM     77  C27 non d ame     -32.572  20.012  27.641  0.00  0.00     0.085 C 
ATOM     78  H38 non d ame     -31.918  18.213  27.423  0.00  0.00     0.036 H 
ATOM     79  H39 non d ame     -32.263  19.263  25.893  0.00  0.00     0.036 H 
ATOM     80  N5  non d ame     -33.895  20.042  28.367  0.00  0.00    -0.049 N 
ATOM     81  H40 non d ame     -31.771  19.871  28.367  0.00  0.00     0.075 H 
ATOM     82  H41 non d ame     -32.532  20.847  26.941  0.00  0.00     0.075 H 
ATOM     83  C28 non d ame     -34.837  18.967  27.616  0.00  0.00     0.193 C 
ATOM     84  H42 non d ame     -33.715  19.712  29.304  0.00  0.00     0.280 HD
ATOM     85  H43 non d ame     -34.280  20.964  28.221  0.00  0.00     0.280 HD
ATOM     86  H44 non d ame     -35.622  19.299  26.936  0.00  0.00     0.129 H 
ATOM     87  H37 non d ame     -34.664  18.492  25.897  0.00  0.00     0.046 H 
BRANCH  83  88
ATOM     88  O6  non d ame     -35.489  18.129  28.572  0.00  0.00    -0.369 OA
ATOM     89  H45 non d ame     -36.209  18.613  28.983  0.00  0.00     0.212 HD
ENDBRANCH  83  88
ENDBRANCH  72  75
ENDBRANCH  47  72
ENDBRANCH  45  47
ENDBRANCH   1  43
BRANCH   1  90
ATOM     90  C16 non d ame     -31.253  14.520  22.979  0.00  0.00    -0.035 C 
ATOM     91  H21 non d ame     -32.036  13.909  22.532  0.00  0.00     0.037 H 
ATOM     92  H22 non d ame     -31.369  15.603  23.031  0.00  0.00     0.037 H 
BRANCH  90  93
ATOM     93  C17 non d ame     -29.958  14.254  22.147  0.00  0.00    -0.059 C 
ATOM     94  H23 non d ame     -30.157  14.558  21.120  0.00  0.00     0.038 H 
BRANCH  93  95
ATOM     95  C18 non d ame     -28.743  15.090  22.664  0.00  0.00    -0.073 C 
ATOM     96  H24 non d ame     -28.182  14.503  23.391  0.00  0.00     0.028 H 
ATOM     97  H25 non d ame     -28.095  15.346  21.826  0.00  0.00     0.028 H 
ATOM     98  H26 non d ame     -29.105  16.003  23.136  0.00  0.00     0.028 H 
ENDBRANCH  93  95
BRANCH  93  99
ATOM     99  C19 non d ame     -29.621  12.761  22.122  0.00  0.00    -0.073 C 
ATOM    100  H27 non d ame     -30.390  12.224  21.567  0.00  0.00     0.028 H 
ATOM    101  H28 non d ame     -28.655  12.614  21.639  0.00  0.00     0.028 H 
ATOM    102  H29 non d ame     -29.577  12.381  23.143  0.00  0.00     0.028 H 
ENDBRANCH  93  99
ENDBRANCH  90  93
ENDBRANCH   1  90
TORSDOF 26
ENDMDL
MODEL 2
REMARK VINA RESULT:      -6.9      1.528      2.106
REMARK  26 active torsions:
REMARK  status: ('A' for Active; 'I' for Inactive)
REMARK    1  A    between atoms: C2_2  and  C3_3 
REMARK    2  A    between atoms: C4_6  and  C5_7 
REMARK       I    between atoms: C5_7  and  N2_9 
REMARK    3  A    between atoms: N2_9  and  C6_10 
REMARK    4  A    between atoms: C6_10  and  C7_11 
REMARK    5  A    between atoms: C6_10  and  C8_13 
REMARK       I    between atoms: C7_11  and  N3_14 
REMARK    6  A    between atoms: N3_14  and  C9_15 
REMARK    7  A    between atoms: C9_15  and  C10_16 
REMARK    8  A    between atoms: C9_15  and  C11_18 
REMARK       I    between atoms: C10_16  and  N4_21 
REMARK    9  A    between atoms: C11_18  and  C12_19 
REMARK   10  A    between atoms: C11_18  and  C13_20 
REMARK   11  A    between atoms: N4_21  and  C14_22 
REMARK   12  A    between atoms: C14_22  and  C15_23 
REMARK   13  A    between atoms: C14_22  and  C16_25 
REMARK       I    between atoms: C15_23  and  N6_40 
REMARK   14  A    between atoms: C16_25  and  C17_26 
REMARK   15  A    between atoms: C17_26  and  C18_27 
REMARK   16  A    between atoms: C17_26  and  C19_28 
REMARK   17  A    between atoms: C20_29  and  C21_30 
REMARK   18  A    between atoms: C20_29  and  C24_33 
REMARK   19  A    between atoms: C20_29  and  N6_40 
REMARK   20  A    between atoms: C21_30  and  C22_31 
REMARK   21  A    between atoms: C22_31  and  C23_32 
REMARK   22  A    between atoms: C23_32  and  O8_43 
REMARK   23  A    between atoms: C24_33  and  C25_34 
REMARK   24  A    between atoms: C28_38  and  O6_39 
REMARK   25  A    between atoms: C29_42  and  O8_43 
REMARK   26  A    between atoms: C29_42  and  C35_49 
ROOT
ATOM      1  C14 non d ame     -30.759  14.345  23.821  0.00  0.00     0.089 C 
ATOM      2  H20 non d ame     -29.674  14.321  23.717  0.00  0.00     0.087 H 
ENDROOT
BRANCH   1   3
ATOM      3  N4  non d ame     -31.203  12.986  24.092  0.00  0.00    -0.346 N 
ATOM      4  C10 non d ame     -30.604  11.825  23.339  0.00  0.00     0.241 C 
ATOM      5  O4  non d ame     -29.768  12.009  22.518  0.00  0.00    -0.271 OA
ATOM      6  H19 non d ame     -31.918  12.850  24.793  0.00  0.00     0.163 HD
BRANCH   4   7
ATOM      7  C9  non d ame     -31.072  10.424  23.636  0.00  0.00     0.092 C 
ATOM      8  H11 non d ame     -30.604  10.077  24.557  0.00  0.00     0.088 H 
BRANCH   7   9
ATOM      9  N3  non d ame     -32.521  10.430  23.862  0.00  0.00    -0.346 N 
ATOM     10  C7  non d ame     -33.041  10.316  25.203  0.00  0.00     0.240 C 
ATOM     11  O3  non d ame     -32.308  10.217  26.110  0.00  0.00    -0.271 OA
ATOM     12  H10 non d ame     -33.165  10.513  23.089  0.00  0.00     0.163 HD
BRANCH  10  13
ATOM     13  C6  non d ame     -34.583  10.320  25.437  0.00  0.00     0.086 C 
ATOM     14  H6  non d ame     -34.855  10.050  26.457  0.00  0.00     0.086 H 
BRANCH  13  15
ATOM     15  N2  non d ame     -35.091  11.663  25.213  0.00  0.00    -0.343 N 
ATOM     16  C5  non d ame     -36.030  12.249  26.173  0.00  0.00     0.273 C 
ATOM     17  O2  non d ame     -36.372  11.630  27.120  0.00  0.00    -0.266 OA
ATOM     18  H5  non d ame     -34.795  12.184  24.400  0.00  0.00     0.163 HD
BRANCH  16  19
ATOM     19  C4  non d ame     -36.573  13.669  25.950  0.00  0.00     0.154 A 
ATOM     20  C1  non d ame     -36.569  14.414  24.728  0.00  0.00    -0.017 A 
ATOM     21  C2  non d ame     -37.177  15.647  25.052  0.00  0.00     0.077 A 
ATOM     22  H1  non d ame     -36.185  14.107  23.755  0.00  0.00     0.091 H 
ATOM     23  O1  non d ame     -37.491  15.604  26.314  0.00  0.00    -0.218 OA
ATOM     24  N1  non d ame     -37.148  14.460  26.860  0.00  0.00    -0.123 NA
BRANCH  21  25
ATOM     25  C3  non d ame     -37.421  16.810  24.100  0.00  0.00    -0.029 C 
ATOM     26  H2  non d ame     -37.204  16.496  23.079  0.00  0.00     0.036 H 
ATOM     27  H3  non d ame     -38.462  17.124  24.169  0.00  0.00     0.036 H 
ATOM     28  H4  non d ame     -36.772  17.643  24.370  0.00  0.00     0.036 H 
ENDBRANCH  21  25
ENDBRANCH  16  19
ENDBRANCH  13  15
BRANCH  13  29
ATOM     29  C8  non d ame     -35.242   9.354  24.485  0.00  0.00    -0.049 C 
ATOM     30  H7  non d ame     -35.072   9.681  23.460  0.00  0.00     0.030 H 
ATOM     31  H8  non d ame     -34.816   8.360  24.624  0.00  0.00     0.030 H 
ATOM     32  H9  non d ame     -36.313   9.321  24.683  0.00  0.00     0.030 H 
ENDBRANCH  13  29
ENDBRANCH  10  13
ENDBRANCH   7   9
BRANCH   7  33
ATOM     33  C11 non d ame     -30.743   9.500  22.427  0.00  0.00    -0.033 C 
ATOM     34  H12 non d ame     -30.592  10.139  21.556  0.00  0.00     0.042 H 
BRANCH  33  35
ATOM     35  C12 non d ame     -29.420   8.707  22.661  0.00  0.00    -0.071 C 
ATOM     36  H13 non d ame     -28.803   8.756  21.764  0.00  0.00     0.028 H 
ATOM     37  H14 non d ame     -28.878   9.145  23.499  0.00  0.00     0.028 H 
ATOM     38  H15 non d ame     -29.655   7.666  22.884  0.00  0.00     0.028 H 
ENDBRANCH  33  35
BRANCH  33  39
ATOM     39  C13 non d ame     -31.934   8.537  22.118  0.00  0.00    -0.071 C 
ATOM     40  H16 non d ame     -32.864   9.105  22.095  0.00  0.00     0.028 H 
ATOM     41  H17 non d ame     -31.775   8.060  21.151  0.00  0.00     0.028 H 
ATOM     42  H18 non d ame     -31.993   7.773  22.893  0.00  0.00     0.028 H 
ENDBRANCH  33  39
ENDBRANCH   7  33
ENDBRANCH   4   7
ENDBRANCH   1   3
BRANCH   1  43
ATOM     43  C15 non d ame     -31.216  15.258  24.995  0.00  0.00     0.240 C 
ATOM     44  O5  non d ame     -30.853  16.389  25.040  0.00  0.00    -0.271 OA
ATOM     45  N6  non d ame     -32.114  14.725  26.059  0.00  0.00    -0.355 N 
ATOM     46  H46 non d ame     -32.432  13.768  26.029  0.00  0.00     0.162 HD
BRANCH  45  47
ATOM     47  C20 non d ame     -32.540  15.607  27.167  0.00  0.00     0.013 C 
ATOM     48  H30 non d ame     -31.880  16.474  27.179  0.00  0.00     0.072 H 
BRANCH  47  49
ATOM     49  C21 non d ame     -32.430  14.855  28.474  0.00  0.00    -0.038 C 
ATOM     50  H31 non d ame     -31.369  14.855  28.726  0.00  0.00     0.036 H 
ATOM     51  H32 non d ame     -33.149  15.325  29.145  0.00  0.00     0.036 H 
BRANCH  49  52
ATOM     52  C22 non d ame     -32.849  13.374  28.351  0.00  0.00     0.018 C 
ATOM     53  H33 non d ame     -33.672  13.241  29.053  0.00  0.00     0.048 H 
ATOM     54  H34 non d ame     -33.007  13.199  27.287  0.00  0.00     0.048 H 
BRANCH  52  55
ATOM     55  C23 non d ame     -31.746  12.372  28.791  0.00  0.00     0.259 C 
ATOM     56  O7  non d ame     -30.679  12.381  28.266  0.00  0.00    -0.265 OA
BRANCH  55  57
ATOM     57  O8  non d ame     -32.028  11.433  29.821  0.00  0.00    -0.317 OA
BRANCH  57  58
ATOM     58  C29 non d ame     -32.869  11.942  30.859  0.00  0.00     0.052 C 
ATOM     59  H47 non d ame     -32.208  12.151  31.700  0.00  0.00     0.082 H 
ATOM     60  H48 non d ame     -33.443  12.749  30.404  0.00  0.00     0.082 H 
BRANCH  58  61
ATOM     61  C35 non d ame     -33.852  10.816  31.275  0.00  0.00    -0.034 A 
ATOM     62  C30 non d ame     -34.678  10.985  32.382  0.00  0.00    -0.075 A 
ATOM     63  C31 non d ame     -35.561   9.973  32.756  0.00  0.00    -0.082 A 
ATOM     64  H49 non d ame     -34.634  11.911  32.956  0.00  0.00     0.084 H 
ATOM     65  C32 non d ame     -35.614   8.786  32.020  0.00  0.00    -0.083 A 
ATOM     66  H50 non d ame     -36.208  10.110  33.622  0.00  0.00     0.083 H 
ATOM     67  C33 non d ame     -34.785   8.620  30.919  0.00  0.00    -0.082 A 
ATOM     68  H51 non d ame     -36.301   7.990  32.305  0.00  0.00     0.083 H 
ATOM     69  C34 non d ame     -33.903   9.630  30.540  0.00  0.00    -0.075 A 
ATOM     70  H52 non d ame     -34.827   7.692  30.348  0.00  0.00     0.083 H 
ATOM     71  H53 non d ame     -33.256   9.492  29.673  0.00  0.00     0.084 H 
ENDBRANCH  58  61
ENDBRANCH  57  58
ENDBRANCH  55  57
ENDBRANCH  52  55
ENDBRANCH  49  52
ENDBRANCH  47  49
BRANCH  47  72
ATOM     72  C24 non d ame     -33.988  16.044  26.951  0.00  0.00    -0.039 C 
ATOM     73  H35 non d ame     -34.331  15.489  26.078  0.00  0.00     0.036 H 
ATOM     74  H36 non d ame     -34.480  15.904  27.914  0.00  0.00     0.036 H 
BRANCH  72  75
ATOM     75  C25 non d ame     -34.088  17.602  26.591  0.00  0.00    -0.001 C 
ATOM     76  C26 non d ame     -32.701  18.369  27.028  0.00  0.00    -0.035 C 
ATOM     77  C27 non d ame     -33.018  19.450  27.780  0.00  0.00     0.085 C 
ATOM     78  H38 non d ame     -32.127  17.742  27.711  0.00  0.00     0.036 H 
ATOM     79  H39 non d ame     -32.220  18.801  26.150  0.00  0.00     0.036 H 
ATOM     80  N5  non d ame     -34.469  19.307  28.170  0.00  0.00    -0.049 N 
ATOM     81  H40 non d ame     -32.400  19.373  28.675  0.00  0.00     0.075 H 
ATOM     82  H41 non d ame     -32.911  20.307  27.117  0.00  0.00     0.075 H 
ATOM     83  C28 non d ame     -35.076  18.161  27.207  0.00  0.00     0.193 C 
ATOM     84  H42 non d ame     -34.478  18.966  29.120  0.00  0.00     0.280 HD
ATOM     85  H43 non d ame     -34.913  20.185  27.943  0.00  0.00     0.280 HD
ATOM     86  H44 non d ame     -35.711  18.427  26.362  0.00  0.00     0.129 H 
ATOM     87  H37 non d ame     -34.449  17.769  25.576  0.00  0.00     0.046 H 
BRANCH  83  88
ATOM     88  O6  non d ame     -35.833  17.223  27.974  0.00  0.00    -0.369 OA
ATOM     89  H45 non d ame     -36.511  17.689  28.470  0.00  0.00     0.212 HD
ENDBRANCH  83  88
ENDBRANCH  72  75
ENDBRANCH  47  72
ENDBRANCH  45  47
ENDBRANCH   1  43
BRANCH   1  90
ATOM     90  C16 non d ame     -31.390  14.825  22.524  0.00  0.00    -0.035 C 
ATOM     91  H21 non d ame     -31.638  13.919  21.972  0.00  0.00     0.037 H 
ATOM     92  H22 non d ame     -32.181  15.513  22.825  0.00  0.00     0.037 H 
BRANCH  90  93
ATOM     93  C17 non d ame     -30.416  15.642  21.618  0.00  0.00    -0.059 C 
ATOM     94  H23 non d ame     -30.646  16.699  21.752  0.00  0.00     0.038 H 
BRANCH  93  95
ATOM     95  C18 non d ame     -28.920  15.426  22.015  0.00  0.00    -0.073 C 
ATOM     96  H24 non d ame     -28.623  16.185  22.738  0.00  0.00     0.028 H 
ATOM     97  H25 non d ame     -28.801  14.437  22.458  0.00  0.00     0.028 H 
ATOM     98  H26 non d ame     -28.294  15.504  21.127  0.00  0.00     0.028 H 
ENDBRANCH  93  95
BRANCH  93  99
ATOM     99  C19 non d ame     -30.639  15.313  20.139  0.00  0.00    -0.073 C 
ATOM    100  H27 non d ame     -30.900  14.259  20.037  0.00  0.00     0.028 H 
ATOM    101  H28 non d ame     -31.451  15.927  19.748  0.00  0.00     0.028 H 
ATOM    102  H29 non d ame     -29.727  15.518  19.579  0.00  0.00     0.028 H 
ENDBRANCH  93  99
ENDBRANCH  90  93
ENDBRANCH   1  90
TORSDOF 26
ENDMDL
MODEL 3
REMARK VINA RESULT:      -6.9      2.443      6.477
REMARK  26 active torsions:
REMARK  status: ('A' for Active; 'I' for Inactive)
REMARK    1  A    between atoms: C2_2  and  C3_3 
REMARK    2  A    between atoms: C4_6  and  C5_7 
REMARK       I    between atoms: C5_7  and  N2_9 
REMARK    3  A    between atoms: N2_9  and  C6_10 
REMARK    4  A    between atoms: C6_10  and  C7_11 
REMARK    5  A    between atoms: C6_10  and  C8_13 
REMARK       I    between atoms: C7_11  and  N3_14 
REMARK    6  A    between atoms: N3_14  and  C9_15 
REMARK    7  A    between atoms: C9_15  and  C10_16 
REMARK    8  A    between atoms: C9_15  and  C11_18 
REMARK       I    between atoms: C10_16  and  N4_21 
REMARK    9  A    between atoms: C11_18  and  C12_19 
REMARK   10  A    between atoms: C11_18  and  C13_20 
REMARK   11  A    between atoms: N4_21  and  C14_22 
REMARK   12  A    between atoms: C14_22  and  C15_23 
REMARK   13  A    between atoms: C14_22  and  C16_25 
REMARK       I    between atoms: C15_23  and  N6_40 
REMARK   14  A    between atoms: C16_25  and  C17_26 
REMARK   15  A    between atoms: C17_26  and  C18_27 
REMARK   16  A    between atoms: C17_26  and  C19_28 
REMARK   17  A    between atoms: C20_29  and  C21_30 
REMARK   18  A    between atoms: C20_29  and  C24_33 
REMARK   19  A    between atoms: C20_29  and  N6_40 
REMARK   20  A    between atoms: C21_30  and  C22_31 
REMARK   21  A    between atoms: C22_31  and  C23_32 
REMARK   22  A    between atoms: C23_32  and  O8_43 
REMARK   23  A    between atoms: C24_33  and  C25_34 
REMARK   24  A    between atoms: C28_38  and  O6_39 
REMARK   25  A    between atoms: C29_42  and  O8_43 
REMARK   26  A    between atoms: C29_42  and  C35_49 
ROOT
ATOM      1  C14 non d ame     -31.073  14.779  23.827  0.00  0.00     0.089 C 
ATOM      2  H20 non d ame     -29.994  14.905  23.921  0.00  0.00     0.087 H 
ENDROOT
BRANCH   1   3
ATOM      3  N4  non d ame     -31.388  13.405  24.188  0.00  0.00    -0.346 N 
ATOM      4  C10 non d ame     -30.644  12.260  23.548  0.00  0.00     0.241 C 
ATOM      5  O4  non d ame     -29.799  12.469  22.742  0.00  0.00    -0.271 OA
ATOM      6  H19 non d ame     -32.112  13.248  24.874  0.00  0.00     0.163 HD
BRANCH   4   7
ATOM      7  C9  non d ame     -30.979  10.844  23.938  0.00  0.00     0.092 C 
ATOM      8  H11 non d ame     -30.312  10.525  24.739  0.00  0.00     0.088 H 
BRANCH   7   9
ATOM      9  N3  non d ame     -32.346  10.792  24.466  0.00  0.00    -0.346 N 
ATOM     10  C7  non d ame     -32.565  10.644  25.884  0.00  0.00     0.240 C 
ATOM     11  O3  non d ame     -31.653  10.564  26.614  0.00  0.00    -0.271 OA
ATOM     12  H10 non d ame     -33.142  10.858  23.849  0.00  0.00     0.163 HD
BRANCH  10  13
ATOM     13  C6  non d ame     -34.022  10.587  26.440  0.00  0.00     0.086 C 
ATOM     14  H6  non d ame     -34.687   9.990  25.817  0.00  0.00     0.086 H 
BRANCH  13  15
ATOM     15  N2  non d ame     -34.002   9.957  27.750  0.00  0.00    -0.343 N 
ATOM     16  C5  non d ame     -34.841   8.783  27.998  0.00  0.00     0.273 C 
ATOM     17  O2  non d ame     -35.530   8.354  27.139  0.00  0.00    -0.266 OA
ATOM     18  H5  non d ame     -33.412  10.332  28.479  0.00  0.00     0.163 HD
BRANCH  16  19
ATOM     19  C4  non d ame     -34.828   8.106  29.378  0.00  0.00     0.154 A 
ATOM     20  C1  non d ame     -35.028   6.718  29.662  0.00  0.00    -0.017 A 
ATOM     21  C2  non d ame     -34.920   6.615  31.067  0.00  0.00     0.077 A 
ATOM     22  H1  non d ame     -35.221   5.909  28.957  0.00  0.00     0.091 H 
ATOM     23  O1  non d ame     -34.685   7.810  31.526  0.00  0.00    -0.218 OA
ATOM     24  N1  non d ame     -34.627   8.697  30.559  0.00  0.00    -0.123 NA
BRANCH  21  25
ATOM     25  C3  non d ame     -35.054   5.341  31.891  0.00  0.00    -0.029 C 
ATOM     26  H2  non d ame     -34.246   5.294  32.620  0.00  0.00     0.036 H 
ATOM     27  H3  non d ame     -36.012   5.343  32.410  0.00  0.00     0.036 H 
ATOM     28  H4  non d ame     -35.000   4.475  31.232  0.00  0.00     0.036 H 
ENDBRANCH  21  25
ENDBRANCH  16  19
ENDBRANCH  13  15
BRANCH  13  29
ATOM     29  C8  non d ame     -34.577  11.984  26.547  0.00  0.00    -0.049 C 
ATOM     30  H7  non d ame     -33.756  12.699  26.591  0.00  0.00     0.030 H 
ATOM     31  H8  non d ame     -35.197  12.196  25.676  0.00  0.00     0.030 H 
ATOM     32  H9  non d ame     -35.180  12.068  27.451  0.00  0.00     0.030 H 
ENDBRANCH  13  29
ENDBRANCH  10  13
ENDBRANCH   7   9
BRANCH   7  33
ATOM     33  C11 non d ame     -30.874   9.923  22.687  0.00  0.00    -0.033 C 
ATOM     34  H12 non d ame     -30.844  10.565  21.807  0.00  0.00     0.042 H 
BRANCH  33  35
ATOM     35  C12 non d ame     -29.555   9.089  22.704  0.00  0.00    -0.071 C 
ATOM     36  H13 non d ame     -29.561   8.417  23.563  0.00  0.00     0.028 H 
ATOM     37  H14 non d ame     -29.482   8.505  21.787  0.00  0.00     0.028 H 
ATOM     38  H15 non d ame     -28.701   9.762  22.776  0.00  0.00     0.028 H 
ENDBRANCH  33  35
BRANCH  33  39
ATOM     39  C13 non d ame     -32.127   8.998  22.567  0.00  0.00    -0.071 C 
ATOM     40  H16 non d ame     -32.659   9.225  21.643  0.00  0.00     0.028 H 
ATOM     41  H17 non d ame     -31.810   7.955  22.557  0.00  0.00     0.028 H 
ATOM     42  H18 non d ame     -32.787   9.167  23.418  0.00  0.00     0.028 H 
ENDBRANCH  33  39
ENDBRANCH   7  33
ENDBRANCH   4   7
ENDBRANCH   1   3
BRANCH   1  43
ATOM     43  C15 non d ame     -31.860  15.732  24.771  0.00  0.00     0.240 C 
ATOM     44  O5  non d ame     -32.302  16.751  24.348  0.00  0.00    -0.271 OA
ATOM     45  N6  non d ame     -32.071  15.370  26.201  0.00  0.00    -0.355 N 
ATOM     46  H46 non d ame     -31.705  14.505  26.571  0.00  0.00     0.162 HD
BRANCH  45  47
ATOM     47  C20 non d ame     -32.823  16.286  27.086  0.00  0.00     0.013 C 
ATOM     48  H30 non d ame     -33.850  16.334  26.724  0.00  0.00     0.072 H 
BRANCH  47  49
ATOM     49  C21 non d ame     -32.193  17.659  27.035  0.00  0.00    -0.038 C 
ATOM     50  H31 non d ame     -31.123  17.498  27.171  0.00  0.00     0.036 H 
ATOM     51  H32 non d ame     -32.563  18.119  26.119  0.00  0.00     0.036 H 
BRANCH  49  52
ATOM     52  C22 non d ame     -32.647  18.571  28.196  0.00  0.00     0.018 C 
ATOM     53  H33 non d ame     -33.240  17.937  28.854  0.00  0.00     0.048 H 
ATOM     54  H34 non d ame     -31.741  19.048  28.568  0.00  0.00     0.048 H 
BRANCH  52  55
ATOM     55  C23 non d ame     -33.588  19.726  27.753  0.00  0.00     0.259 C 
ATOM     56  O7  non d ame     -33.208  20.556  26.992  0.00  0.00    -0.265 OA
BRANCH  55  57
ATOM     57  O8  non d ame     -34.909  19.789  28.279  0.00  0.00    -0.317 OA
BRANCH  57  58
ATOM     58  C29 non d ame     -35.935  19.737  27.283  0.00  0.00     0.052 C 
ATOM     59  H47 non d ame     -36.860  19.992  27.800  0.00  0.00     0.082 H 
ATOM     60  H48 non d ame     -35.580  20.359  26.462  0.00  0.00     0.082 H 
BRANCH  58  61
ATOM     61  C35 non d ame     -36.040  18.273  26.780  0.00  0.00    -0.034 A 
ATOM     62  C30 non d ame     -36.377  17.254  27.665  0.00  0.00    -0.075 A 
ATOM     63  C31 non d ame     -36.471  15.939  27.213  0.00  0.00    -0.082 A 
ATOM     64  H49 non d ame     -36.566  17.486  28.714  0.00  0.00     0.084 H 
ATOM     65  C32 non d ame     -36.225  15.643  25.870  0.00  0.00    -0.083 A 
ATOM     66  H50 non d ame     -36.736  15.143  27.910  0.00  0.00     0.083 H 
ATOM     67  C33 non d ame     -35.887  16.663  24.990  0.00  0.00    -0.082 A 
ATOM     68  H51 non d ame     -36.298  14.618  25.508  0.00  0.00     0.083 H 
ATOM     69  C34 non d ame     -35.793  17.979  25.437  0.00  0.00    -0.075 A 
ATOM     70  H52 non d ame     -35.693  16.428  23.943  0.00  0.00     0.083 H 
ATOM     71  H53 non d ame     -35.528  18.774  24.740  0.00  0.00     0.084 H 
ENDBRANCH  58  61
ENDBRANCH  57  58
ENDBRANCH  55  57
ENDBRANCH  52  55
ENDBRANCH  49  52
ENDBRANCH  47  49
BRANCH  47  72
ATOM     72  C24 non d ame     -32.790  15.763  28.520  0.00  0.00    -0.039 C 
ATOM     73  H35 non d ame     -32.610  16.638  29.145  0.00  0.00     0.036 H 
ATOM     74  H36 non d ame     -33.708  15.188  28.641  0.00  0.00     0.036 H 
BRANCH  72  75
ATOM     75  C25 non d ame     -31.567  14.755  28.755  0.00  0.00    -0.001 C 
ATOM     76  C26 non d ame     -32.133  13.223  28.946  0.00  0.00    -0.035 C 
ATOM     77  C27 non d ame     -31.600  12.698  30.076  0.00  0.00     0.085 C 
ATOM     78  H38 non d ame     -33.202  13.242  29.154  0.00  0.00     0.036 H 
ATOM     79  H39 non d ame     -31.742  12.579  28.157  0.00  0.00     0.036 H 
ATOM     80  N5  non d ame     -30.983  13.841  30.844  0.00  0.00    -0.049 N 
ATOM     81  H40 non d ame     -32.445  12.305  30.640  0.00  0.00     0.075 H 
ATOM     82  H41 non d ame     -30.809  12.028  29.740  0.00  0.00     0.075 H 
ATOM     83  C28 non d ame     -30.892  15.076  29.808  0.00  0.00     0.193 C 
ATOM     84  H42 non d ame     -31.638  14.082  31.575  0.00  0.00     0.280 HD
ATOM     85  H43 non d ame     -30.045  13.552  31.083  0.00  0.00     0.280 HD
ATOM     86  H44 non d ame     -29.939  15.351  29.357  0.00  0.00     0.129 H 
ATOM     87  H37 non d ame     -30.766  14.901  28.030  0.00  0.00     0.046 H 
BRANCH  83  88
ATOM     88  O6  non d ame     -31.384  16.270  30.420  0.00  0.00    -0.369 OA
ATOM     89  H45 non d ame     -31.738  16.062  31.288  0.00  0.00     0.212 HD
ENDBRANCH  83  88
ENDBRANCH  72  75
ENDBRANCH  47  72
ENDBRANCH  45  47
ENDBRANCH   1  43
BRANCH   1  90
ATOM     90  C16 non d ame     -31.495  15.022  22.387  0.00  0.00    -0.035 C 
ATOM     91  H21 non d ame     -31.566  14.033  21.935  0.00  0.00     0.037 H 
ATOM     92  H22 non d ame     -32.379  15.658  22.448  0.00  0.00     0.037 H 
BRANCH  90  93
ATOM     93  C17 non d ame     -30.441  15.814  21.550  0.00  0.00    -0.059 C 
ATOM     94  H23 non d ame     -30.643  16.877  21.683  0.00  0.00     0.038 H 
BRANCH  93  95
ATOM     95  C18 non d ame     -28.980  15.542  22.033  0.00  0.00    -0.073 C 
ATOM     96  H24 non d ame     -28.728  16.235  22.836  0.00  0.00     0.028 H 
ATOM     97  H25 non d ame     -28.903  14.519  22.400  0.00  0.00     0.028 H 
ATOM     98  H26 non d ame     -28.290  15.683  21.202  0.00  0.00     0.028 H 
ENDBRANCH  93  95
BRANCH  93  99
ATOM     99  C19 non d ame     -30.586  15.507  20.057  0.00  0.00    -0.073 C 
ATOM    100  H27 non d ame     -31.620  15.670  19.751  0.00  0.00     0.028 H 
ATOM    101  H28 non d ame     -29.931  16.165  19.485  0.00  0.00     0.028 H 
ATOM    102  H29 non d ame     -30.310  14.470  19.870  0.00  0.00     0.028 H 
ENDBRANCH  93  99
ENDBRANCH  90  93
ENDBRANCH   1  90
TORSDOF 26
ENDMDL
MODEL 4
REMARK VINA RESULT:      -6.9      3.477      7.274
REMARK  26 active torsions:
REMARK  status: ('A' for Active; 'I' for Inactive)
REMARK    1  A    between atoms: C2_2  and  C3_3 
REMARK    2  A    between atoms: C4_6  and  C5_7 
REMARK       I    between atoms: C5_7  and  N2_9 
REMARK    3  A    between atoms: N2_9  and  C6_10 
REMARK    4  A    between atoms: C6_10  and  C7_11 
REMARK    5  A    between atoms: C6_10  and  C8_13 
REMARK       I    between atoms: C7_11  and  N3_14 
REMARK    6  A    between atoms: N3_14  and  C9_15 
REMARK    7  A    between atoms: C9_15  and  C10_16 
REMARK    8  A    between atoms: C9_15  and  C11_18 
REMARK       I    between atoms: C10_16  and  N4_21 
REMARK    9  A    between atoms: C11_18  and  C12_19 
REMARK   10  A    between atoms: C11_18  and  C13_20 
REMARK   11  A    between atoms: N4_21  and  C14_22 
REMARK   12  A    between atoms: C14_22  and  C15_23 
REMARK   13  A    between atoms: C14_22  and  C16_25 
REMARK       I    between atoms: C15_23  and  N6_40 
REMARK   14  A    between atoms: C16_25  and  C17_26 
REMARK   15  A    between atoms: C17_26  and  C18_27 
REMARK   16  A    between atoms: C17_26  and  C19_28 
REMARK   17  A    between atoms: C20_29  and  C21_30 
REMARK   18  A    between atoms: C20_29  and  C24_33 
REMARK   19  A    between atoms: C20_29  and  N6_40 
REMARK   20  A    between atoms: C21_30  and  C22_31 
REMARK   21  A    between atoms: C22_31  and  C23_32 
REMARK   22  A    between atoms: C23_32  and  O8_43 
REMARK   23  A    between atoms: C24_33  and  C25_34 
REMARK   24  A    between atoms: C28_38  and  O6_39 
REMARK   25  A    between atoms: C29_42  and  O8_43 
REMARK   26  A    between atoms: C29_42  and  C35_49 
ROOT
ATOM      1  C14 non d ame     -32.932  10.433  25.596  0.00  0.00     0.089 C 
ATOM      2  H20 non d ame     -33.656  10.513  24.784  0.00  0.00     0.087 H 
ENDROOT
BRANCH   1   3
ATOM      3  N4  non d ame     -32.369   9.092  25.550  0.00  0.00    -0.346 N 
ATOM      4  C10 non d ame     -33.086   7.990  24.812  0.00  0.00     0.241 C 
ATOM      5  O4  non d ame     -34.116   8.206  24.264  0.00  0.00    -0.271 OA
ATOM      6  H19 non d ame     -31.492   8.928  26.025  0.00  0.00     0.163 HD
BRANCH   4   7
ATOM      7  C9  non d ame     -32.486   6.609  24.771  0.00  0.00     0.092 C 
ATOM      8  H11 non d ame     -31.424   6.672  25.005  0.00  0.00     0.088 H 
BRANCH   7   9
ATOM      9  N3  non d ame     -33.108   5.774  25.803  0.00  0.00    -0.346 N 
ATOM     10  C7  non d ame     -32.670   5.877  27.173  0.00  0.00     0.240 C 
ATOM     11  O3  non d ame     -31.818   6.625  27.463  0.00  0.00    -0.271 OA
ATOM     12  H10 non d ame     -33.844   5.123  25.568  0.00  0.00     0.163 HD
BRANCH  10  13
ATOM     13  C6  non d ame     -33.335   4.984  28.267  0.00  0.00     0.086 C 
ATOM     14  H6  non d ame     -32.706   4.859  29.148  0.00  0.00     0.086 H 
BRANCH  13  15
ATOM     15  N2  non d ame     -34.560   5.623  28.717  0.00  0.00    -0.343 N 
ATOM     16  C5  non d ame     -34.930   5.555  30.133  0.00  0.00     0.273 C 
ATOM     17  O2  non d ame     -34.238   4.982  30.900  0.00  0.00    -0.266 OA
ATOM     18  H5  non d ame     -35.147   6.108  28.054  0.00  0.00     0.163 HD
BRANCH  16  19
ATOM     19  C4  non d ame     -36.222   6.228  30.623  0.00  0.00     0.154 A 
ATOM     20  C1  non d ame     -36.479   7.631  30.731  0.00  0.00    -0.017 A 
ATOM     21  C2  non d ame     -37.799   7.722  31.227  0.00  0.00     0.077 A 
ATOM     22  H1  non d ame     -35.811   8.457  30.486  0.00  0.00     0.091 H 
ATOM     23  O1  non d ame     -38.239   6.508  31.381  0.00  0.00    -0.218 OA
ATOM     24  N1  non d ame     -37.337   5.618  31.036  0.00  0.00    -0.123 NA
BRANCH  21  25
ATOM     25  C3  non d ame     -38.564   9.005  31.524  0.00  0.00    -0.029 C 
ATOM     26  H2  non d ame     -38.434   9.705  30.700  0.00  0.00     0.036 H 
ATOM     27  H3  non d ame     -39.623   8.776  31.643  0.00  0.00     0.036 H 
ATOM     28  H4  non d ame     -38.184   9.450  32.443  0.00  0.00     0.036 H 
ENDBRANCH  21  25
ENDBRANCH  16  19
ENDBRANCH  13  15
BRANCH  13  29
ATOM     29  C8  non d ame     -33.642   3.625  27.691  0.00  0.00    -0.049 C 
ATOM     30  H7  non d ame     -34.422   3.719  26.936  0.00  0.00     0.030 H 
ATOM     31  H8  non d ame     -32.743   3.212  27.235  0.00  0.00     0.030 H 
ATOM     32  H9  non d ame     -33.984   2.962  28.486  0.00  0.00     0.030 H 
ENDBRANCH  13  29
ENDBRANCH  10  13
ENDBRANCH   7   9
BRANCH   7  33
ATOM     33  C11 non d ame     -32.740   5.975  23.372  0.00  0.00    -0.033 C 
ATOM     34  H12 non d ame     -33.584   6.498  22.922  0.00  0.00     0.042 H 
BRANCH  33  35
ATOM     35  C12 non d ame     -31.512   6.167  22.429  0.00  0.00    -0.071 C 
ATOM     36  H13 non d ame     -31.523   5.398  21.656  0.00  0.00     0.028 H 
ATOM     37  H14 non d ame     -31.563   7.151  21.963  0.00  0.00     0.028 H 
ATOM     38  H15 non d ame     -30.593   6.086  23.008  0.00  0.00     0.028 H 
ENDBRANCH  33  35
BRANCH  33  39
ATOM     39  C13 non d ame     -33.123   4.465  23.503  0.00  0.00    -0.071 C 
ATOM     40  H16 non d ame     -32.560   4.018  24.323  0.00  0.00     0.028 H 
ATOM     41  H17 non d ame     -34.191   4.377  23.704  0.00  0.00     0.028 H 
ATOM     42  H18 non d ame     -32.885   3.948  22.573  0.00  0.00     0.028 H 
ENDBRANCH  33  39
ENDBRANCH   7  33
ENDBRANCH   4   7
ENDBRANCH   1   3
BRANCH   1  43
ATOM     43  C15 non d ame     -31.773  11.462  25.452  0.00  0.00     0.240 C 
ATOM     44  O5  non d ame     -30.671  11.160  25.778  0.00  0.00    -0.271 OA
ATOM     45  N6  non d ame     -32.037  12.821  24.900  0.00  0.00    -0.355 N 
ATOM     46  H46 non d ame     -32.968  13.088  24.615  0.00  0.00     0.162 HD
BRANCH  45  47
ATOM     47  C20 non d ame     -30.925  13.787  24.768  0.00  0.00     0.013 C 
ATOM     48  H30 non d ame     -30.112  13.452  25.412  0.00  0.00     0.072 H 
BRANCH  47  49
ATOM     49  C21 non d ame     -31.397  15.156  25.204  0.00  0.00    -0.038 C 
ATOM     50  H31 non d ame     -30.784  15.419  26.065  0.00  0.00     0.036 H 
ATOM     51  H32 non d ame     -31.372  15.774  24.306  0.00  0.00     0.036 H 
BRANCH  49  52
ATOM     52  C22 non d ame     -32.862  15.156  25.693  0.00  0.00     0.018 C 
ATOM     53  H33 non d ame     -33.444  15.593  24.883  0.00  0.00     0.048 H 
ATOM     54  H34 non d ame     -33.064  14.136  26.021  0.00  0.00     0.048 H 
BRANCH  52  55
ATOM     55  C23 non d ame     -33.107  16.061  26.933  0.00  0.00     0.259 C 
ATOM     56  O7  non d ame     -33.039  17.243  26.839  0.00  0.00    -0.265 OA
BRANCH  55  57
ATOM     57  O8  non d ame     -33.403  15.459  28.187  0.00  0.00    -0.317 OA
BRANCH  57  58
ATOM     58  C29 non d ame     -33.657  14.053  28.113  0.00  0.00     0.052 C 
ATOM     59  H47 non d ame     -34.635  13.906  28.572  0.00  0.00     0.082 H 
ATOM     60  H48 non d ame     -33.498  13.779  27.071  0.00  0.00     0.082 H 
BRANCH  58  61
ATOM     61  C35 non d ame     -32.593  13.327  28.979  0.00  0.00    -0.034 A 
ATOM     62  C30 non d ame     -31.255  13.349  28.601  0.00  0.00    -0.075 A 
ATOM     63  C31 non d ame     -30.299  12.696  29.379  0.00  0.00    -0.082 A 
ATOM     64  H49 non d ame     -30.954  13.875  27.695  0.00  0.00     0.084 H 
ATOM     65  C32 non d ame     -30.687  12.019  30.538  0.00  0.00    -0.083 A 
ATOM     66  H50 non d ame     -29.250  12.716  29.080  0.00  0.00     0.083 H 
ATOM     67  C33 non d ame     -32.024  11.998  30.909  0.00  0.00    -0.082 A 
ATOM     68  H51 non d ame     -29.946  11.507  31.152  0.00  0.00     0.083 H 
ATOM     69  C34 non d ame     -32.982  12.650  30.136  0.00  0.00    -0.075 A 
ATOM     70  H52 non d ame     -32.324  11.466  31.813  0.00  0.00     0.083 H 
ATOM     71  H53 non d ame     -34.031  12.630  30.435  0.00  0.00     0.084 H 
ENDBRANCH  58  61
ENDBRANCH  57  58
ENDBRANCH  55  57
ENDBRANCH  52  55
ENDBRANCH  49  52
ENDBRANCH  47  49
BRANCH  47  72
ATOM     72  C24 non d ame     -30.461  13.846  23.314  0.00  0.00    -0.039 C 
ATOM     73  H35 non d ame     -29.509  13.315  23.292  0.00  0.00     0.036 H 
ATOM     74  H36 non d ame     -31.302  13.480  22.726  0.00  0.00     0.036 H 
BRANCH  72  75
ATOM     75  C25 non d ame     -30.175  15.350  22.844  0.00  0.00    -0.001 C 
ATOM     76  C26 non d ame     -31.288  15.808  21.723  0.00  0.00    -0.035 C 
ATOM     77  C27 non d ame     -30.640  16.308  20.644  0.00  0.00     0.085 C 
ATOM     78  H38 non d ame     -31.802  14.932  21.328  0.00  0.00     0.036 H 
ATOM     79  H39 non d ame     -31.862  16.658  22.092  0.00  0.00     0.036 H 
ATOM     80  N5  non d ame     -29.185  15.933  20.790  0.00  0.00    -0.049 N 
ATOM     81  H40 non d ame     -31.058  15.784  19.785  0.00  0.00     0.075 H 
ATOM     82  H41 non d ame     -30.737  17.390  20.722  0.00  0.00     0.075 H 
ATOM     83  C28 non d ame     -28.999  15.462  22.323  0.00  0.00     0.193 C 
ATOM     84  H42 non d ame     -29.033  15.137  20.188  0.00  0.00     0.280 HD
ATOM     85  H43 non d ame     -28.656  16.782  20.648  0.00  0.00     0.280 HD
ATOM     86  H44 non d ame     -28.521  16.118  23.050  0.00  0.00     0.129 H 
ATOM     87  H37 non d ame     -30.015  16.023  23.687  0.00  0.00     0.046 H 
BRANCH  83  88
ATOM     88  O6  non d ame     -28.267  14.236  22.376  0.00  0.00    -0.369 OA
ATOM     89  H45 non d ame     -28.791  13.533  21.983  0.00  0.00     0.212 HD
ENDBRANCH  83  88
ENDBRANCH  72  75
ENDBRANCH  47  72
ENDBRANCH  45  47
ENDBRANCH   1  43
BRANCH   1  90
ATOM     90  C16 non d ame     -33.631  10.633  26.931  0.00  0.00    -0.035 C 
ATOM     91  H21 non d ame     -32.881  11.078  27.585  0.00  0.00     0.037 H 
ATOM     92  H22 non d ame     -34.545  11.180  26.699  0.00  0.00     0.037 H 
BRANCH  90  93
ATOM     93  C17 non d ame     -34.074   9.300  27.612  0.00  0.00    -0.059 C 
ATOM     94  H23 non d ame     -33.594   8.480  27.078  0.00  0.00     0.038 H 
BRANCH  93  95
ATOM     95  C18 non d ame     -33.623   9.223  29.106  0.00  0.00    -0.073 C 
ATOM     96  H24 non d ame     -34.210   9.924  29.699  0.00  0.00     0.028 H 
ATOM     97  H25 non d ame     -33.780   8.212  29.481  0.00  0.00     0.028 H 
ATOM     98  H26 non d ame     -32.567   9.478  29.180  0.00  0.00     0.028 H 
ENDBRANCH  93  95
BRANCH  93  99
ATOM     99  C19 non d ame     -35.587   9.099  27.488  0.00  0.00    -0.073 C 
ATOM    100  H27 non d ame     -36.027   9.958  26.981  0.00  0.00     0.028 H 
ATOM    101  H28 non d ame     -35.788   8.195  26.913  0.00  0.00     0.028 H 
ATOM    102  H29 non d ame     -36.023   9.001  28.482  0.00  0.00     0.028 H 
ENDBRANCH  93  99
ENDBRANCH  90  93
ENDBRANCH   1  90
TORSDOF 26
ENDMDL
MODEL 5
REMARK VINA RESULT:      -6.8      2.571      5.824
REMARK  26 active torsions:
REMARK  status: ('A' for Active; 'I' for Inactive)
REMARK    1  A    between atoms: C2_2  and  C3_3 
REMARK    2  A    between atoms: C4_6  and  C5_7 
REMARK       I    between atoms: C5_7  and  N2_9 
REMARK    3  A    between atoms: N2_9  and  C6_10 
REMARK    4  A    between atoms: C6_10  and  C7_11 
REMARK    5  A    between atoms: C6_10  and  C8_13 
REMARK       I    between atoms: C7_11  and  N3_14 
REMARK    6  A    between atoms: N3_14  and  C9_15 
REMARK    7  A    between atoms: C9_15  and  C10_16 
REMARK    8  A    between atoms: C9_15  and  C11_18 
REMARK       I    between atoms: C10_16  and  N4_21 
REMARK    9  A    between atoms: C11_18  and  C12_19 
REMARK   10  A    between atoms: C11_18  and  C13_20 
REMARK   11  A    between atoms: N4_21  and  C14_22 
REMARK   12  A    between atoms: C14_22  and  C15_23 
REMARK   13  A    between atoms: C14_22  and  C16_25 
REMARK       I    between atoms: C15_23  and  N6_40 
REMARK   14  A    between atoms: C16_25  and  C17_26 
REMARK   15  A    between atoms: C17_26  and  C18_27 
REMARK   16  A    between atoms: C17_26  and  C19_28 
REMARK   17  A    between atoms: C20_29  and  C21_30 
REMARK   18  A    between atoms: C20_29  and  C24_33 
REMARK   19  A    between atoms: C20_29  and  N6_40 
REMARK   20  A    between atoms: C21_30  and  C22_31 
REMARK   21  A    between atoms: C22_31  and  C23_32 
REMARK   22  A    between atoms: C23_32  and  O8_43 
REMARK   23  A    between atoms: C24_33  and  C25_34 
REMARK   24  A    between atoms: C28_38  and  O6_39 
REMARK   25  A    between atoms: C29_42  and  O8_43 
REMARK   26  A    between atoms: C29_42  and  C35_49 
ROOT
ATOM      1  C14 non d ame     -32.963  10.345  26.344  0.00  0.00     0.089 C 
ATOM      2  H20 non d ame     -33.747  10.691  25.671  0.00  0.00     0.087 H 
ENDROOT
BRANCH   1   3
ATOM      3  N4  non d ame     -32.267   9.252  25.682  0.00  0.00    -0.346 N 
ATOM      4  C10 non d ame     -33.036   8.240  24.871  0.00  0.00     0.241 C 
ATOM      5  O4  non d ame     -34.215   8.325  24.767  0.00  0.00    -0.271 OA
ATOM      6  H19 non d ame     -31.263   9.196  25.784  0.00  0.00     0.163 HD
BRANCH   4   7
ATOM      7  C9  non d ame     -32.298   7.118  24.187  0.00  0.00     0.092 C 
ATOM      8  H11 non d ame     -32.859   6.805  23.306  0.00  0.00     0.088 H 
BRANCH   7   9
ATOM      9  N3  non d ame     -30.995   7.601  23.723  0.00  0.00    -0.346 N 
ATOM     10  C7  non d ame     -30.823   8.003  22.348  0.00  0.00     0.240 C 
ATOM     11  O3  non d ame     -31.724   7.943  21.602  0.00  0.00    -0.271 OA
ATOM     12  H10 non d ame     -30.208   7.657  24.354  0.00  0.00     0.163 HD
BRANCH  10  13
ATOM     13  C6  non d ame     -29.433   8.514  21.859  0.00  0.00     0.086 C 
ATOM     14  H6  non d ame     -29.147   8.099  20.892  0.00  0.00     0.086 H 
BRANCH  13  15
ATOM     15  N2  non d ame     -29.492   9.956  21.690  0.00  0.00    -0.343 N 
ATOM     16  C5  non d ame     -29.930  10.795  22.808  0.00  0.00     0.273 C 
ATOM     17  O2  non d ame     -30.234  10.300  23.837  0.00  0.00    -0.266 OA
ATOM     18  H5  non d ame     -29.233  10.371  20.806  0.00  0.00     0.163 HD
BRANCH  16  19
ATOM     19  C4  non d ame     -29.997  12.322  22.644  0.00  0.00     0.154 A 
ATOM     20  C1  non d ame     -30.732  13.247  23.451  0.00  0.00    -0.017 A 
ATOM     21  C2  non d ame     -30.461  14.515  22.890  0.00  0.00     0.077 A 
ATOM     22  H1  non d ame     -31.366  13.031  24.312  0.00  0.00     0.091 H 
ATOM     23  O1  non d ame     -29.661  14.329  21.881  0.00  0.00    -0.218 OA
ATOM     24  N1  non d ame     -29.376  13.057  21.717  0.00  0.00    -0.123 NA
BRANCH  21  25
ATOM     25  C3  non d ame     -31.004  15.851  23.378  0.00  0.00    -0.029 C 
ATOM     26  H2  non d ame     -31.948  15.692  23.898  0.00  0.00     0.036 H 
ATOM     27  H3  non d ame     -30.286  16.307  24.060  0.00  0.00     0.036 H 
ATOM     28  H4  non d ame     -31.165  16.511  22.526  0.00  0.00     0.036 H 
ENDBRANCH  21  25
ENDBRANCH  16  19
ENDBRANCH  13  15
BRANCH  13  29
ATOM     29  C8  non d ame     -28.377   8.156  22.874  0.00  0.00    -0.049 C 
ATOM     30  H7  non d ame     -28.788   7.445  23.590  0.00  0.00     0.030 H 
ATOM     31  H8  non d ame     -27.523   7.707  22.367  0.00  0.00     0.030 H 
ATOM     32  H9  non d ame     -28.057   9.056  23.398  0.00  0.00     0.030 H 
ENDBRANCH  13  29
ENDBRANCH  10  13
ENDBRANCH   7   9
BRANCH   7  33
ATOM     33  C11 non d ame     -32.087   5.949  25.193  0.00  0.00    -0.033 C 
ATOM     34  H12 non d ame     -31.095   5.533  25.010  0.00  0.00     0.042 H 
BRANCH  33  35
ATOM     35  C12 non d ame     -32.118   6.455  26.669  0.00  0.00    -0.071 C 
ATOM     36  H13 non d ame     -33.137   6.740  26.933  0.00  0.00     0.028 H 
ATOM     37  H14 non d ame     -31.780   5.660  27.333  0.00  0.00     0.028 H 
ATOM     38  H15 non d ame     -31.462   7.319  26.770  0.00  0.00     0.028 H 
ENDBRANCH  33  35
BRANCH  33  39
ATOM     39  C13 non d ame     -33.136   4.814  24.960  0.00  0.00    -0.071 C 
ATOM     40  H16 non d ame     -32.819   3.913  25.486  0.00  0.00     0.028 H 
ATOM     41  H17 non d ame     -34.107   5.135  25.339  0.00  0.00     0.028 H 
ATOM     42  H18 non d ame     -33.214   4.605  23.894  0.00  0.00     0.028 H 
ENDBRANCH  33  39
ENDBRANCH   7  33
ENDBRANCH   4   7
ENDBRANCH   1   3
BRANCH   1  43
ATOM     43  C15 non d ame     -31.932  11.464  26.669  0.00  0.00     0.240 C 
ATOM     44  O5  non d ame     -30.780  11.295  26.429  0.00  0.00    -0.271 OA
ATOM     45  N6  non d ame     -32.382  12.752  27.271  0.00  0.00    -0.355 N 
ATOM     46  H46 non d ame     -33.358  12.909  27.474  0.00  0.00     0.162 HD
BRANCH  45  47
ATOM     47  C20 non d ame     -31.390  13.806  27.572  0.00  0.00     0.013 C 
ATOM     48  H30 non d ame     -30.513  13.629  26.950  0.00  0.00     0.072 H 
BRANCH  47  49
ATOM     49  C21 non d ame     -31.011  13.733  29.034  0.00  0.00    -0.038 C 
ATOM     50  H31 non d ame     -30.151  13.065  29.082  0.00  0.00     0.036 H 
ATOM     51  H32 non d ame     -30.918  14.767  29.366  0.00  0.00     0.036 H 
BRANCH  49  52
ATOM     52  C22 non d ame     -32.111  13.091  29.907  0.00  0.00     0.018 C 
ATOM     53  H33 non d ame     -32.345  13.827  30.675  0.00  0.00     0.048 H 
ATOM     54  H34 non d ame     -32.886  12.764  29.212  0.00  0.00     0.048 H 
BRANCH  52  55
ATOM     55  C23 non d ame     -31.647  11.816  30.663  0.00  0.00     0.259 C 
ATOM     56  O7  non d ame     -30.518  11.702  31.018  0.00  0.00    -0.265 OA
BRANCH  55  57
ATOM     57  O8  non d ame     -32.584  10.776  30.916  0.00  0.00    -0.317 OA
BRANCH  57  58
ATOM     58  C29 non d ame     -33.836  11.233  31.434  0.00  0.00     0.052 C 
ATOM     59  H47 non d ame     -33.645  11.497  32.474  0.00  0.00     0.082 H 
ATOM     60  H48 non d ame     -34.185  11.992  30.734  0.00  0.00     0.082 H 
BRANCH  58  61
ATOM     61  C35 non d ame     -34.830  10.042  31.404  0.00  0.00    -0.034 A 
ATOM     62  C30 non d ame     -34.366   8.752  31.169  0.00  0.00    -0.075 A 
ATOM     63  C31 non d ame     -35.259   7.682  31.142  0.00  0.00    -0.082 A 
ATOM     64  H49 non d ame     -33.302   8.579  31.006  0.00  0.00     0.084 H 
ATOM     65  C32 non d ame     -36.623   7.907  31.347  0.00  0.00    -0.083 A 
ATOM     66  H50 non d ame     -34.892   6.672  30.959  0.00  0.00     0.083 H 
ATOM     67  C33 non d ame     -37.083   9.196  31.578  0.00  0.00    -0.082 A 
ATOM     68  H51 non d ame     -37.328   7.076  31.328  0.00  0.00     0.083 H 
ATOM     69  C34 non d ame     -36.193  10.268  31.608  0.00  0.00    -0.075 A 
ATOM     70  H52 non d ame     -38.148   9.369  31.736  0.00  0.00     0.083 H 
ATOM     71  H53 non d ame     -36.561  11.278  31.791  0.00  0.00     0.084 H 
ENDBRANCH  58  61
ENDBRANCH  57  58
ENDBRANCH  55  57
ENDBRANCH  52  55
ENDBRANCH  49  52
ENDBRANCH  47  49
BRANCH  47  72
ATOM     72  C24 non d ame     -31.987  15.179  27.268  0.00  0.00    -0.039 C 
ATOM     73  H35 non d ame     -31.749  15.797  28.134  0.00  0.00     0.036 H 
ATOM     74  H36 non d ame     -31.604  15.450  26.284  0.00  0.00     0.036 H 
BRANCH  72  75
ATOM     75  C25 non d ame     -33.584  15.119  27.154  0.00  0.00    -0.001 C 
ATOM     76  C26 non d ame     -34.055  15.564  25.643  0.00  0.00    -0.035 C 
ATOM     77  C27 non d ame     -35.003  16.525  25.747  0.00  0.00     0.085 C 
ATOM     78  H38 non d ame     -33.236  16.068  25.130  0.00  0.00     0.036 H 
ATOM     79  H39 non d ame     -34.578  14.741  25.156  0.00  0.00     0.036 H 
ATOM     80  N5  non d ame     -34.988  17.008  27.177  0.00  0.00    -0.049 N 
ATOM     81  H40 non d ame     -34.671  17.334  25.095  0.00  0.00     0.075 H 
ATOM     82  H41 non d ame     -35.950  16.022  25.552  0.00  0.00     0.075 H 
ATOM     83  C28 non d ame     -34.143  15.910  28.007  0.00  0.00     0.193 C 
ATOM     84  H42 non d ame     -34.475  17.878  27.180  0.00  0.00     0.280 HD
ATOM     85  H43 non d ame     -35.946  16.986  27.496  0.00  0.00     0.280 HD
ATOM     86  H44 non d ame     -34.652  15.187  28.645  0.00  0.00     0.129 H 
ATOM     87  H37 non d ame     -33.991  14.186  27.546  0.00  0.00     0.046 H 
BRANCH  83  88
ATOM     88  O6  non d ame     -33.188  16.558  28.849  0.00  0.00    -0.369 OA
ATOM     89  H45 non d ame     -33.214  16.163  29.725  0.00  0.00     0.212 HD
ENDBRANCH  83  88
ENDBRANCH  72  75
ENDBRANCH  47  72
ENDBRANCH  45  47
ENDBRANCH   1  43
BRANCH   1  90
ATOM     90  C16 non d ame     -33.581   9.830  27.634  0.00  0.00    -0.035 C 
ATOM     91  H21 non d ame     -33.497   8.745  27.582  0.00  0.00     0.037 H 
ATOM     92  H22 non d ame     -33.081  10.378  28.433  0.00  0.00     0.037 H 
BRANCH  90  93
ATOM     93  C17 non d ame     -35.105  10.147  27.768  0.00  0.00    -0.059 C 
ATOM     94  H23 non d ame     -35.262  10.611  28.742  0.00  0.00     0.038 H 
BRANCH  93  95
ATOM     95  C18 non d ame     -35.596  11.152  26.678  0.00  0.00    -0.073 C 
ATOM     96  H24 non d ame     -35.506  12.171  27.055  0.00  0.00     0.028 H 
ATOM     97  H25 non d ame     -34.986  11.043  25.781  0.00  0.00     0.028 H 
ATOM     98  H26 non d ame     -36.638  10.945  26.436  0.00  0.00     0.028 H 
ENDBRANCH  93  95
BRANCH  93  99
ATOM     99  C19 non d ame     -35.935   8.862  27.737  0.00  0.00    -0.073 C 
ATOM    100  H27 non d ame     -35.745   8.284  28.643  0.00  0.00     0.028 H 
ATOM    101  H28 non d ame     -36.995   9.114  27.683  0.00  0.00     0.028 H 
ATOM    102  H29 non d ame     -35.658   8.271  26.864  0.00  0.00     0.028 H 
ENDBRANCH  93  99
ENDBRANCH  90  93
ENDBRANCH   1  90
TORSDOF 26
ENDMDL
MODEL 6
REMARK VINA RESULT:      -6.7      1.887      5.870
REMARK  26 active torsions:
REMARK  status: ('A' for Active; 'I' for Inactive)
REMARK    1  A    between atoms: C2_2  and  C3_3 
REMARK    2  A    between atoms: C4_6  and  C5_7 
REMARK       I    between atoms: C5_7  and  N2_9 
REMARK    3  A    between atoms: N2_9  and  C6_10 
REMARK    4  A    between atoms: C6_10  and  C7_11 
REMARK    5  A    between atoms: C6_10  and  C8_13 
REMARK       I    between atoms: C7_11  and  N3_14 
REMARK    6  A    between atoms: N3_14  and  C9_15 
REMARK    7  A    between atoms: C9_15  and  C10_16 
REMARK    8  A    between atoms: C9_15  and  C11_18 
REMARK       I    between atoms: C10_16  and  N4_21 
REMARK    9  A    between atoms: C11_18  and  C12_19 
REMARK   10  A    between atoms: C11_18  and  C13_20 
REMARK   11  A    between atoms: N4_21  and  C14_22 
REMARK   12  A    between atoms: C14_22  and  C15_23 
REMARK   13  A    between atoms: C14_22  and  C16_25 
REMARK       I    between atoms: C15_23  and  N6_40 
REMARK   14  A    between atoms: C16_25  and  C17_26 
REMARK   15  A    between atoms: C17_26  and  C18_27 
REMARK   16  A    between atoms: C17_26  and  C19_28 
REMARK   17  A    between atoms: C20_29  and  C21_30 
REMARK   18  A    between atoms: C20_29  and  C24_33 
REMARK   19  A    between atoms: C20_29  and  N6_40 
REMARK   20  A    between atoms: C21_30  and  C22_31 
REMARK   21  A    between atoms: C22_31  and  C23_32 
REMARK   22  A    between atoms: C23_32  and  O8_43 
REMARK   23  A    between atoms: C24_33  and  C25_34 
REMARK   24  A    between atoms: C28_38  and  O6_39 
REMARK   25  A    between atoms: C29_42  and  O8_43 
REMARK   26  A    between atoms: C29_42  and  C35_49 
ROOT
ATOM      1  C14 non d ame     -30.957  13.952  24.703  0.00  0.00     0.089 C 
ATOM      2  H20 non d ame     -29.982  13.793  25.164  0.00  0.00     0.087 H 
ENDROOT
BRANCH   1   3
ATOM      3  N4  non d ame     -31.412  12.669  24.186  0.00  0.00    -0.346 N 
ATOM      4  C10 non d ame     -31.323  11.430  25.040  0.00  0.00     0.241 C 
ATOM      5  O4  non d ame     -30.879  11.488  26.139  0.00  0.00    -0.271 OA
ATOM      6  H19 non d ame     -31.784  12.640  23.248  0.00  0.00     0.163 HD
BRANCH   4   7
ATOM      7  C9  non d ame     -31.804  10.112  24.492  0.00  0.00     0.092 C 
ATOM      8  H11 non d ame     -31.450   9.305  25.134  0.00  0.00     0.088 H 
BRANCH   7   9
ATOM      9  N3  non d ame     -33.269  10.076  24.519  0.00  0.00    -0.346 N 
ATOM     10  C7  non d ame     -33.954   9.448  25.622  0.00  0.00     0.240 C 
ATOM     11  O3  non d ame     -33.342   8.966  26.495  0.00  0.00    -0.271 OA
ATOM     12  H10 non d ame     -33.811  10.487  23.772  0.00  0.00     0.163 HD
BRANCH  10  13
ATOM     13  C6  non d ame     -35.514   9.411  25.644  0.00  0.00     0.086 C 
ATOM     14  H6  non d ame     -35.913   8.973  26.559  0.00  0.00     0.086 H 
BRANCH  13  15
ATOM     15  N2  non d ame     -36.019  10.772  25.580  0.00  0.00    -0.343 N 
ATOM     16  C5  non d ame     -36.404  11.457  26.816  0.00  0.00     0.273 C 
ATOM     17  O2  non d ame     -36.307  10.904  27.856  0.00  0.00    -0.266 OA
ATOM     18  H5  non d ame     -36.102  11.237  24.687  0.00  0.00     0.163 HD
BRANCH  16  19
ATOM     19  C4  non d ame     -36.939  12.897  26.764  0.00  0.00     0.154 A 
ATOM     20  C1  non d ame     -36.176  14.097  26.602  0.00  0.00    -0.017 A 
ATOM     21  C2  non d ame     -37.130  15.139  26.619  0.00  0.00     0.077 A 
ATOM     22  H1  non d ame     -35.096  14.197  26.490  0.00  0.00     0.091 H 
ATOM     23  O1  non d ame     -38.299  14.591  26.772  0.00  0.00    -0.218 OA
ATOM     24  N1  non d ame     -38.214  13.284  26.859  0.00  0.00    -0.123 NA
BRANCH  21  25
ATOM     25  C3  non d ame     -36.841  16.628  26.483  0.00  0.00    -0.029 C 
ATOM     26  H2  non d ame     -35.777  16.777  26.301  0.00  0.00     0.036 H 
ATOM     27  H3  non d ame     -37.412  17.034  25.648  0.00  0.00     0.036 H 
ATOM     28  H4  non d ame     -37.127  17.140  27.401  0.00  0.00     0.036 H 
ENDBRANCH  21  25
ENDBRANCH  16  19
ENDBRANCH  13  15
BRANCH  13  29
ATOM     29  C8  non d ame     -36.017   8.618  24.465  0.00  0.00    -0.049 C 
ATOM     30  H7  non d ame     -35.169   8.227  23.901  0.00  0.00     0.030 H 
ATOM     31  H8  non d ame     -36.630   7.789  24.819  0.00  0.00     0.030 H 
ATOM     32  H9  non d ame     -36.615   9.263  23.821  0.00  0.00     0.030 H 
ENDBRANCH  13  29
ENDBRANCH  10  13
ENDBRANCH   7   9
BRANCH   7  33
ATOM     33  C11 non d ame     -31.311   9.950  23.024  0.00  0.00    -0.033 C 
ATOM     34  H12 non d ame     -31.554  10.871  22.492  0.00  0.00     0.042 H 
BRANCH  33  35
ATOM     35  C12 non d ame     -29.763   9.767  22.961  0.00  0.00    -0.071 C 
ATOM     36  H13 non d ame     -29.521   8.704  22.994  0.00  0.00     0.028 H 
ATOM     37  H14 non d ame     -29.383  10.197  22.035  0.00  0.00     0.028 H 
ATOM     38  H15 non d ame     -29.303  10.270  23.811  0.00  0.00     0.028 H 
ENDBRANCH  33  35
BRANCH  33  39
ATOM     39  C13 non d ame     -32.051   8.772  22.312  0.00  0.00    -0.071 C 
ATOM     40  H16 non d ame     -31.805   8.778  21.250  0.00  0.00     0.028 H 
ATOM     41  H17 non d ame     -31.736   7.826  22.753  0.00  0.00     0.028 H 
ATOM     42  H18 non d ame     -33.127   8.890  22.437  0.00  0.00     0.028 H 
ENDBRANCH  33  39
ENDBRANCH   7  33
ENDBRANCH   4   7
ENDBRANCH   1   3
BRANCH   1  43
ATOM     43  C15 non d ame     -32.009  14.477  25.721  0.00  0.00     0.240 C 
ATOM     44  O5  non d ame     -33.066  14.860  25.335  0.00  0.00    -0.271 OA
ATOM     45  N6  non d ame     -31.703  14.494  27.180  0.00  0.00    -0.355 N 
ATOM     46  H46 non d ame     -30.810  14.167  27.521  0.00  0.00     0.162 HD
BRANCH  45  47
ATOM     47  C20 non d ame     -32.714  14.996  28.135  0.00  0.00     0.013 C 
ATOM     48  H30 non d ame     -33.697  14.858  27.686  0.00  0.00     0.072 H 
BRANCH  47  49
ATOM     49  C21 non d ame     -32.468  16.464  28.399  0.00  0.00    -0.038 C 
ATOM     50  H31 non d ame     -32.603  16.597  29.473  0.00  0.00     0.036 H 
ATOM     51  H32 non d ame     -31.506  16.688  27.938  0.00  0.00     0.036 H 
BRANCH  49  52
ATOM     52  C22 non d ame     -33.505  17.378  27.712  0.00  0.00     0.018 C 
ATOM     53  H33 non d ame     -34.180  16.710  27.179  0.00  0.00     0.048 H 
ATOM     54  H34 non d ame     -33.890  18.030  28.497  0.00  0.00     0.048 H 
BRANCH  52  55
ATOM     55  C23 non d ame     -32.895  18.319  26.636  0.00  0.00     0.259 C 
ATOM     56  O7  non d ame     -32.015  17.941  25.933  0.00  0.00    -0.265 OA
BRANCH  55  57
ATOM     57  O8  non d ame     -33.393  19.645  26.508  0.00  0.00    -0.317 OA
BRANCH  57  58
ATOM     58  C29 non d ame     -34.483  19.946  27.383  0.00  0.00     0.052 C 
ATOM     59  H47 non d ame     -34.664  19.034  27.953  0.00  0.00     0.082 H 
ATOM     60  H48 non d ame     -34.204  20.864  27.899  0.00  0.00     0.082 H 
BRANCH  58  61
ATOM     61  C35 non d ame     -35.733  20.235  26.510  0.00  0.00    -0.034 A 
ATOM     62  C30 non d ame     -35.779  19.795  25.191  0.00  0.00    -0.075 A 
ATOM     63  C31 non d ame     -36.901  20.054  24.406  0.00  0.00    -0.082 A 
ATOM     64  H49 non d ame     -34.934  19.247  24.772  0.00  0.00     0.084 H 
ATOM     65  C32 non d ame     -37.981  20.760  24.945  0.00  0.00    -0.083 A 
ATOM     66  H50 non d ame     -36.934  19.707  23.373  0.00  0.00     0.083 H 
ATOM     67  C33 non d ame     -37.930  21.200  26.260  0.00  0.00    -0.082 A 
ATOM     68  H51 non d ame     -38.863  20.966  24.339  0.00  0.00     0.083 H 
ATOM     69  C34 non d ame     -36.811  20.940  27.049  0.00  0.00    -0.075 A 
ATOM     70  H52 non d ame     -38.773  21.752  26.677  0.00  0.00     0.083 H 
ATOM     71  H53 non d ame     -36.779  21.288  28.082  0.00  0.00     0.084 H 
ENDBRANCH  58  61
ENDBRANCH  57  58
ENDBRANCH  55  57
ENDBRANCH  52  55
ENDBRANCH  49  52
ENDBRANCH  47  49
BRANCH  47  72
ATOM     72  C24 non d ame     -32.616  14.218  29.446  0.00  0.00    -0.039 C 
ATOM     73  H35 non d ame     -31.955  14.806  30.084  0.00  0.00     0.036 H 
ATOM     74  H36 non d ame     -33.646  14.035  29.752  0.00  0.00     0.036 H 
BRANCH  72  75
ATOM     75  C25 non d ame     -31.923  12.789  29.238  0.00  0.00    -0.001 C 
ATOM     76  C26 non d ame     -33.069  11.609  29.217  0.00  0.00    -0.035 C 
ATOM     77  C27 non d ame     -32.714  10.642  30.096  0.00  0.00     0.085 C 
ATOM     78  H38 non d ame     -34.006  11.991  29.622  0.00  0.00     0.036 H 
ATOM     79  H39 non d ame     -33.059  11.096  28.255  0.00  0.00     0.036 H 
ATOM     80  N5  non d ame     -31.605  11.206  30.951  0.00  0.00    -0.049 N 
ATOM     81  H40 non d ame     -33.594  10.477  30.718  0.00  0.00     0.075 H 
ATOM     82  H41 non d ame     -32.316   9.829  29.489  0.00  0.00     0.075 H 
ATOM     83  C28 non d ame     -31.088  12.531  30.188  0.00  0.00     0.193 C 
ATOM     84  H42 non d ame     -32.030  11.482  31.824  0.00  0.00     0.280 HD
ATOM     85  H43 non d ame     -30.863  10.521  30.944  0.00  0.00     0.280 HD
ATOM     86  H44 non d ame     -30.151  12.519  29.630  0.00  0.00     0.129 H 
ATOM     87  H37 non d ame     -31.203  12.795  28.420  0.00  0.00     0.046 H 
BRANCH  83  88
ATOM     88  O6  non d ame     -30.969  13.616  31.110  0.00  0.00    -0.369 OA
ATOM     89  H45 non d ame     -31.779  13.692  31.621  0.00  0.00     0.212 HD
ENDBRANCH  83  88
ENDBRANCH  72  75
ENDBRANCH  47  72
ENDBRANCH  45  47
ENDBRANCH   1  43
BRANCH   1  90
ATOM     90  C16 non d ame     -30.827  14.933  23.549  0.00  0.00    -0.035 C 
ATOM     91  H21 non d ame     -31.849  15.182  23.266  0.00  0.00     0.037 H 
ATOM     92  H22 non d ame     -30.156  15.714  23.909  0.00  0.00     0.037 H 
BRANCH  90  93
ATOM     93  C17 non d ame     -30.153  14.322  22.280  0.00  0.00    -0.059 C 
ATOM     94  H23 non d ame     -30.463  13.280  22.210  0.00  0.00     0.038 H 
BRANCH  93  95
ATOM     95  C18 non d ame     -30.605  15.042  20.969  0.00  0.00    -0.073 C 
ATOM     96  H24 non d ame     -30.455  16.116  21.073  0.00  0.00     0.028 H 
ATOM     97  H25 non d ame     -30.016  14.674  20.130  0.00  0.00     0.028 H 
ATOM     98  H26 non d ame     -31.661  14.839  20.788  0.00  0.00     0.028 H 
ENDBRANCH  93  95
BRANCH  93  99
ATOM     99  C19 non d ame     -28.628  14.336  22.410  0.00  0.00    -0.073 C 
ATOM    100  H27 non d ame     -28.195  13.648  21.683  0.00  0.00     0.028 H 
ATOM    101  H28 non d ame     -28.256  15.343  22.224  0.00  0.00     0.028 H 
ATOM    102  H29 non d ame     -28.347  14.025  23.416  0.00  0.00     0.028 H 
ENDBRANCH  93  99
ENDBRANCH  90  93
ENDBRANCH   1  90
TORSDOF 26
ENDMDL
MODEL 7
REMARK VINA RESULT:      -6.7      2.209      5.292
REMARK  26 active torsions:
REMARK  status: ('A' for Active; 'I' for Inactive)
REMARK    1  A    between atoms: C2_2  and  C3_3 
REMARK    2  A    between atoms: C4_6  and  C5_7 
REMARK       I    between atoms: C5_7  and  N2_9 
REMARK    3  A    between atoms: N2_9  and  C6_10 
REMARK    4  A    between atoms: C6_10  and  C7_11 
REMARK    5  A    between atoms: C6_10  and  C8_13 
REMARK       I    between atoms: C7_11  and  N3_14 
REMARK    6  A    between atoms: N3_14  and  C9_15 
REMARK    7  A    between atoms: C9_15  and  C10_16 
REMARK    8  A    between atoms: C9_15  and  C11_18 
REMARK       I    between atoms: C10_16  and  N4_21 
REMARK    9  A    between atoms: C11_18  and  C12_19 
REMARK   10  A    between atoms: C11_18  and  C13_20 
REMARK   11  A    between atoms: N4_21  and  C14_22 
REMARK   12  A    between atoms: C14_22  and  C15_23 
REMARK   13  A    between atoms: C14_22  and  C16_25 
REMARK       I    between atoms: C15_23  and  N6_40 
REMARK   14  A    between atoms: C16_25  and  C17_26 
REMARK   15  A    between atoms: C17_26  and  C18_27 
REMARK   16  A    between atoms: C17_26  and  C19_28 
REMARK   17  A    between atoms: C20_29  and  C21_30 
REMARK   18  A    between atoms: C20_29  and  C24_33 
REMARK   19  A    between atoms: C20_29  and  N6_40 
REMARK   20  A    between atoms: C21_30  and  C22_31 
REMARK   21  A    between atoms: C22_31  and  C23_32 
REMARK   22  A    between atoms: C23_32  and  O8_43 
REMARK   23  A    between atoms: C24_33  and  C25_34 
REMARK   24  A    between atoms: C28_38  and  O6_39 
REMARK   25  A    between atoms: C29_42  and  O8_43 
REMARK   26  A    between atoms: C29_42  and  C35_49 
ROOT
ATOM      1  C14 non d ame     -30.981  13.868  24.129  0.00  0.00     0.089 C 
ATOM      2  H20 non d ame     -29.989  13.879  24.582  0.00  0.00     0.087 H 
ENDROOT
BRANCH   1   3
ATOM      3  N4  non d ame     -31.444  12.488  24.122  0.00  0.00    -0.346 N 
ATOM      4  C10 non d ame     -31.338  11.643  25.367  0.00  0.00     0.241 C 
ATOM      5  O4  non d ame     -30.874  12.095  26.361  0.00  0.00    -0.271 OA
ATOM      6  H19 non d ame     -31.834  12.122  23.265  0.00  0.00     0.163 HD
BRANCH   4   7
ATOM      7  C9  non d ame     -31.828  10.219  25.344  0.00  0.00     0.092 C 
ATOM      8  H11 non d ame     -31.041   9.564  25.718  0.00  0.00     0.088 H 
BRANCH   7   9
ATOM      9  N3  non d ame     -32.974  10.081  26.247  0.00  0.00    -0.346 N 
ATOM     10  C7  non d ame     -33.064   8.942  27.127  0.00  0.00     0.240 C 
ATOM     11  O3  non d ame     -32.225   8.126  27.120  0.00  0.00    -0.271 OA
ATOM     12  H10 non d ame     -33.707  10.776  26.264  0.00  0.00     0.163 HD
BRANCH  10  13
ATOM     13  C6  non d ame     -34.288   8.798  28.084  0.00  0.00     0.086 C 
ATOM     14  H6  non d ame     -34.073   9.136  29.098  0.00  0.00     0.086 H 
BRANCH  13  15
ATOM     15  N2  non d ame     -35.373   9.631  27.590  0.00  0.00    -0.343 N 
ATOM     16  C5  non d ame     -36.237  10.330  28.544  0.00  0.00     0.273 C 
ATOM     17  O2  non d ame     -36.053  10.215  29.706  0.00  0.00    -0.266 OA
ATOM     18  H5  non d ame     -35.525   9.721  26.596  0.00  0.00     0.163 HD
BRANCH  16  19
ATOM     19  C4  non d ame     -37.386  11.215  28.036  0.00  0.00     0.154 A 
ATOM     20  C1  non d ame     -37.439  11.941  26.804  0.00  0.00    -0.017 A 
ATOM     21  C2  non d ame     -38.696  12.586  26.815  0.00  0.00     0.077 A 
ATOM     22  H1  non d ame     -36.681  11.993  26.022  0.00  0.00     0.091 H 
ATOM     23  O1  non d ame     -39.288  12.260  27.927  0.00  0.00    -0.218 OA
ATOM     24  N1  non d ame     -38.544  11.461  28.656  0.00  0.00    -0.123 NA
BRANCH  21  25
ATOM     25  C3  non d ame     -39.254  13.493  25.727  0.00  0.00    -0.029 C 
ATOM     26  H2  non d ame     -40.000  12.950  25.148  0.00  0.00     0.036 H 
ATOM     27  H3  non d ame     -39.716  14.368  26.185  0.00  0.00     0.036 H 
ATOM     28  H4  non d ame     -38.445  13.813  25.070  0.00  0.00     0.036 H 
ENDBRANCH  21  25
ENDBRANCH  16  19
ENDBRANCH  13  15
BRANCH  13  29
ATOM     29  C8  non d ame     -34.725   7.356  28.134  0.00  0.00    -0.049 C 
ATOM     30  H7  non d ame     -35.087   7.052  27.152  0.00  0.00     0.030 H 
ATOM     31  H8  non d ame     -33.880   6.731  28.420  0.00  0.00     0.030 H 
ATOM     32  H9  non d ame     -35.525   7.244  28.866  0.00  0.00     0.030 H 
ENDBRANCH  13  29
ENDBRANCH  10  13
ENDBRANCH   7   9
BRANCH   7  33
ATOM     33  C11 non d ame     -32.263   9.844  23.897  0.00  0.00    -0.033 C 
ATOM     34  H12 non d ame     -32.092  10.716  23.266  0.00  0.00     0.042 H 
BRANCH  33  35
ATOM     35  C12 non d ame     -31.398   8.676  23.328  0.00  0.00    -0.071 C 
ATOM     36  H13 non d ame     -30.659   8.376  24.071  0.00  0.00     0.028 H 
ATOM     37  H14 non d ame     -32.041   7.829  23.093  0.00  0.00     0.028 H 
ATOM     38  H15 non d ame     -30.889   9.008  22.423  0.00  0.00     0.028 H 
ENDBRANCH  33  35
BRANCH  33  39
ATOM     39  C13 non d ame     -33.786   9.499  23.843  0.00  0.00    -0.071 C 
ATOM     40  H16 non d ame     -33.997   8.676  24.527  0.00  0.00     0.028 H 
ATOM     41  H17 non d ame     -34.367  10.374  24.136  0.00  0.00     0.028 H 
ATOM     42  H18 non d ame     -34.057   9.207  22.828  0.00  0.00     0.028 H 
ENDBRANCH  33  39
ENDBRANCH   7  33
ENDBRANCH   4   7
ENDBRANCH   1   3
BRANCH   1  43
ATOM     43  C15 non d ame     -32.001  14.729  24.928  0.00  0.00     0.240 C 
ATOM     44  O5  non d ame     -33.003  15.096  24.404  0.00  0.00    -0.271 OA
ATOM     45  N6  non d ame     -31.733  15.088  26.350  0.00  0.00    -0.355 N 
ATOM     46  H46 non d ame     -30.888  14.778  26.807  0.00  0.00     0.162 HD
BRANCH  45  47
ATOM     47  C20 non d ame     -32.714  15.906  27.096  0.00  0.00     0.013 C 
ATOM     48  H30 non d ame     -33.708  15.660  26.725  0.00  0.00     0.072 H 
BRANCH  47  49
ATOM     49  C21 non d ame     -32.423  17.371  26.862  0.00  0.00    -0.038 C 
ATOM     50  H31 non d ame     -31.363  17.426  26.614  0.00  0.00     0.036 H 
ATOM     51  H32 non d ame     -33.169  17.708  26.143  0.00  0.00     0.036 H 
BRANCH  49  52
ATOM     52  C22 non d ame     -32.619  18.231  28.130  0.00  0.00     0.018 C 
ATOM     53  H33 non d ame     -33.160  17.600  28.834  0.00  0.00     0.048 H 
ATOM     54  H34 non d ame     -31.630  18.610  28.386  0.00  0.00     0.048 H 
BRANCH  52  55
ATOM     55  C23 non d ame     -33.512  19.483  27.905  0.00  0.00     0.259 C 
ATOM     56  O7  non d ame     -33.125  20.388  27.240  0.00  0.00    -0.265 OA
BRANCH  55  57
ATOM     57  O8  non d ame     -34.796  19.542  28.515  0.00  0.00    -0.317 OA
BRANCH  57  58
ATOM     58  C29 non d ame     -35.881  19.592  27.584  0.00  0.00     0.052 C 
ATOM     59  H47 non d ame     -36.772  19.788  28.180  0.00  0.00     0.082 H 
ATOM     60  H48 non d ame     -35.576  20.299  26.813  0.00  0.00     0.082 H 
BRANCH  58  61
ATOM     61  C35 non d ame     -36.021  18.189  26.936  0.00  0.00    -0.034 A 
ATOM     62  C30 non d ame     -35.958  18.052  25.553  0.00  0.00    -0.075 A 
ATOM     63  C31 non d ame     -36.085  16.791  24.970  0.00  0.00    -0.082 A 
ATOM     64  H49 non d ame     -35.811  18.931  24.925  0.00  0.00     0.084 H 
ATOM     65  C32 non d ame     -36.277  15.666  25.776  0.00  0.00    -0.083 A 
ATOM     66  H50 non d ame     -36.033  16.686  23.886  0.00  0.00     0.083 H 
ATOM     67  C33 non d ame     -36.342  15.809  27.156  0.00  0.00    -0.082 A 
ATOM     68  H51 non d ame     -36.376  14.677  25.329  0.00  0.00     0.083 H 
ATOM     69  C34 non d ame     -36.215  17.066  27.742  0.00  0.00    -0.075 A 
ATOM     70  H52 non d ame     -36.495  14.929  27.782  0.00  0.00     0.083 H 
ATOM     71  H53 non d ame     -36.266  17.170  28.826  0.00  0.00     0.084 H 
ENDBRANCH  58  61
ENDBRANCH  57  58
ENDBRANCH  55  57
ENDBRANCH  52  55
ENDBRANCH  49  52
ENDBRANCH  47  49
BRANCH  47  72
ATOM     72  C24 non d ame     -32.613  15.598  28.589  0.00  0.00    -0.039 C 
ATOM     73  H35 non d ame     -32.241  16.514  29.049  0.00  0.00     0.036 H 
ATOM     74  H36 non d ame     -33.590  15.205  28.870  0.00  0.00     0.036 H 
BRANCH  72  75
ATOM     75  C25 non d ame     -31.538  14.448  28.886  0.00  0.00    -0.001 C 
ATOM     76  C26 non d ame     -32.308  13.045  29.260  0.00  0.00    -0.035 C 
ATOM     77  C27 non d ame     -31.799  12.563  30.420  0.00  0.00     0.085 C 
ATOM     78  H38 non d ame     -33.352  13.244  29.504  0.00  0.00     0.036 H 
ATOM     79  H39 non d ame     -32.056  12.274  28.532  0.00  0.00     0.036 H 
ATOM     80  N5  non d ame     -30.984  13.673  31.038  0.00  0.00    -0.049 N 
ATOM     81  H40 non d ame     -32.662  12.359  31.054  0.00  0.00     0.075 H 
ATOM     82  H41 non d ame     -31.132  11.752  30.130  0.00  0.00     0.075 H 
ATOM     83  C28 non d ame     -30.770  14.770  29.873  0.00  0.00     0.193 C 
ATOM     84  H42 non d ame     -31.559  14.081  31.762  0.00  0.00     0.280 HD
ATOM     85  H43 non d ame     -30.087  13.273  31.272  0.00  0.00     0.280 HD
ATOM     86  H44 non d ame     -29.812  14.853  29.360  0.00  0.00     0.129 H 
ATOM     87  H37 non d ame     -30.763  14.400  28.120  0.00  0.00     0.046 H 
BRANCH  83  88
ATOM     88  O6  non d ame     -31.052  16.079  30.370  0.00  0.00    -0.369 OA
ATOM     89  H45 non d ame     -31.925  16.352  30.078  0.00  0.00     0.212 HD
ENDBRANCH  83  88
ENDBRANCH  72  75
ENDBRANCH  47  72
ENDBRANCH  45  47
ENDBRANCH   1  43
BRANCH   1  90
ATOM     90  C16 non d ame     -30.900  14.371  22.697  0.00  0.00    -0.035 C 
ATOM     91  H21 non d ame     -30.619  13.502  22.102  0.00  0.00     0.037 H 
ATOM     92  H22 non d ame     -31.849  14.873  22.512  0.00  0.00     0.037 H 
BRANCH  90  93
ATOM     93  C17 non d ame     -29.783  15.439  22.470  0.00  0.00    -0.059 C 
ATOM     94  H23 non d ame     -29.965  16.259  23.165  0.00  0.00     0.038 H 
BRANCH  93  95
ATOM     95  C18 non d ame     -28.357  14.873  22.764  0.00  0.00    -0.073 C 
ATOM     96  H24 non d ame     -28.424  14.099  23.528  0.00  0.00     0.028 H 
ATOM     97  H25 non d ame     -27.940  14.448  21.852  0.00  0.00     0.028 H 
ATOM     98  H26 non d ame     -27.713  15.678  23.118  0.00  0.00     0.028 H 
ENDBRANCH  93  95
BRANCH  93  99
ATOM     99  C19 non d ame     -29.859  16.017  21.055  0.00  0.00    -0.073 C 
ATOM    100  H27 non d ame     -28.880  15.943  20.579  0.00  0.00     0.028 H 
ATOM    101  H28 non d ame     -30.589  15.456  20.471  0.00  0.00     0.028 H 
ATOM    102  H29 non d ame     -30.161  17.063  21.104  0.00  0.00     0.028 H 
ENDBRANCH  93  99
ENDBRANCH  90  93
ENDBRANCH   1  90
TORSDOF 26
ENDMDL
MODEL 8
REMARK VINA RESULT:      -6.7      2.033      8.274
REMARK  26 active torsions:
REMARK  status: ('A' for Active; 'I' for Inactive)
REMARK    1  A    between atoms: C2_2  and  C3_3 
REMARK    2  A    between atoms: C4_6  and  C5_7 
REMARK       I    between atoms: C5_7  and  N2_9 
REMARK    3  A    between atoms: N2_9  and  C6_10 
REMARK    4  A    between atoms: C6_10  and  C7_11 
REMARK    5  A    between atoms: C6_10  and  C8_13 
REMARK       I    between atoms: C7_11  and  N3_14 
REMARK    6  A    between atoms: N3_14  and  C9_15 
REMARK    7  A    between atoms: C9_15  and  C10_16 
REMARK    8  A    between atoms: C9_15  and  C11_18 
REMARK       I    between atoms: C10_16  and  N4_21 
REMARK    9  A    between atoms: C11_18  and  C12_19 
REMARK   10  A    between atoms: C11_18  and  C13_20 
REMARK   11  A    between atoms: N4_21  and  C14_22 
REMARK   12  A    between atoms: C14_22  and  C15_23 
REMARK   13  A    between atoms: C14_22  and  C16_25 
REMARK       I    between atoms: C15_23  and  N6_40 
REMARK   14  A    between atoms: C16_25  and  C17_26 
REMARK   15  A    between atoms: C17_26  and  C18_27 
REMARK   16  A    between atoms: C17_26  and  C19_28 
REMARK   17  A    between atoms: C20_29  and  C21_30 
REMARK   18  A    between atoms: C20_29  and  C24_33 
REMARK   19  A    between atoms: C20_29  and  N6_40 
REMARK   20  A    between atoms: C21_30  and  C22_31 
REMARK   21  A    between atoms: C22_31  and  C23_32 
REMARK   22  A    between atoms: C23_32  and  O8_43 
REMARK   23  A    between atoms: C24_33  and  C25_34 
REMARK   24  A    between atoms: C28_38  and  O6_39 
REMARK   25  A    between atoms: C29_42  and  O8_43 
REMARK   26  A    between atoms: C29_42  and  C35_49 
ROOT
ATOM      1  C14 non d ame     -36.456  15.990  26.532  0.00  0.00     0.089 C 
ATOM      2  H20 non d ame     -37.050  16.535  27.267  0.00  0.00     0.087 H 
ENDROOT
BRANCH   1   3
ATOM      3  N4  non d ame     -35.055  16.173  26.879  0.00  0.00    -0.346 N 
ATOM      4  C10 non d ame     -34.646  17.240  27.863  0.00  0.00     0.241 C 
ATOM      5  O4  non d ame     -35.463  17.941  28.361  0.00  0.00    -0.271 OA
ATOM      6  H19 non d ame     -34.374  15.567  26.442  0.00  0.00     0.163 HD
BRANCH   4   7
ATOM      7  C9  non d ame     -33.191  17.411  28.215  0.00  0.00     0.092 C 
ATOM      8  H11 non d ame     -33.112  17.928  29.171  0.00  0.00     0.088 H 
BRANCH   7   9
ATOM      9  N3  non d ame     -32.570  16.093  28.382  0.00  0.00    -0.346 N 
ATOM     10  C7  non d ame     -31.735  15.831  29.528  0.00  0.00     0.240 C 
ATOM     11  O3  non d ame     -31.552  16.668  30.325  0.00  0.00    -0.271 OA
ATOM     12  H10 non d ame     -32.719  15.361  27.702  0.00  0.00     0.163 HD
BRANCH  10  13
ATOM     13  C6  non d ame     -31.075  14.427  29.699  0.00  0.00     0.086 C 
ATOM     14  H6  non d ame     -30.427  14.370  30.574  0.00  0.00     0.086 H 
BRANCH  13  15
ATOM     15  N2  non d ame     -32.119  13.435  29.890  0.00  0.00    -0.343 N 
ATOM     16  C5  non d ame     -31.809  12.187  30.591  0.00  0.00     0.273 C 
ATOM     17  O2  non d ame     -30.717  11.991  30.996  0.00  0.00    -0.266 OA
ATOM     18  H5  non d ame     -33.050  13.610  29.538  0.00  0.00     0.163 HD
BRANCH  16  19
ATOM     19  C4  non d ame     -32.904  11.129  30.801  0.00  0.00     0.154 A 
ATOM     20  C1  non d ame     -33.277  10.081  29.901  0.00  0.00    -0.017 A 
ATOM     21  C2  non d ame     -34.322   9.393  30.557  0.00  0.00     0.077 A 
ATOM     22  H1  non d ame     -32.854   9.854  28.922  0.00  0.00     0.091 H 
ATOM     23  O1  non d ame     -34.518   9.985  31.699  0.00  0.00    -0.218 OA
ATOM     24  N1  non d ame     -33.703  11.001  31.864  0.00  0.00    -0.123 NA
BRANCH  21  25
ATOM     25  C3  non d ame     -35.079   8.183  30.025  0.00  0.00    -0.029 C 
ATOM     26  H2  non d ame     -34.756   7.290  30.558  0.00  0.00     0.036 H 
ATOM     27  H3  non d ame     -36.148   8.329  30.176  0.00  0.00     0.036 H 
ATOM     28  H4  non d ame     -34.874   8.066  28.961  0.00  0.00     0.036 H 
ENDBRANCH  21  25
ENDBRANCH  16  19
ENDBRANCH  13  15
BRANCH  13  29
ATOM     29  C8  non d ame     -30.265  14.097  28.471  0.00  0.00    -0.049 C 
ATOM     30  H7  non d ame     -30.515  13.092  28.131  0.00  0.00     0.030 H 
ATOM     31  H8  non d ame     -30.493  14.814  27.683  0.00  0.00     0.030 H 
ATOM     32  H9  non d ame     -29.203  14.146  28.712  0.00  0.00     0.030 H 
ENDBRANCH  13  29
ENDBRANCH  10  13
ENDBRANCH   7   9
BRANCH   7  33
ATOM     33  C11 non d ame     -32.468  18.180  27.070  0.00  0.00    -0.033 C 
ATOM     34  H12 non d ame     -31.397  18.022  27.194  0.00  0.00     0.042 H 
BRANCH  33  35
ATOM     35  C12 non d ame     -32.867  17.620  25.669  0.00  0.00    -0.071 C 
ATOM     36  H13 non d ame     -33.891  17.913  25.439  0.00  0.00     0.028 H 
ATOM     37  H14 non d ame     -32.194  18.024  24.912  0.00  0.00     0.028 H 
ATOM     38  H15 non d ame     -32.794  16.533  25.678  0.00  0.00     0.028 H 
ENDBRANCH  33  35
BRANCH  33  39
ATOM     39  C13 non d ame     -32.745  19.715  27.167  0.00  0.00    -0.071 C 
ATOM     40  H16 non d ame     -33.302  19.927  28.079  0.00  0.00     0.028 H 
ATOM     41  H17 non d ame     -31.797  20.254  27.186  0.00  0.00     0.028 H 
ATOM     42  H18 non d ame     -33.326  20.034  26.302  0.00  0.00     0.028 H 
ENDBRANCH  33  39
ENDBRANCH   7  33
ENDBRANCH   4   7
ENDBRANCH   1   3
BRANCH   1  43
ATOM     43  C15 non d ame     -36.773  14.467  26.534  0.00  0.00     0.240 C 
ATOM     44  O5  non d ame     -37.834  14.085  26.908  0.00  0.00    -0.271 OA
ATOM     45  N6  non d ame     -35.755  13.486  26.062  0.00  0.00    -0.355 N 
ATOM     46  H46 non d ame     -34.852  13.799  25.738  0.00  0.00     0.162 HD
BRANCH  45  47
ATOM     47  C20 non d ame     -36.072  12.041  26.069  0.00  0.00     0.013 C 
ATOM     48  H30 non d ame     -36.983  11.900  26.650  0.00  0.00     0.072 H 
BRANCH  47  49
ATOM     49  C21 non d ame     -34.930  11.282  26.707  0.00  0.00    -0.038 C 
ATOM     50  H31 non d ame     -34.704  11.812  27.632  0.00  0.00     0.036 H 
ATOM     51  H32 non d ame     -35.251  10.241  26.739  0.00  0.00     0.036 H 
BRANCH  49  52
ATOM     52  C22 non d ame     -33.641  11.315  25.858  0.00  0.00     0.018 C 
ATOM     53  H33 non d ame     -33.011  10.517  26.247  0.00  0.00     0.048 H 
ATOM     54  H34 non d ame     -33.971  11.292  24.819  0.00  0.00     0.048 H 
BRANCH  52  55
ATOM     55  C23 non d ame     -32.820  12.625  26.018  0.00  0.00     0.259 C 
ATOM     56  O7  non d ame     -33.080  13.398  26.881  0.00  0.00    -0.265 OA
BRANCH  55  57
ATOM     57  O8  non d ame     -31.758  12.896  25.111  0.00  0.00    -0.317 OA
BRANCH  57  58
ATOM     58  C29 non d ame     -31.402  14.279  25.028  0.00  0.00     0.052 C 
ATOM     59  H47 non d ame     -32.323  14.833  25.214  0.00  0.00     0.082 H 
ATOM     60  H48 non d ame     -30.548  14.404  25.693  0.00  0.00     0.082 H 
BRANCH  58  61
ATOM     61  C35 non d ame     -30.939  14.569  23.576  0.00  0.00    -0.034 A 
ATOM     62  C30 non d ame     -31.377  15.716  22.921  0.00  0.00    -0.075 A 
ATOM     63  C31 non d ame     -30.962  15.976  21.616  0.00  0.00    -0.082 A 
ATOM     64  H49 non d ame     -32.046  16.410  23.429  0.00  0.00     0.084 H 
ATOM     65  C32 non d ame     -30.107  15.083  20.964  0.00  0.00    -0.083 A 
ATOM     66  H50 non d ame     -31.306  16.877  21.106  0.00  0.00     0.083 H 
ATOM     67  C33 non d ame     -29.675  13.939  21.621  0.00  0.00    -0.082 A 
ATOM     68  H51 non d ame     -29.777  15.280  19.944  0.00  0.00     0.083 H 
ATOM     69  C34 non d ame     -30.086  13.676  22.926  0.00  0.00    -0.075 A 
ATOM     70  H52 non d ame     -29.010  13.243  21.109  0.00  0.00     0.083 H 
ATOM     71  H53 non d ame     -29.742  12.775  23.435  0.00  0.00     0.084 H 
ENDBRANCH  58  61
ENDBRANCH  57  58
ENDBRANCH  55  57
ENDBRANCH  52  55
ENDBRANCH  49  52
ENDBRANCH  47  49
BRANCH  47  72
ATOM     72  C24 non d ame     -36.275  11.550  24.637  0.00  0.00    -0.039 C 
ATOM     73  H35 non d ame     -35.720  12.248  24.010  0.00  0.00     0.036 H 
ATOM     74  H36 non d ame     -36.002  10.495  24.652  0.00  0.00     0.036 H 
BRANCH  72  75
ATOM     75  C25 non d ame     -37.812  11.635  24.193  0.00  0.00    -0.001 C 
ATOM     76  C26 non d ame     -38.274  10.217  23.501  0.00  0.00    -0.035 C 
ATOM     77  C27 non d ame     -38.855  10.484  22.307  0.00  0.00     0.085 C 
ATOM     78  H38 non d ame     -37.397   9.629  23.232  0.00  0.00     0.036 H 
ATOM     79  H39 non d ame     -39.079   9.763  24.080  0.00  0.00     0.036 H 
ATOM     80  N5  non d ame     -38.537  11.921  21.972  0.00  0.00    -0.049 N 
ATOM     81  H40 non d ame     -38.355   9.833  21.589  0.00  0.00     0.075 H 
ATOM     82  H41 non d ame     -39.927  10.387  22.476  0.00  0.00     0.075 H 
ATOM     83  C28 non d ame     -38.000  12.587  23.342  0.00  0.00     0.193 C 
ATOM     84  H42 non d ame     -37.779  11.900  21.306  0.00  0.00     0.280 HD
ATOM     85  H43 non d ame     -39.415  12.357  21.725  0.00  0.00     0.280 HD
ATOM     86  H44 non d ame     -38.640  13.250  23.923  0.00  0.00     0.129 H 
ATOM     87  H37 non d ame     -38.449  12.032  24.984  0.00  0.00     0.046 H 
BRANCH  83  88
ATOM     88  O6  non d ame     -36.806  13.331  23.092  0.00  0.00    -0.369 OA
ATOM     89  H45 non d ame     -36.282  12.882  22.425  0.00  0.00     0.212 HD
ENDBRANCH  83  88
ENDBRANCH  72  75
ENDBRANCH  47  72
ENDBRANCH  45  47
ENDBRANCH   1  43
BRANCH   1  90
ATOM     90  C16 non d ame     -36.703  16.562  25.145  0.00  0.00    -0.035 C 
ATOM     91  H21 non d ame     -35.716  16.658  24.693  0.00  0.00     0.037 H 
ATOM     92  H22 non d ame     -37.448  15.908  24.692  0.00  0.00     0.037 H 
BRANCH  90  93
ATOM     93  C17 non d ame     -37.323  17.995  25.159  0.00  0.00    -0.059 C 
ATOM     94  H23 non d ame     -37.858  18.115  26.100  0.00  0.00     0.038 H 
BRANCH  93  95
ATOM     95  C18 non d ame     -36.231  19.110  25.087  0.00  0.00    -0.073 C 
ATOM     96  H24 non d ame     -36.693  20.083  25.254  0.00  0.00     0.028 H 
ATOM     97  H25 non d ame     -35.476  18.931  25.852  0.00  0.00     0.028 H 
ATOM     98  H26 non d ame     -35.761  19.095  24.103  0.00  0.00     0.028 H 
ENDBRANCH  93  95
BRANCH  93  99
ATOM     99  C19 non d ame     -38.344  18.160  24.031  0.00  0.00    -0.073 C 
ATOM    100  H27 non d ame     -37.823  18.351  23.093  0.00  0.00     0.028 H 
ATOM    101  H28 non d ame     -38.935  17.248  23.938  0.00  0.00     0.028 H 
ATOM    102  H29 non d ame     -39.004  18.997  24.257  0.00  0.00     0.028 H 
ENDBRANCH  93  99
ENDBRANCH  90  93
ENDBRANCH   1  90
TORSDOF 26
ENDMDL
MODEL 9
REMARK VINA RESULT:      -6.6      2.866      6.804
REMARK  26 active torsions:
REMARK  status: ('A' for Active; 'I' for Inactive)
REMARK    1  A    between atoms: C2_2  and  C3_3 
REMARK    2  A    between atoms: C4_6  and  C5_7 
REMARK       I    between atoms: C5_7  and  N2_9 
REMARK    3  A    between atoms: N2_9  and  C6_10 
REMARK    4  A    between atoms: C6_10  and  C7_11 
REMARK    5  A    between atoms: C6_10  and  C8_13 
REMARK       I    between atoms: C7_11  and  N3_14 
REMARK    6  A    between atoms: N3_14  and  C9_15 
REMARK    7  A    between atoms: C9_15  and  C10_16 
REMARK    8  A    between atoms: C9_15  and  C11_18 
REMARK       I    between atoms: C10_16  and  N4_21 
REMARK    9  A    between atoms: C11_18  and  C12_19 
REMARK   10  A    between atoms: C11_18  and  C13_20 
REMARK   11  A    between atoms: N4_21  and  C14_22 
REMARK   12  A    between atoms: C14_22  and  C15_23 
REMARK   13  A    between atoms: C14_22  and  C16_25 
REMARK       I    between atoms: C15_23  and  N6_40 
REMARK   14  A    between atoms: C16_25  and  C17_26 
REMARK   15  A    between atoms: C17_26  and  C18_27 
REMARK   16  A    between atoms: C17_26  and  C19_28 
REMARK   17  A    between atoms: C20_29  and  C21_30 
REMARK   18  A    between atoms: C20_29  and  C24_33 
REMARK   19  A    between atoms: C20_29  and  N6_40 
REMARK   20  A    between atoms: C21_30  and  C22_31 
REMARK   21  A    between atoms: C22_31  and  C23_32 
REMARK   22  A    between atoms: C23_32  and  O8_43 
REMARK   23  A    between atoms: C24_33  and  C25_34 
REMARK   24  A    between atoms: C28_38  and  O6_39 
REMARK   25  A    between atoms: C29_42  and  O8_43 
REMARK   26  A    between atoms: C29_42  and  C35_49 
ROOT
ATOM      1  C14 non d ame     -32.466   9.437  24.563  0.00  0.00     0.089 C 
ATOM      2  H20 non d ame     -32.097   8.538  25.057  0.00  0.00     0.087 H 
ENDROOT
BRANCH   1   3
ATOM      3  N4  non d ame     -33.787   9.723  25.102  0.00  0.00    -0.346 N 
ATOM      4  C10 non d ame     -34.696   8.597  25.527  0.00  0.00     0.241 C 
ATOM      5  O4  non d ame     -34.342   7.469  25.424  0.00  0.00    -0.271 OA
ATOM      6  H19 non d ame     -34.070  10.690  25.179  0.00  0.00     0.163 HD
BRANCH   4   7
ATOM      7  C9  non d ame     -36.058   8.911  26.088  0.00  0.00     0.092 C 
ATOM      8  H11 non d ame     -36.592   7.979  26.276  0.00  0.00     0.088 H 
BRANCH   7   9
ATOM      9  N3  non d ame     -35.911   9.593  27.377  0.00  0.00    -0.346 N 
ATOM     10  C7  non d ame     -36.268   8.912  28.597  0.00  0.00     0.240 C 
ATOM     11  O3  non d ame     -36.676   7.816  28.560  0.00  0.00    -0.271 OA
ATOM     12  H10 non d ame     -35.561  10.540  27.425  0.00  0.00     0.163 HD
BRANCH  10  13
ATOM     13  C6  non d ame     -36.112   9.645  29.966  0.00  0.00     0.086 C 
ATOM     14  H6  non d ame     -35.844   8.969  30.778  0.00  0.00     0.086 H 
BRANCH  13  15
ATOM     15  N2  non d ame     -35.035  10.616  29.861  0.00  0.00    -0.343 N 
ATOM     16  C5  non d ame     -33.833  10.451  30.682  0.00  0.00     0.273 C 
ATOM     17  O2  non d ame     -33.743   9.536  31.425  0.00  0.00    -0.266 OA
ATOM     18  H5  non d ame     -35.121  11.396  29.226  0.00  0.00     0.163 HD
BRANCH  16  19
ATOM     19  C4  non d ame     -32.686  11.468  30.580  0.00  0.00     0.154 A 
ATOM     20  C1  non d ame     -32.720  12.749  29.941  0.00  0.00    -0.017 A 
ATOM     21  C2  non d ame     -31.425  13.283  30.128  0.00  0.00     0.077 A 
ATOM     22  H1  non d ame     -33.556  13.218  29.422  0.00  0.00     0.091 H 
ATOM     23  O1  non d ame     -30.737  12.405  30.798  0.00  0.00    -0.218 OA
ATOM     24  N1  non d ame     -31.451  11.338  31.073  0.00  0.00    -0.123 NA
BRANCH  21  25
ATOM     25  C3  non d ame     -30.929  14.636  29.637  0.00  0.00    -0.029 C 
ATOM     26  H2  non d ame     -31.780  15.257  29.359  0.00  0.00     0.036 H 
ATOM     27  H3  non d ame     -30.366  15.126  30.431  0.00  0.00     0.036 H 
ATOM     28  H4  non d ame     -30.284  14.494  28.770  0.00  0.00     0.036 H 
ENDBRANCH  21  25
ENDBRANCH  16  19
ENDBRANCH  13  15
BRANCH  13  29
ATOM     29  C8  non d ame     -37.402  10.341  30.317  0.00  0.00    -0.049 C 
ATOM     30  H7  non d ame     -37.235  11.417  30.357  0.00  0.00     0.030 H 
ATOM     31  H8  non d ame     -38.152  10.119  29.558  0.00  0.00     0.030 H 
ATOM     32  H9  non d ame     -37.752   9.991  31.288  0.00  0.00     0.030 H 
ENDBRANCH  13  29
ENDBRANCH  10  13
ENDBRANCH   7   9
BRANCH   7  33
ATOM     33  C11 non d ame     -36.825   9.836  25.099  0.00  0.00    -0.033 C 
ATOM     34  H12 non d ame     -36.192  10.701  24.900  0.00  0.00     0.042 H 
BRANCH  33  35
ATOM     35  C12 non d ame     -37.084   9.122  23.736  0.00  0.00    -0.071 C 
ATOM     36  H13 non d ame     -38.153   8.943  23.617  0.00  0.00     0.028 H 
ATOM     37  H14 non d ame     -36.728   9.752  22.922  0.00  0.00     0.028 H 
ATOM     38  H15 non d ame     -36.553   8.170  23.718  0.00  0.00     0.028 H 
ENDBRANCH  33  35
BRANCH  33  39
ATOM     39  C13 non d ame     -38.159  10.348  25.732  0.00  0.00    -0.071 C 
ATOM     40  H16 non d ame     -38.060  11.405  25.983  0.00  0.00     0.028 H 
ATOM     41  H17 non d ame     -38.973  10.219  25.019  0.00  0.00     0.028 H 
ATOM     42  H18 non d ame     -38.374   9.778  26.635  0.00  0.00     0.028 H 
ENDBRANCH  33  39
ENDBRANCH   7  33
ENDBRANCH   4   7
ENDBRANCH   1   3
BRANCH   1  43
ATOM     43  C15 non d ame     -31.549  10.668  24.821  0.00  0.00     0.240 C 
ATOM     44  O5  non d ame     -30.760  10.641  25.709  0.00  0.00    -0.271 OA
ATOM     45  N6  non d ame     -31.650  11.877  23.954  0.00  0.00    -0.355 N 
ATOM     46  H46 non d ame     -32.313  11.909  23.194  0.00  0.00     0.162 HD
BRANCH  45  47
ATOM     47  C20 non d ame     -30.771  13.038  24.211  0.00  0.00     0.013 C 
ATOM     48  H30 non d ame     -30.037  12.743  24.961  0.00  0.00     0.072 H 
BRANCH  47  49
ATOM     49  C21 non d ame     -31.603  14.190  24.728  0.00  0.00    -0.038 C 
ATOM     50  H31 non d ame     -30.941  15.056  24.724  0.00  0.00     0.036 H 
ATOM     51  H32 non d ame     -32.509  14.193  24.121  0.00  0.00     0.036 H 
BRANCH  49  52
ATOM     52  C22 non d ame     -32.056  13.993  26.190  0.00  0.00     0.018 C 
ATOM     53  H33 non d ame     -31.573  13.077  26.529  0.00  0.00     0.048 H 
ATOM     54  H34 non d ame     -31.848  14.938  26.694  0.00  0.00     0.048 H 
BRANCH  52  55
ATOM     55  C23 non d ame     -33.584  13.753  26.345  0.00  0.00     0.259 C 
ATOM     56  O7  non d ame     -34.040  12.664  26.211  0.00  0.00    -0.265 OA
BRANCH  55  57
ATOM     57  O8  non d ame     -34.436  14.854  26.637  0.00  0.00    -0.317 OA
BRANCH  57  58
ATOM     58  C29 non d ame     -34.046  15.602  27.793  0.00  0.00     0.052 C 
ATOM     59  H47 non d ame     -34.948  15.703  28.397  0.00  0.00     0.082 H 
ATOM     60  H48 non d ame     -33.175  15.087  28.197  0.00  0.00     0.082 H 
BRANCH  58  61
ATOM     61  C35 non d ame     -33.608  17.015  27.324  0.00  0.00    -0.034 A 
ATOM     62  C30 non d ame     -32.857  17.827  28.168  0.00  0.00    -0.075 A 
ATOM     63  C31 non d ame     -32.463  19.096  27.746  0.00  0.00    -0.082 A 
ATOM     64  H49 non d ame     -32.577  17.470  29.159  0.00  0.00     0.084 H 
ATOM     65  C32 non d ame     -32.825  19.554  26.477  0.00  0.00    -0.083 A 
ATOM     66  H50 non d ame     -31.874  19.730  28.409  0.00  0.00     0.083 H 
ATOM     67  C33 non d ame     -33.577  18.741  25.639  0.00  0.00    -0.082 A 
ATOM     68  H51 non d ame     -32.521  20.544  26.139  0.00  0.00     0.083 H 
ATOM     69  C34 non d ame     -33.971  17.471  26.055  0.00  0.00    -0.075 A 
ATOM     70  H52 non d ame     -33.860  19.101  24.650  0.00  0.00     0.083 H 
ATOM     71  H53 non d ame     -34.561  16.838  25.392  0.00  0.00     0.084 H 
ENDBRANCH  58  61
ENDBRANCH  57  58
ENDBRANCH  55  57
ENDBRANCH  52  55
ENDBRANCH  49  52
ENDBRANCH  47  49
BRANCH  47  72
ATOM     72  C24 non d ame     -30.071  13.453  22.918  0.00  0.00    -0.039 C 
ATOM     73  H35 non d ame     -29.017  13.221  23.072  0.00  0.00     0.036 H 
ATOM     74  H36 non d ame     -30.626  12.962  22.118  0.00  0.00     0.036 H 
BRANCH  72  75
ATOM     75  C25 non d ame     -30.177  15.031  22.667  0.00  0.00    -0.001 C 
ATOM     76  C26 non d ame     -31.116  15.327  21.350  0.00  0.00    -0.035 C 
ATOM     77  C27 non d ame     -30.445  16.155  20.513  0.00  0.00     0.085 C 
ATOM     78  H38 non d ame     -31.236  14.416  20.764  0.00  0.00     0.036 H 
ATOM     79  H39 non d ame     -31.991  15.910  21.637  0.00  0.00     0.036 H 
ATOM     80  N5  non d ame     -29.010  16.188  20.982  0.00  0.00    -0.049 N 
ATOM     81  H40 non d ame     -30.488  15.677  19.535  0.00  0.00     0.075 H 
ATOM     82  H41 non d ame     -30.889  17.139  20.659  0.00  0.00     0.075 H 
ATOM     83  C28 non d ame     -29.013  15.552  22.466  0.00  0.00     0.193 C 
ATOM     84  H42 non d ame     -28.494  15.573  20.369  0.00  0.00     0.280 HD
ATOM     85  H43 non d ame     -28.755  17.163  21.051  0.00  0.00     0.280 HD
ATOM     86  H44 non d ame     -28.928  16.193  23.344  0.00  0.00     0.129 H 
ATOM     87  H37 non d ame     -30.416  15.579  23.579  0.00  0.00     0.046 H 
BRANCH  83  88
ATOM     88  O6  non d ame     -27.964  14.590  22.592  0.00  0.00    -0.369 OA
ATOM     89  H45 non d ame     -27.214  14.863  22.057  0.00  0.00     0.212 HD
ENDBRANCH  83  88
ENDBRANCH  72  75
ENDBRANCH  47  72
ENDBRANCH  45  47
ENDBRANCH   1  43
BRANCH   1  90
ATOM     90  C16 non d ame     -32.582   9.191  23.067  0.00  0.00    -0.035 C 
ATOM     91  H21 non d ame     -33.584   8.789  22.918  0.00  0.00     0.037 H 
ATOM     92  H22 non d ame     -32.298  10.133  22.597  0.00  0.00     0.037 H 
BRANCH  90  93
ATOM     93  C17 non d ame     -31.589   8.112  22.530  0.00  0.00    -0.059 C 
ATOM     94  H23 non d ame     -32.053   7.637  21.666  0.00  0.00     0.038 H 
BRANCH  93  95
ATOM     95  C18 non d ame     -30.236   8.737  22.062  0.00  0.00    -0.073 C 
ATOM     96  H24 non d ame     -30.181   8.711  20.974  0.00  0.00     0.028 H 
ATOM     97  H25 non d ame     -30.176   9.770  22.403  0.00  0.00     0.028 H 
ATOM     98  H26 non d ame     -29.408   8.167  22.482  0.00  0.00     0.028 H 
ENDBRANCH  93  95
BRANCH  93  99
ATOM     99  C19 non d ame     -31.351   7.020  23.576  0.00  0.00    -0.073 C 
ATOM    100  H27 non d ame     -31.605   6.048  23.151  0.00  0.00     0.028 H 
ATOM    101  H28 non d ame     -30.302   7.023  23.874  0.00  0.00     0.028 H 
ATOM    102  H29 non d ame     -31.976   7.210  24.449  0.00  0.00     0.028 H 
ENDBRANCH  93  99
ENDBRANCH  90  93
ENDBRANCH   1  90
TORSDOF 26
ENDMDL
MODEL 10
REMARK VINA RESULT:      -6.6      3.058      8.708
REMARK  26 active torsions:
REMARK  status: ('A' for Active; 'I' for Inactive)
REMARK    1  A    between atoms: C2_2  and  C3_3 
REMARK    2  A    between atoms: C4_6  and  C5_7 
REMARK       I    between atoms: C5_7  and  N2_9 
REMARK    3  A    between atoms: N2_9  and  C6_10 
REMARK    4  A    between atoms: C6_10  and  C7_11 
REMARK    5  A    between atoms: C6_10  and  C8_13 
REMARK       I    between atoms: C7_11  and  N3_14 
REMARK    6  A    between atoms: N3_14  and  C9_15 
REMARK    7  A    between atoms: C9_15  and  C10_16 
REMARK    8  A    between atoms: C9_15  and  C11_18 
REMARK       I    between atoms: C10_16  and  N4_21 
REMARK    9  A    between atoms: C11_18  and  C12_19 
REMARK   10  A    between atoms: C11_18  and  C13_20 
REMARK   11  A    between atoms: N4_21  and  C14_22 
REMARK   12  A    between atoms: C14_22  and  C15_23 
REMARK   13  A    between atoms: C14_22  and  C16_25 
REMARK       I    between atoms: C15_23  and  N6_40 
REMARK   14  A    between atoms: C16_25  and  C17_26 
REMARK   15  A    between atoms: C17_26  and  C18_27 
REMARK   16  A    between atoms: C17_26  and  C19_28 
REMARK   17  A    between atoms: C20_29  and  C21_30 
REMARK   18  A    between atoms: C20_29  and  C24_33 
REMARK   19  A    between atoms: C20_29  and  N6_40 
REMARK   20  A    between atoms: C21_30  and  C22_31 
REMARK   21  A    between atoms: C22_31  and  C23_32 
REMARK   22  A    between atoms: C23_32  and  O8_43 
REMARK   23  A    between atoms: C24_33  and  C25_34 
REMARK   24  A    between atoms: C28_38  and  O6_39 
REMARK   25  A    between atoms: C29_42  and  O8_43 
REMARK   26  A    between atoms: C29_42  and  C35_49 
ROOT
ATOM      1  C14 non d ame     -33.885   6.825  27.569  0.00  0.00     0.089 C 
ATOM      2  H20 non d ame     -33.484   6.428  28.502  0.00  0.00     0.087 H 
ENDROOT
BRANCH   1   3
ATOM      3  N4  non d ame     -34.312   8.193  27.822  0.00  0.00    -0.346 N 
ATOM      4  C10 non d ame     -34.783   8.603  29.194  0.00  0.00     0.241 C 
ATOM      5  O4  non d ame     -34.813   7.812  30.079  0.00  0.00    -0.271 OA
ATOM      6  H19 non d ame     -34.281   8.850  27.054  0.00  0.00     0.163 HD
BRANCH   4   7
ATOM      7  C9  non d ame     -35.216  10.024  29.439  0.00  0.00     0.092 C 
ATOM      8  H11 non d ame     -35.458  10.149  30.494  0.00  0.00     0.088 H 
BRANCH   7   9
ATOM      9  N3  non d ame     -34.105  10.933  29.139  0.00  0.00    -0.346 N 
ATOM     10  C7  non d ame     -33.038  11.105  30.093  0.00  0.00     0.240 C 
ATOM     11  O3  non d ame     -33.058  10.522  31.108  0.00  0.00    -0.271 OA
ATOM     12  H10 non d ame     -34.075  11.444  28.268  0.00  0.00     0.163 HD
BRANCH  10  13
ATOM     13  C6  non d ame     -31.859  12.075  29.770  0.00  0.00     0.086 C 
ATOM     14  H6  non d ame     -31.287  11.767  28.895  0.00  0.00     0.086 H 
BRANCH  13  15
ATOM     15  N2  non d ame     -32.400  13.390  29.470  0.00  0.00    -0.343 N 
ATOM     16  C5  non d ame     -31.623  14.320  28.648  0.00  0.00     0.273 C 
ATOM     17  O2  non d ame     -30.562  14.002  28.236  0.00  0.00    -0.266 OA
ATOM     18  H5  non d ame     -33.307  13.655  29.829  0.00  0.00     0.163 HD
BRANCH  16  19
ATOM     19  C4  non d ame     -32.183  15.713  28.322  0.00  0.00     0.154 A 
ATOM     20  C1  non d ame     -32.488  16.242  27.028  0.00  0.00    -0.017 A 
ATOM     21  C2  non d ame     -32.971  17.547  27.272  0.00  0.00     0.077 A 
ATOM     22  H1  non d ame     -32.377  15.753  26.060  0.00  0.00     0.091 H 
ATOM     23  O1  non d ame     -32.943  17.735  28.559  0.00  0.00    -0.218 OA
ATOM     24  N1  non d ame     -32.487  16.680  29.193  0.00  0.00    -0.123 NA
BRANCH  21  25
ATOM     25  C3  non d ame     -33.437  18.547  26.223  0.00  0.00    -0.029 C 
ATOM     26  H2  non d ame     -32.573  19.054  25.794  0.00  0.00     0.036 H 
ATOM     27  H3  non d ame     -33.977  18.021  25.435  0.00  0.00     0.036 H 
ATOM     28  H4  non d ame     -34.096  19.280  26.687  0.00  0.00     0.036 H 
ENDBRANCH  21  25
ENDBRANCH  16  19
ENDBRANCH  13  15
BRANCH  13  29
ATOM     29  C8  non d ame     -30.931  12.156  30.955  0.00  0.00    -0.049 C 
ATOM     30  H7  non d ame     -30.799  11.161  31.381  0.00  0.00     0.030 H 
ATOM     31  H8  non d ame     -29.965  12.545  30.634  0.00  0.00     0.030 H 
ATOM     32  H9  non d ame     -31.359  12.819  31.707  0.00  0.00     0.030 H 
ENDBRANCH  13  29
ENDBRANCH  10  13
ENDBRANCH   7   9
BRANCH   7  33
ATOM     33  C11 non d ame     -36.424  10.365  28.518  0.00  0.00    -0.033 C 
ATOM     34  H12 non d ame     -36.651   9.475  27.931  0.00  0.00     0.042 H 
BRANCH  33  35
ATOM     35  C12 non d ame     -37.696  10.713  29.353  0.00  0.00    -0.071 C 
ATOM     36  H13 non d ame     -38.177  11.596  28.932  0.00  0.00     0.028 H 
ATOM     37  H14 non d ame     -38.390   9.873  29.324  0.00  0.00     0.028 H 
ATOM     38  H15 non d ame     -37.409  10.913  30.385  0.00  0.00     0.028 H 
ENDBRANCH  33  35
BRANCH  33  39
ATOM     39  C13 non d ame     -36.064  11.518  27.527  0.00  0.00    -0.071 C 
ATOM     40  H16 non d ame     -36.291  11.206  26.507  0.00  0.00     0.028 H 
ATOM     41  H17 non d ame     -36.648  12.405  27.774  0.00  0.00     0.028 H 
ATOM     42  H18 non d ame     -35.002  11.749  27.609  0.00  0.00     0.028 H 
ENDBRANCH  33  39
ENDBRANCH   7  33
ENDBRANCH   4   7
ENDBRANCH   1   3
BRANCH   1  43
ATOM     43  C15 non d ame     -32.822   6.839  26.433  0.00  0.00     0.240 C 
ATOM     44  O5  non d ame     -31.833   6.190  26.540  0.00  0.00    -0.271 OA
ATOM     45  N6  non d ame     -33.043   7.656  25.206  0.00  0.00    -0.355 N 
ATOM     46  H46 non d ame     -33.882   8.209  25.101  0.00  0.00     0.162 HD
BRANCH  45  47
ATOM     47  C20 non d ame     -32.024   7.658  24.134  0.00  0.00     0.013 C 
ATOM     48  H30 non d ame     -31.118   7.201  24.531  0.00  0.00     0.072 H 
BRANCH  47  49
ATOM     49  C21 non d ame     -31.743   9.083  23.714  0.00  0.00    -0.038 C 
ATOM     50  H31 non d ame     -30.698   9.265  23.968  0.00  0.00     0.036 H 
ATOM     51  H32 non d ame     -32.072   9.155  22.677  0.00  0.00     0.036 H 
BRANCH  49  52
ATOM     52  C22 non d ame     -32.571  10.117  24.508  0.00  0.00     0.018 C 
ATOM     53  H33 non d ame     -32.692  10.971  23.844  0.00  0.00     0.048 H 
ATOM     54  H34 non d ame     -33.447   9.578  24.870  0.00  0.00     0.048 H 
BRANCH  52  55
ATOM     55  C23 non d ame     -31.849  10.658  25.774  0.00  0.00     0.259 C 
ATOM     56  O7  non d ame     -32.012  10.137  26.830  0.00  0.00    -0.265 OA
BRANCH  55  57
ATOM     57  O8  non d ame     -31.000  11.793  25.660  0.00  0.00    -0.317 OA
BRANCH  57  58
ATOM     58  C29 non d ame     -31.658  12.966  25.173  0.00  0.00     0.052 C 
ATOM     59  H47 non d ame     -32.608  12.623  24.763  0.00  0.00     0.082 H 
ATOM     60  H48 non d ame     -31.647  13.675  26.001  0.00  0.00     0.082 H 
BRANCH  58  61
ATOM     61  C35 non d ame     -30.804  13.549  24.016  0.00  0.00    -0.034 A 
ATOM     62  C30 non d ame     -30.590  14.921  23.931  0.00  0.00    -0.075 A 
ATOM     63  C31 non d ame     -29.823  15.445  22.892  0.00  0.00    -0.082 A 
ATOM     64  H49 non d ame     -31.023  15.586  24.679  0.00  0.00     0.084 H 
ATOM     65  C32 non d ame     -29.272  14.592  21.932  0.00  0.00    -0.083 A 
ATOM     66  H50 non d ame     -29.656  16.521  22.829  0.00  0.00     0.083 H 
ATOM     67  C33 non d ame     -29.491  13.224  22.019  0.00  0.00    -0.082 A 
ATOM     68  H51 non d ame     -28.671  14.993  21.117  0.00  0.00     0.083 H 
ATOM     69  C34 non d ame     -30.255  12.695  23.058  0.00  0.00    -0.075 A 
ATOM     70  H52 non d ame     -29.062  12.560  21.268  0.00  0.00     0.083 H 
ATOM     71  H53 non d ame     -30.422  11.620  23.120  0.00  0.00     0.084 H 
ENDBRANCH  58  61
ENDBRANCH  57  58
ENDBRANCH  55  57
ENDBRANCH  52  55
ENDBRANCH  49  52
ENDBRANCH  47  49
BRANCH  47  72
ATOM     72  C24 non d ame     -32.536   6.865  22.933  0.00  0.00    -0.039 C 
ATOM     73  H35 non d ame     -31.732   6.173  22.679  0.00  0.00     0.036 H 
ATOM     74  H36 non d ame     -33.510   6.481  23.234  0.00  0.00     0.036 H 
BRANCH  72  75
ATOM     75  C25 non d ame     -32.771   7.805  21.658  0.00  0.00    -0.001 C 
ATOM     76  C26 non d ame     -34.363   8.201  21.540  0.00  0.00    -0.035 C 
ATOM     77  C27 non d ame     -34.788   7.927  20.283  0.00  0.00     0.085 C 
ATOM     78  H38 non d ame     -34.960   7.535  22.162  0.00  0.00     0.036 H 
ATOM     79  H39 non d ame     -34.487   9.281  21.621  0.00  0.00     0.036 H 
ATOM     80  N5  non d ame     -33.723   7.079  19.631  0.00  0.00    -0.049 N 
ATOM     81  H40 non d ame     -35.692   7.331  20.405  0.00  0.00     0.075 H 
ATOM     82  H41 non d ame     -34.835   8.890  19.776  0.00  0.00     0.075 H 
ATOM     83  C28 non d ame     -32.415   7.212  20.568  0.00  0.00     0.193 C 
ATOM     84  H42 non d ame     -34.052   6.125  19.672  0.00  0.00     0.280 HD
ATOM     85  H43 non d ame     -33.524   7.507  18.738  0.00  0.00     0.280 HD
ATOM     86  H44 non d ame     -31.578   7.842  20.264  0.00  0.00     0.129 H 
ATOM     87  H37 non d ame     -32.052   8.623  21.610  0.00  0.00     0.046 H 
BRANCH  83  88
ATOM     88  O6  non d ame     -31.852   5.922  20.815  0.00  0.00    -0.369 OA
ATOM     89  H45 non d ame     -32.101   5.628  21.694  0.00  0.00     0.212 HD
ENDBRANCH  83  88
ENDBRANCH  72  75
ENDBRANCH  47  72
ENDBRANCH  45  47
ENDBRANCH   1  43
BRANCH   1  90
ATOM     90  C16 non d ame     -35.087   6.002  27.134  0.00  0.00    -0.035 C 
ATOM     91  H21 non d ame     -35.956   6.620  27.360  0.00  0.00     0.037 H 
ATOM     92  H22 non d ame     -34.879   5.709  26.105  0.00  0.00     0.037 H 
BRANCH  90  93
ATOM     93  C17 non d ame     -35.266   4.678  27.943  0.00  0.00    -0.059 C 
ATOM     94  H23 non d ame     -35.280   4.937  29.002  0.00  0.00     0.038 H 
BRANCH  93  95
ATOM     95  C18 non d ame     -36.614   3.962  27.610  0.00  0.00    -0.073 C 
ATOM     96  H24 non d ame     -36.538   2.906  27.869  0.00  0.00     0.028 H 
ATOM     97  H25 non d ame     -37.420   4.419  28.184  0.00  0.00     0.028 H 
ATOM     98  H26 non d ame     -36.824   4.060  26.546  0.00  0.00     0.028 H 
ENDBRANCH  93  95
BRANCH  93  99
ATOM     99  C19 non d ame     -34.079   3.737  27.720  0.00  0.00    -0.073 C 
ATOM    100  H27 non d ame     -34.000   3.047  28.561  0.00  0.00     0.028 H 
ATOM    101  H28 non d ame     -34.231   3.172  26.800  0.00  0.00     0.028 H 
ATOM    102  H29 non d ame     -33.162   4.321  27.641  0.00  0.00     0.028 H 
ENDBRANCH  93  99
ENDBRANCH  90  93
ENDBRANCH   1  90
TORSDOF 26
ENDMDL
MODEL 11
REMARK VINA RESULT:      -6.6      2.004      4.624
REMARK  26 active torsions:
REMARK  status: ('A' for Active; 'I' for Inactive)
REMARK    1  A    between atoms: C2_2  and  C3_3 
REMARK    2  A    between atoms: C4_6  and  C5_7 
REMARK       I    between atoms: C5_7  and  N2_9 
REMARK    3  A    between atoms: N2_9  and  C6_10 
REMARK    4  A    between atoms: C6_10  and  C7_11 
REMARK    5  A    between atoms: C6_10  and  C8_13 
REMARK       I    between atoms: C7_11  and  N3_14 
REMARK    6  A    between atoms: N3_14  and  C9_15 
REMARK    7  A    between atoms: C9_15  and  C10_16 
REMARK    8  A    between atoms: C9_15  and  C11_18 
REMARK       I    between atoms: C10_16  and  N4_21 
REMARK    9  A    between atoms: C11_18  and  C12_19 
REMARK   10  A    between atoms: C11_18  and  C13_20 
REMARK   11  A    between atoms: N4_21  and  C14_22 
REMARK   12  A    between atoms: C14_22  and  C15_23 
REMARK   13  A    between atoms: C14_22  and  C16_25 
REMARK       I    between atoms: C15_23  and  N6_40 
REMARK   14  A    between atoms: C16_25  and  C17_26 
REMARK   15  A    between atoms: C17_26  and  C18_27 
REMARK   16  A    between atoms: C17_26  and  C19_28 
REMARK   17  A    between atoms: C20_29  and  C21_30 
REMARK   18  A    between atoms: C20_29  and  C24_33 
REMARK   19  A    between atoms: C20_29  and  N6_40 
REMARK   20  A    between atoms: C21_30  and  C22_31 
REMARK   21  A    between atoms: C22_31  and  C23_32 
REMARK   22  A    between atoms: C23_32  and  O8_43 
REMARK   23  A    between atoms: C24_33  and  C25_34 
REMARK   24  A    between atoms: C28_38  and  O6_39 
REMARK   25  A    between atoms: C29_42  and  O8_43 
REMARK   26  A    between atoms: C29_42  and  C35_49 
ROOT
ATOM      1  C14 non d ame     -32.612  10.048  24.808  0.00  0.00     0.089 C 
ATOM      2  H20 non d ame     -32.428   9.223  25.497  0.00  0.00     0.087 H 
ENDROOT
BRANCH   1   3
ATOM      3  N4  non d ame     -33.971  10.514  25.036  0.00  0.00    -0.346 N 
ATOM      4  C10 non d ame     -34.955   9.654  25.789  0.00  0.00     0.241 C 
ATOM      5  O4  non d ame     -34.631   8.589  26.198  0.00  0.00    -0.271 OA
ATOM      6  H19 non d ame     -34.229  11.423  24.678  0.00  0.00     0.163 HD
BRANCH   4   7
ATOM      7  C9  non d ame     -36.357  10.155  26.021  0.00  0.00     0.092 C 
ATOM      8  H11 non d ame     -36.516  10.293  27.090  0.00  0.00     0.088 H 
BRANCH   7   9
ATOM      9  N3  non d ame     -36.519  11.467  25.387  0.00  0.00    -0.346 N 
ATOM     10  C7  non d ame     -36.922  12.604  26.177  0.00  0.00     0.240 C 
ATOM     11  O3  non d ame     -37.121  12.482  27.323  0.00  0.00    -0.271 OA
ATOM     12  H10 non d ame     -36.352  11.588  24.398  0.00  0.00     0.163 HD
BRANCH  10  13
ATOM     13  C6  non d ame     -37.095  13.997  25.495  0.00  0.00     0.086 C 
ATOM     14  H6  non d ame     -38.008  14.506  25.803  0.00  0.00     0.086 H 
BRANCH  13  15
ATOM     15  N2  non d ame     -35.989  14.855  25.886  0.00  0.00    -0.343 N 
ATOM     16  C5  non d ame     -36.218  15.933  26.851  0.00  0.00     0.273 C 
ATOM     17  O2  non d ame     -37.296  16.104  27.303  0.00  0.00    -0.266 OA
ATOM     18  H5  non d ame     -35.071  14.703  25.493  0.00  0.00     0.163 HD
BRANCH  16  19
ATOM     19  C4  non d ame     -35.057  16.846  27.274  0.00  0.00     0.154 A 
ATOM     20  C1  non d ame     -34.420  17.858  26.487  0.00  0.00    -0.017 A 
ATOM     21  C2  non d ame     -33.425  18.401  27.330  0.00  0.00     0.077 A 
ATOM     22  H1  non d ame     -34.646  18.152  25.462  0.00  0.00     0.091 H 
ATOM     23  O1  non d ame     -33.492  17.770  28.465  0.00  0.00    -0.218 OA
ATOM     24  N1  non d ame     -34.436  16.858  28.457  0.00  0.00    -0.123 NA
BRANCH  21  25
ATOM     25  C3  non d ame     -32.455  19.520  26.973  0.00  0.00    -0.029 C 
ATOM     26  H2  non d ame     -31.581  19.463  27.621  0.00  0.00     0.036 H 
ATOM     27  H3  non d ame     -32.144  19.414  25.934  0.00  0.00     0.036 H 
ATOM     28  H4  non d ame     -32.946  20.484  27.109  0.00  0.00     0.036 H 
ENDBRANCH  21  25
ENDBRANCH  16  19
ENDBRANCH  13  15
BRANCH  13  29
ATOM     29  C8  non d ame     -37.113  13.828  23.997  0.00  0.00    -0.049 C 
ATOM     30  H7  non d ame     -38.069  13.404  23.691  0.00  0.00     0.030 H 
ATOM     31  H8  non d ame     -36.977  14.799  23.521  0.00  0.00     0.030 H 
ATOM     32  H9  non d ame     -36.306  13.160  23.697  0.00  0.00     0.030 H 
ENDBRANCH  13  29
ENDBRANCH  10  13
ENDBRANCH   7   9
BRANCH   7  33
ATOM     33  C11 non d ame     -37.375   9.153  25.402  0.00  0.00    -0.033 C 
ATOM     34  H12 non d ame     -36.847   8.217  25.222  0.00  0.00     0.042 H 
BRANCH  33  35
ATOM     35  C12 non d ame     -38.546   8.850  26.388  0.00  0.00    -0.071 C 
ATOM     36  H13 non d ame     -39.238   9.692  26.399  0.00  0.00     0.028 H 
ATOM     37  H14 non d ame     -39.070   7.952  26.063  0.00  0.00     0.028 H 
ATOM     38  H15 non d ame     -38.146   8.696  27.390  0.00  0.00     0.028 H 
ENDBRANCH  33  35
BRANCH  33  39
ATOM     39  C13 non d ame     -37.910   9.676  24.030  0.00  0.00    -0.071 C 
ATOM     40  H16 non d ame     -37.076   9.812  23.342  0.00  0.00     0.028 H 
ATOM     41  H17 non d ame     -38.611   8.952  23.614  0.00  0.00     0.028 H 
ATOM     42  H18 non d ame     -38.419  10.629  24.178  0.00  0.00     0.028 H 
ENDBRANCH  33  39
ENDBRANCH   7  33
ENDBRANCH   4   7
ENDBRANCH   1   3
BRANCH   1  43
ATOM     43  C15 non d ame     -31.635  11.236  25.040  0.00  0.00     0.240 C 
ATOM     44  O5  non d ame     -30.723  11.113  25.793  0.00  0.00    -0.271 OA
ATOM     45  N6  non d ame     -31.831  12.525  24.318  0.00  0.00    -0.355 N 
ATOM     46  H46 non d ame     -32.599  12.640  23.672  0.00  0.00     0.162 HD
BRANCH  45  47
ATOM     47  C20 non d ame     -30.893  13.645  24.548  0.00  0.00     0.013 C 
ATOM     48  H30 non d ame     -30.266  13.387  25.402  0.00  0.00     0.072 H 
BRANCH  47  49
ATOM     49  C21 non d ame     -31.679  14.902  24.845  0.00  0.00    -0.038 C 
ATOM     50  H31 non d ame     -31.164  15.703  24.316  0.00  0.00     0.036 H 
ATOM     51  H32 non d ame     -32.715  14.665  24.603  0.00  0.00     0.036 H 
BRANCH  49  52
ATOM     52  C22 non d ame     -31.657  15.283  26.342  0.00  0.00     0.018 C 
ATOM     53  H33 non d ame     -30.612  15.225  26.646  0.00  0.00     0.048 H 
ATOM     54  H34 non d ame     -32.194  16.229  26.414  0.00  0.00     0.048 H 
BRANCH  52  55
ATOM     55  C23 non d ame     -32.423  14.285  27.253  0.00  0.00     0.259 C 
ATOM     56  O7  non d ame     -33.371  13.697  26.842  0.00  0.00    -0.265 OA
BRANCH  55  57
ATOM     57  O8  non d ame     -31.988  14.089  28.593  0.00  0.00    -0.317 OA
BRANCH  57  58
ATOM     58  C29 non d ame     -31.267  12.871  28.799  0.00  0.00     0.052 C 
ATOM     59  H47 non d ame     -31.007  12.510  27.804  0.00  0.00     0.082 H 
ATOM     60  H48 non d ame     -30.480  13.111  29.513  0.00  0.00     0.082 H 
BRANCH  58  61
ATOM     61  C35 non d ame     -32.232  11.848  29.457  0.00  0.00    -0.034 A 
ATOM     62  C30 non d ame     -32.672  12.046  30.761  0.00  0.00    -0.075 A 
ATOM     63  C31 non d ame     -33.539  11.128  31.352  0.00  0.00    -0.082 A 
ATOM     64  H49 non d ame     -32.339  12.920  31.321  0.00  0.00     0.084 H 
ATOM     65  C32 non d ame     -33.963  10.006  30.634  0.00  0.00    -0.083 A 
ATOM     66  H50 non d ame     -33.884  11.286  32.374  0.00  0.00     0.083 H 
ATOM     67  C33 non d ame     -33.518   9.812  29.334  0.00  0.00    -0.082 A 
ATOM     68  H51 non d ame     -34.641   9.284  31.088  0.00  0.00     0.083 H 
ATOM     69  C34 non d ame     -32.653  10.728  28.738  0.00  0.00    -0.075 A 
ATOM     70  H52 non d ame     -33.848   8.934  28.777  0.00  0.00     0.083 H 
ATOM     71  H53 non d ame     -32.309  10.568  27.716  0.00  0.00     0.084 H 
ENDBRANCH  58  61
ENDBRANCH  57  58
ENDBRANCH  55  57
ENDBRANCH  52  55
ENDBRANCH  49  52
ENDBRANCH  47  49
BRANCH  47  72
ATOM     72  C24 non d ame     -30.033  13.863  23.305  0.00  0.00    -0.039 C 
ATOM     73  H35 non d ame     -29.012  13.962  23.673  0.00  0.00     0.036 H 
ATOM     74  H36 non d ame     -30.291  13.049  22.627  0.00  0.00     0.036 H 
BRANCH  72  75
ATOM     75  C25 non d ame     -30.403  15.232  22.561  0.00  0.00    -0.001 C 
ATOM     76  C26 non d ame     -31.149  14.909  21.132  0.00  0.00    -0.035 C 
ATOM     77  C27 non d ame     -30.524  15.599  20.147  0.00  0.00     0.085 C 
ATOM     78  H38 non d ame     -30.990  13.868  20.854  0.00  0.00     0.036 H 
ATOM     79  H39 non d ame     -32.157  15.325  21.133  0.00  0.00     0.036 H 
ATOM     80  N5  non d ame     -29.222  16.104  20.721  0.00  0.00    -0.049 N 
ATOM     81  H40 non d ame     -30.310  14.866  19.370  0.00  0.00     0.075 H 
ATOM     82  H41 non d ame     -31.171  16.449  19.932  0.00  0.00     0.075 H 
ATOM     83  C28 non d ame     -29.346  15.934  22.321  0.00  0.00     0.193 C 
ATOM     84  H42 non d ame     -28.501  15.481  20.386  0.00  0.00     0.280 HD
ATOM     85  H43 non d ame     -29.178  17.089  20.504  0.00  0.00     0.280 HD
ATOM     86  H44 non d ame     -29.535  16.800  22.957  0.00  0.00     0.129 H 
ATOM     87  H37 non d ame     -30.893  15.944  23.226  0.00  0.00     0.046 H 
BRANCH  83  88
ATOM     88  O6  non d ame     -28.165  15.326  22.846  0.00  0.00    -0.369 OA
ATOM     89  H45 non d ame     -27.466  15.982  22.904  0.00  0.00     0.212 HD
ENDBRANCH  83  88
ENDBRANCH  72  75
ENDBRANCH  47  72
ENDBRANCH  45  47
ENDBRANCH   1  43
BRANCH   1  90
ATOM     90  C16 non d ame     -32.490   9.559  23.374  0.00  0.00    -0.035 C 
ATOM     91  H21 non d ame     -33.321   8.869  23.232  0.00  0.00     0.037 H 
ATOM     92  H22 non d ame     -32.420  10.461  22.766  0.00  0.00     0.037 H 
BRANCH  90  93
ATOM     93  C17 non d ame     -31.188   8.740  23.100  0.00  0.00    -0.059 C 
ATOM     94  H23 non d ame     -30.761   8.465  24.064  0.00  0.00     0.038 H 
BRANCH  93  95
ATOM     95  C18 non d ame     -31.475   7.422  22.313  0.00  0.00    -0.073 C 
ATOM     96  H24 non d ame     -31.064   7.502  21.307  0.00  0.00     0.028 H 
ATOM     97  H25 non d ame     -31.011   6.582  22.828  0.00  0.00     0.028 H 
ATOM     98  H26 non d ame     -32.551   7.261  22.253  0.00  0.00     0.028 H 
ENDBRANCH  93  95
BRANCH  93  99
ATOM     99  C19 non d ame     -30.149   9.595  22.369  0.00  0.00    -0.073 C 
ATOM    100  H27 non d ame     -30.657  10.335  21.750  0.00  0.00     0.028 H 
ATOM    101  H28 non d ame     -29.518  10.103  23.099  0.00  0.00     0.028 H 
ATOM    102  H29 non d ame     -29.531   8.956  21.739  0.00  0.00     0.028 H 
ENDBRANCH  93  99
ENDBRANCH  90  93
ENDBRANCH   1  90
TORSDOF 26
ENDMDL
MODEL 12
REMARK VINA RESULT:      -6.6      3.471      7.892
REMARK  26 active torsions:
REMARK  status: ('A' for Active; 'I' for Inactive)
REMARK    1  A    between atoms: C2_2  and  C3_3 
REMARK    2  A    between atoms: C4_6  and  C5_7 
REMARK       I    between atoms: C5_7  and  N2_9 
REMARK    3  A    between atoms: N2_9  and  C6_10 
REMARK    4  A    between atoms: C6_10  and  C7_11 
REMARK    5  A    between atoms: C6_10  and  C8_13 
REMARK       I    between atoms: C7_11  and  N3_14 
REMARK    6  A    between atoms: N3_14  and  C9_15 
REMARK    7  A    between atoms: C9_15  and  C10_16 
REMARK    8  A    between atoms: C9_15  and  C11_18 
REMARK       I    between atoms: C10_16  and  N4_21 
REMARK    9  A    between atoms: C11_18  and  C12_19 
REMARK   10  A    between atoms: C11_18  and  C13_20 
REMARK   11  A    between atoms: N4_21  and  C14_22 
REMARK   12  A    between atoms: C14_22  and  C15_23 
REMARK   13  A    between atoms: C14_22  and  C16_25 
REMARK       I    between atoms: C15_23  and  N6_40 
REMARK   14  A    between atoms: C16_25  and  C17_26 
REMARK   15  A    between atoms: C17_26  and  C18_27 
REMARK   16  A    between atoms: C17_26  and  C19_28 
REMARK   17  A    between atoms: C20_29  and  C21_30 
REMARK   18  A    between atoms: C20_29  and  C24_33 
REMARK   19  A    between atoms: C20_29  and  N6_40 
REMARK   20  A    between atoms: C21_30  and  C22_31 
REMARK   21  A    between atoms: C22_31  and  C23_32 
REMARK   22  A    between atoms: C23_32  and  O8_43 
REMARK   23  A    between atoms: C24_33  and  C25_34 
REMARK   24  A    between atoms: C28_38  and  O6_39 
REMARK   25  A    between atoms: C29_42  and  O8_43 
REMARK   26  A    between atoms: C29_42  and  C35_49 
ROOT
ATOM      1  C14 non d ame     -35.322   9.207  26.977  0.00  0.00     0.089 C 
ATOM      2  H20 non d ame     -35.531   8.625  27.874  0.00  0.00     0.087 H 
ENDROOT
BRANCH   1   3
ATOM      3  N4  non d ame     -34.253  10.142  27.299  0.00  0.00    -0.346 N 
ATOM      4  C10 non d ame     -33.427   9.952  28.546  0.00  0.00     0.241 C 
ATOM      5  O4  non d ame     -33.642   9.042  29.276  0.00  0.00    -0.271 OA
ATOM      6  H19 non d ame     -34.088  10.911  26.666  0.00  0.00     0.163 HD
BRANCH   4   7
ATOM      7  C9  non d ame     -32.321  10.925  28.861  0.00  0.00     0.092 C 
ATOM      8  H11 non d ame     -31.395  10.577  28.403  0.00  0.00     0.088 H 
BRANCH   7   9
ATOM      9  N3  non d ame     -32.634  12.230  28.269  0.00  0.00    -0.346 N 
ATOM     10  C7  non d ame     -31.835  12.737  27.181  0.00  0.00     0.240 C 
ATOM     11  O3  non d ame     -30.937  12.110  26.770  0.00  0.00    -0.271 OA
ATOM     12  H10 non d ame     -33.405  12.783  28.615  0.00  0.00     0.163 HD
BRANCH  10  13
ATOM     13  C6  non d ame     -32.172  14.127  26.557  0.00  0.00     0.086 C 
ATOM     14  H6  non d ame     -31.718  14.955  27.103  0.00  0.00     0.086 H 
BRANCH  13  15
ATOM     15  N2  non d ame     -31.639  14.179  25.206  0.00  0.00    -0.343 N 
ATOM     16  C5  non d ame     -31.106  15.441  24.689  0.00  0.00     0.273 C 
ATOM     17  O2  non d ame     -31.113  16.410  25.366  0.00  0.00    -0.266 OA
ATOM     18  H5  non d ame     -31.640  13.347  24.633  0.00  0.00     0.163 HD
BRANCH  16  19
ATOM     19  C4  non d ame     -30.538  15.510  23.262  0.00  0.00     0.154 A 
ATOM     20  C1  non d ame     -31.273  15.685  22.047  0.00  0.00    -0.017 A 
ATOM     21  C2  non d ame     -30.295  15.680  21.027  0.00  0.00     0.077 A 
ATOM     22  H1  non d ame     -32.350  15.799  21.924  0.00  0.00     0.091 H 
ATOM     23  O1  non d ame     -29.139  15.521  21.600  0.00  0.00    -0.218 OA
ATOM     24  N1  non d ame     -29.255  15.419  22.904  0.00  0.00    -0.123 NA
BRANCH  21  25
ATOM     25  C3  non d ame     -30.550  15.834  19.533  0.00  0.00    -0.029 C 
ATOM     26  H2  non d ame     -30.161  14.962  19.007  0.00  0.00     0.036 H 
ATOM     27  H3  non d ame     -31.621  15.918  19.354  0.00  0.00     0.036 H 
ATOM     28  H4  non d ame     -30.049  16.731  19.170  0.00  0.00     0.036 H 
ENDBRANCH  21  25
ENDBRANCH  16  19
ENDBRANCH  13  15
BRANCH  13  29
ATOM     29  C8  non d ame     -33.666  14.321  26.531  0.00  0.00    -0.049 C 
ATOM     30  H7  non d ame     -34.129  13.506  25.974  0.00  0.00     0.030 H 
ATOM     31  H8  non d ame     -34.050  14.327  27.551  0.00  0.00     0.030 H 
ATOM     32  H9  non d ame     -33.902  15.270  26.049  0.00  0.00     0.030 H 
ENDBRANCH  13  29
ENDBRANCH  10  13
ENDBRANCH   7   9
BRANCH   7  33
ATOM     33  C11 non d ame     -32.189  11.077  30.405  0.00  0.00    -0.033 C 
ATOM     34  H12 non d ame     -32.123  10.076  30.829  0.00  0.00     0.042 H 
BRANCH  33  35
ATOM     35  C12 non d ame     -30.881  11.837  30.791  0.00  0.00    -0.071 C 
ATOM     36  H13 non d ame     -31.138  12.767  31.299  0.00  0.00     0.028 H 
ATOM     37  H14 non d ame     -30.282  11.214  31.455  0.00  0.00     0.028 H 
ATOM     38  H15 non d ame     -30.312  12.061  29.889  0.00  0.00     0.028 H 
ENDBRANCH  33  35
BRANCH  33  39
ATOM     39  C13 non d ame     -33.449  11.776  31.008  0.00  0.00    -0.071 C 
ATOM     40  H16 non d ame     -34.056  12.189  30.202  0.00  0.00     0.028 H 
ATOM     41  H17 non d ame     -34.036  11.048  31.569  0.00  0.00     0.028 H 
ATOM     42  H18 non d ame     -33.135  12.579  31.675  0.00  0.00     0.028 H 
ENDBRANCH  33  39
ENDBRANCH   7  33
ENDBRANCH   4   7
ENDBRANCH   1   3
BRANCH   1  43
ATOM     43  C15 non d ame     -34.857   8.313  25.792  0.00  0.00     0.240 C 
ATOM     44  O5  non d ame     -35.598   7.503  25.336  0.00  0.00    -0.271 OA
ATOM     45  N6  non d ame     -33.490   8.473  25.218  0.00  0.00    -0.355 N 
ATOM     46  H46 non d ame     -32.854   9.161  25.593  0.00  0.00     0.162 HD
BRANCH  45  47
ATOM     47  C20 non d ame     -33.064   7.616  24.091  0.00  0.00     0.013 C 
ATOM     48  H30 non d ame     -33.937   7.068  23.737  0.00  0.00     0.072 H 
BRANCH  47  49
ATOM     49  C21 non d ame     -32.006   6.649  24.570  0.00  0.00    -0.038 C 
ATOM     50  H31 non d ame     -31.623   6.162  23.673  0.00  0.00     0.036 H 
ATOM     51  H32 non d ame     -31.337   7.234  25.202  0.00  0.00     0.036 H 
BRANCH  49  52
ATOM     52  C22 non d ame     -32.580   5.527  25.464  0.00  0.00     0.018 C 
ATOM     53  H33 non d ame     -33.644   5.485  25.237  0.00  0.00     0.048 H 
ATOM     54  H34 non d ame     -31.949   4.656  25.285  0.00  0.00     0.048 H 
BRANCH  52  55
ATOM     55  C23 non d ame     -32.478   5.825  26.985  0.00  0.00     0.259 C 
ATOM     56  O7  non d ame     -31.849   6.754  27.378  0.00  0.00    -0.265 OA
BRANCH  55  57
ATOM     57  O8  non d ame     -33.136   4.966  27.909  0.00  0.00    -0.317 OA
BRANCH  57  58
ATOM     58  C29 non d ame     -34.519   4.746  27.616  0.00  0.00     0.052 C 
ATOM     59  H47 non d ame     -34.758   5.425  26.797  0.00  0.00     0.082 H 
ATOM     60  H48 non d ame     -34.624   3.670  27.479  0.00  0.00     0.082 H 
BRANCH  58  61
ATOM     61  C35 non d ame     -35.345   5.166  28.861  0.00  0.00    -0.034 A 
ATOM     62  C30 non d ame     -34.704   5.425  30.068  0.00  0.00    -0.075 A 
ATOM     63  C31 non d ame     -35.446   5.801  31.186  0.00  0.00    -0.082 A 
ATOM     64  H49 non d ame     -33.620   5.332  30.138  0.00  0.00     0.084 H 
ATOM     65  C32 non d ame     -36.836   5.917  31.095  0.00  0.00    -0.083 A 
ATOM     66  H50 non d ame     -34.940   6.005  32.130  0.00  0.00     0.083 H 
ATOM     67  C33 non d ame     -37.471   5.654  29.889  0.00  0.00    -0.082 A 
ATOM     68  H51 non d ame     -37.423   6.211  31.964  0.00  0.00     0.083 H 
ATOM     69  C34 non d ame     -36.733   5.279  28.768  0.00  0.00    -0.075 A 
ATOM     70  H52 non d ame     -38.556   5.743  29.822  0.00  0.00     0.083 H 
ATOM     71  H53 non d ame     -37.240   5.076  27.824  0.00  0.00     0.084 H 
ENDBRANCH  58  61
ENDBRANCH  57  58
ENDBRANCH  55  57
ENDBRANCH  52  55
ENDBRANCH  49  52
ENDBRANCH  47  49
BRANCH  47  72
ATOM     72  C24 non d ame     -32.492   8.483  22.971  0.00  0.00    -0.039 C 
ATOM     73  H35 non d ame     -32.399   7.820  22.110  0.00  0.00     0.036 H 
ATOM     74  H36 non d ame     -33.143   9.356  22.918  0.00  0.00     0.036 H 
BRANCH  72  75
ATOM     75  C25 non d ame     -31.021   9.011  23.322  0.00  0.00    -0.001 C 
ATOM     76  C26 non d ame     -31.052  10.638  23.561  0.00  0.00    -0.035 C 
ATOM     77  C27 non d ame     -30.092  11.210  22.795  0.00  0.00     0.085 C 
ATOM     78  H38 non d ame     -31.977  11.056  23.165  0.00  0.00     0.036 H 
ATOM     79  H39 non d ame     -30.740  10.872  24.579  0.00  0.00     0.036 H 
ATOM     80  N5  non d ame     -29.629  10.162  21.812  0.00  0.00    -0.049 N 
ATOM     81  H40 non d ame     -30.593  12.011  22.251  0.00  0.00     0.075 H 
ATOM     82  H41 non d ame     -29.276  11.442  23.478  0.00  0.00     0.075 H 
ATOM     83  C28 non d ame     -30.192   8.754  22.366  0.00  0.00     0.193 C 
ATOM     84  H42 non d ame     -30.087  10.369  20.936  0.00  0.00     0.280 HD
ATOM     85  H43 non d ame     -28.620  10.148  21.865  0.00  0.00     0.280 HD
ATOM     86  H44 non d ame     -29.526   8.049  22.866  0.00  0.00     0.129 H 
ATOM     87  H37 non d ame     -30.538   8.406  24.089  0.00  0.00     0.046 H 
BRANCH  83  88
ATOM     88  O6  non d ame     -30.803   8.016  21.306  0.00  0.00    -0.369 OA
ATOM     89  H45 non d ame     -30.919   8.588  20.544  0.00  0.00     0.212 HD
ENDBRANCH  83  88
ENDBRANCH  72  75
ENDBRANCH  47  72
ENDBRANCH  45  47
ENDBRANCH   1  43
BRANCH   1  90
ATOM     90  C16 non d ame     -36.560   9.991  26.571  0.00  0.00    -0.035 C 
ATOM     91  H21 non d ame     -36.348  10.369  25.572  0.00  0.00     0.037 H 
ATOM     92  H22 non d ame     -37.397   9.311  26.730  0.00  0.00     0.037 H 
BRANCH  90  93
ATOM     93  C17 non d ame     -36.831  11.241  27.467  0.00  0.00    -0.059 C 
ATOM     94  H23 non d ame     -35.948  11.404  28.084  0.00  0.00     0.038 H 
BRANCH  93  95
ATOM     95  C18 non d ame     -37.065  12.533  26.620  0.00  0.00    -0.073 C 
ATOM     96  H24 non d ame     -37.475  13.316  27.257  0.00  0.00     0.028 H 
ATOM     97  H25 non d ame     -36.118  12.868  26.198  0.00  0.00     0.028 H 
ATOM     98  H26 non d ame     -37.766  12.317  25.814  0.00  0.00     0.028 H 
ENDBRANCH  93  95
BRANCH  93  99
ATOM     99  C19 non d ame     -38.008  10.991  28.414  0.00  0.00    -0.073 C 
ATOM    100  H27 non d ame     -38.940  11.001  27.847  0.00  0.00     0.028 H 
ATOM    101  H28 non d ame     -37.887  10.020  28.895  0.00  0.00     0.028 H 
ATOM    102  H29 non d ame     -38.036  11.771  29.173  0.00  0.00     0.028 H 
ENDBRANCH  93  99
ENDBRANCH  90  93
ENDBRANCH   1  90
TORSDOF 26
ENDMDL
MODEL 13
REMARK VINA RESULT:      -6.6      3.525      8.298
REMARK  26 active torsions:
REMARK  status: ('A' for Active; 'I' for Inactive)
REMARK    1  A    between atoms: C2_2  and  C3_3 
REMARK    2  A    between atoms: C4_6  and  C5_7 
REMARK       I    between atoms: C5_7  and  N2_9 
REMARK    3  A    between atoms: N2_9  and  C6_10 
REMARK    4  A    between atoms: C6_10  and  C7_11 
REMARK    5  A    between atoms: C6_10  and  C8_13 
REMARK       I    between atoms: C7_11  and  N3_14 
REMARK    6  A    between atoms: N3_14  and  C9_15 
REMARK    7  A    between atoms: C9_15  and  C10_16 
REMARK    8  A    between atoms: C9_15  and  C11_18 
REMARK       I    between atoms: C10_16  and  N4_21 
REMARK    9  A    between atoms: C11_18  and  C12_19 
REMARK   10  A    between atoms: C11_18  and  C13_20 
REMARK   11  A    between atoms: N4_21  and  C14_22 
REMARK   12  A    between atoms: C14_22  and  C15_23 
REMARK   13  A    between atoms: C14_22  and  C16_25 
REMARK       I    between atoms: C15_23  and  N6_40 
REMARK   14  A    between atoms: C16_25  and  C17_26 
REMARK   15  A    between atoms: C17_26  and  C18_27 
REMARK   16  A    between atoms: C17_26  and  C19_28 
REMARK   17  A    between atoms: C20_29  and  C21_30 
REMARK   18  A    between atoms: C20_29  and  C24_33 
REMARK   19  A    between atoms: C20_29  and  N6_40 
REMARK   20  A    between atoms: C21_30  and  C22_31 
REMARK   21  A    between atoms: C22_31  and  C23_32 
REMARK   22  A    between atoms: C23_32  and  O8_43 
REMARK   23  A    between atoms: C24_33  and  C25_34 
REMARK   24  A    between atoms: C28_38  and  O6_39 
REMARK   25  A    between atoms: C29_42  and  O8_43 
REMARK   26  A    between atoms: C29_42  and  C35_49 
ROOT
ATOM      1  C14 non d ame     -31.377  14.494  24.257  0.00  0.00     0.089 C 
ATOM      2  H20 non d ame     -30.354  14.453  24.630  0.00  0.00     0.087 H 
ENDROOT
BRANCH   1   3
ATOM      3  N4  non d ame     -31.867  13.126  24.172  0.00  0.00    -0.346 N 
ATOM      4  C10 non d ame     -31.633  12.162  25.308  0.00  0.00     0.241 C 
ATOM      5  O4  non d ame     -31.045  12.509  26.279  0.00  0.00    -0.271 OA
ATOM      6  H19 non d ame     -32.363  12.850  23.337  0.00  0.00     0.163 HD
BRANCH   4   7
ATOM      7  C9  non d ame     -32.152  10.751  25.206  0.00  0.00     0.092 C 
ATOM      8  H11 non d ame     -33.027  10.737  24.556  0.00  0.00     0.088 H 
BRANCH   7   9
ATOM      9  N3  non d ame     -31.135   9.900  24.582  0.00  0.00    -0.346 N 
ATOM     10  C7  non d ame     -31.398   9.281  23.306  0.00  0.00     0.240 C 
ATOM     11  O3  non d ame     -32.422   9.456  22.768  0.00  0.00    -0.271 OA
ATOM     12  H10 non d ame     -30.247   9.738  25.035  0.00  0.00     0.163 HD
BRANCH  10  13
ATOM     13  C6  non d ame     -30.312   8.373  22.649  0.00  0.00     0.086 C 
ATOM     14  H6  non d ame     -29.900   7.640  23.342  0.00  0.00     0.086 H 
BRANCH  13  15
ATOM     15  N2  non d ame     -30.920   7.622  21.563  0.00  0.00    -0.343 N 
ATOM     16  C5  non d ame     -31.556   6.333  21.844  0.00  0.00     0.273 C 
ATOM     17  O2  non d ame     -31.570   5.907  22.947  0.00  0.00    -0.266 OA
ATOM     18  H5  non d ame     -30.901   7.992  20.623  0.00  0.00     0.163 HD
BRANCH  16  19
ATOM     19  C4  non d ame     -32.204   5.529  20.706  0.00  0.00     0.154 A 
ATOM     20  C1  non d ame     -32.193   4.109  20.535  0.00  0.00    -0.017 A 
ATOM     21  C2  non d ame     -32.921   3.880  19.347  0.00  0.00     0.077 A 
ATOM     22  H1  non d ame     -31.728   3.359  21.176  0.00  0.00     0.091 H 
ATOM     23  O1  non d ame     -33.302   5.039  18.896  0.00  0.00    -0.218 OA
ATOM     24  N1  non d ame     -32.895   6.017  19.672  0.00  0.00    -0.123 NA
BRANCH  21  25
ATOM     25  C3  non d ame     -33.207   2.525  18.711  0.00  0.00    -0.029 C 
ATOM     26  H2  non d ame     -33.529   2.668  17.680  0.00  0.00     0.036 H 
ATOM     27  H3  non d ame     -32.302   1.918  18.728  0.00  0.00     0.036 H 
ATOM     28  H4  non d ame     -33.993   2.020  19.272  0.00  0.00     0.036 H 
ENDBRANCH  21  25
ENDBRANCH  16  19
ENDBRANCH  13  15
BRANCH  13  29
ATOM     29  C8  non d ame     -29.190   9.229  22.120  0.00  0.00    -0.049 C 
ATOM     30  H7  non d ame     -29.603  10.132  21.671  0.00  0.00     0.030 H 
ATOM     31  H8  non d ame     -28.525   9.502  22.939  0.00  0.00     0.030 H 
ATOM     32  H9  non d ame     -28.631   8.672  21.368  0.00  0.00     0.030 H 
ENDBRANCH  13  29
ENDBRANCH  10  13
ENDBRANCH   7   9
BRANCH   7  33
ATOM     33  C11 non d ame     -32.473  10.213  26.631  0.00  0.00    -0.033 C 
ATOM     34  H12 non d ame     -31.726  10.620  27.312  0.00  0.00     0.042 H 
BRANCH  33  35
ATOM     35  C12 non d ame     -33.871  10.702  27.122  0.00  0.00    -0.071 C 
ATOM     36  H13 non d ame     -34.120  11.643  26.631  0.00  0.00     0.028 H 
ATOM     37  H14 non d ame     -34.625   9.954  26.877  0.00  0.00     0.028 H 
ATOM     38  H15 non d ame     -33.845  10.852  28.201  0.00  0.00     0.028 H 
ENDBRANCH  33  35
BRANCH  33  39
ATOM     39  C13 non d ame     -32.370   8.654  26.676  0.00  0.00    -0.071 C 
ATOM     40  H16 non d ame     -33.191   8.219  26.105  0.00  0.00     0.028 H 
ATOM     41  H17 non d ame     -31.420   8.340  26.245  0.00  0.00     0.028 H 
ATOM     42  H18 non d ame     -32.428   8.316  27.711  0.00  0.00     0.028 H 
ENDBRANCH  33  39
ENDBRANCH   7  33
ENDBRANCH   4   7
ENDBRANCH   1   3
BRANCH   1  43
ATOM     43  C15 non d ame     -32.315  15.299  25.201  0.00  0.00     0.240 C 
ATOM     44  O5  non d ame     -33.335  15.743  24.783  0.00  0.00    -0.271 OA
ATOM     45  N6  non d ame     -31.946  15.507  26.630  0.00  0.00    -0.355 N 
ATOM     46  H46 non d ame     -31.085  15.130  26.999  0.00  0.00     0.162 HD
BRANCH  45  47
ATOM     47  C20 non d ame     -32.850  16.274  27.516  0.00  0.00     0.013 C 
ATOM     48  H30 non d ame     -33.862  16.180  27.124  0.00  0.00     0.072 H 
BRANCH  47  49
ATOM     49  C21 non d ame     -32.430  17.726  27.522  0.00  0.00    -0.038 C 
ATOM     50  H31 non d ame     -31.729  17.827  28.350  0.00  0.00     0.036 H 
ATOM     51  H32 non d ame     -32.106  17.943  26.504  0.00  0.00     0.036 H 
BRANCH  49  52
ATOM     52  C22 non d ame     -33.601  18.687  27.821  0.00  0.00     0.018 C 
ATOM     53  H33 non d ame     -34.503  18.078  27.773  0.00  0.00     0.048 H 
ATOM     54  H34 non d ame     -33.336  19.195  28.749  0.00  0.00     0.048 H 
BRANCH  52  55
ATOM     55  C23 non d ame     -33.782  19.805  26.757  0.00  0.00     0.259 C 
ATOM     56  O7  non d ame     -32.975  19.956  25.898  0.00  0.00    -0.265 OA
BRANCH  55  57
ATOM     57  O8  non d ame     -34.919  20.656  26.827  0.00  0.00    -0.317 OA
BRANCH  57  58
ATOM     58  C29 non d ame     -36.149  19.966  27.064  0.00  0.00     0.052 C 
ATOM     59  H47 non d ame     -35.872  19.022  27.534  0.00  0.00     0.082 H 
ATOM     60  H48 non d ame     -36.786  20.672  27.596  0.00  0.00     0.082 H 
BRANCH  58  61
ATOM     61  C35 non d ame     -36.799  19.658  25.689  0.00  0.00    -0.034 A 
ATOM     62  C30 non d ame     -36.869  18.347  25.229  0.00  0.00    -0.075 A 
ATOM     63  C31 non d ame     -37.453  18.071  23.993  0.00  0.00    -0.082 A 
ATOM     64  H49 non d ame     -36.467  17.536  25.836  0.00  0.00     0.084 H 
ATOM     65  C32 non d ame     -37.965  19.113  23.215  0.00  0.00    -0.083 A 
ATOM     66  H50 non d ame     -37.508  17.042  23.636  0.00  0.00     0.083 H 
ATOM     67  C33 non d ame     -37.889  20.420  23.676  0.00  0.00    -0.082 A 
ATOM     68  H51 non d ame     -38.423  18.905  22.248  0.00  0.00     0.083 H 
ATOM     69  C34 non d ame     -37.309  20.700  24.912  0.00  0.00    -0.075 A 
ATOM     70  H52 non d ame     -38.287  21.231  23.066  0.00  0.00     0.083 H 
ATOM     71  H53 non d ame     -37.254  21.729  25.268  0.00  0.00     0.084 H 
ENDBRANCH  58  61
ENDBRANCH  57  58
ENDBRANCH  55  57
ENDBRANCH  52  55
ENDBRANCH  49  52
ENDBRANCH  47  49
BRANCH  47  72
ATOM     72  C24 non d ame     -32.777  15.716  28.936  0.00  0.00    -0.039 C 
ATOM     73  H35 non d ame     -32.391  16.531  29.548  0.00  0.00     0.036 H 
ATOM     74  H36 non d ame     -33.766  15.304  29.137  0.00  0.00     0.036 H 
BRANCH  72  75
ATOM     75  C25 non d ame     -31.731  14.507  29.045  0.00  0.00    -0.001 C 
ATOM     76  C26 non d ame     -32.514  13.126  29.471  0.00  0.00    -0.035 C 
ATOM     77  C27 non d ame     -31.879  12.574  30.533  0.00  0.00     0.085 C 
ATOM     78  H38 non d ame     -33.504  13.362  29.859  0.00  0.00     0.036 H 
ATOM     79  H39 non d ame     -32.400  12.375  28.688  0.00  0.00     0.036 H 
ATOM     80  N5  non d ame     -30.935  13.620  31.075  0.00  0.00    -0.049 N 
ATOM     81  H40 non d ame     -32.659  12.383  31.270  0.00  0.00     0.075 H 
ATOM     82  H41 non d ame     -31.298  11.747  30.128  0.00  0.00     0.075 H 
ATOM     83  C28 non d ame     -30.823  14.753  29.930  0.00  0.00     0.193 C 
ATOM     84  H42 non d ame     -31.387  14.023  31.883  0.00  0.00     0.280 HD
ATOM     85  H43 non d ame     -30.036  13.170  31.171  0.00  0.00     0.280 HD
ATOM     86  H44 non d ame     -29.939  14.814  29.296  0.00  0.00     0.129 H 
ATOM     87  H37 non d ame     -31.068  14.456  28.181  0.00  0.00     0.046 H 
BRANCH  83  88
ATOM     88  O6  non d ame     -30.970  16.052  30.507  0.00  0.00    -0.369 OA
ATOM     89  H45 non d ame     -30.120  16.497  30.514  0.00  0.00     0.212 HD
ENDBRANCH  83  88
ENDBRANCH  72  75
ENDBRANCH  47  72
ENDBRANCH  45  47
ENDBRANCH   1  43
BRANCH   1  90
ATOM     90  C16 non d ame     -31.395  15.114  22.869  0.00  0.00    -0.035 C 
ATOM     91  H21 non d ame     -32.313  14.754  22.404  0.00  0.00     0.037 H 
ATOM     92  H22 non d ame     -31.248  16.182  23.028  0.00  0.00     0.037 H 
BRANCH  90  93
ATOM     93  C17 non d ame     -30.222  14.637  21.954  0.00  0.00    -0.059 C 
ATOM     94  H23 non d ame     -30.236  13.547  21.940  0.00  0.00     0.038 H 
BRANCH  93  95
ATOM     95  C18 non d ame     -30.382  15.136  20.482  0.00  0.00    -0.073 C 
ATOM     96  H24 non d ame     -29.406  15.164  20.000  0.00  0.00     0.028 H 
ATOM     97  H25 non d ame     -31.036  14.456  19.937  0.00  0.00     0.028 H 
ATOM     98  H26 non d ame     -30.816  16.135  20.483  0.00  0.00     0.028 H 
ENDBRANCH  93  95
BRANCH  93  99
ATOM     99  C19 non d ame     -28.871  15.067  22.531  0.00  0.00    -0.073 C 
ATOM    100  H27 non d ame     -28.431  15.834  21.893  0.00  0.00     0.028 H 
ATOM    101  H28 non d ame     -29.014  15.468  23.535  0.00  0.00     0.028 H 
ATOM    102  H29 non d ame     -28.204  14.206  22.576  0.00  0.00     0.028 H 
ENDBRANCH  93  99
ENDBRANCH  90  93
ENDBRANCH   1  90
TORSDOF 26
ENDMDL
MODEL 14
REMARK VINA RESULT:      -6.6      2.305      6.214
REMARK  26 active torsions:
REMARK  status: ('A' for Active; 'I' for Inactive)
REMARK    1  A    between atoms: C2_2  and  C3_3 
REMARK    2  A    between atoms: C4_6  and  C5_7 
REMARK       I    between atoms: C5_7  and  N2_9 
REMARK    3  A    between atoms: N2_9  and  C6_10 
REMARK    4  A    between atoms: C6_10  and  C7_11 
REMARK    5  A    between atoms: C6_10  and  C8_13 
REMARK       I    between atoms: C7_11  and  N3_14 
REMARK    6  A    between atoms: N3_14  and  C9_15 
REMARK    7  A    between atoms: C9_15  and  C10_16 
REMARK    8  A    between atoms: C9_15  and  C11_18 
REMARK       I    between atoms: C10_16  and  N4_21 
REMARK    9  A    between atoms: C11_18  and  C12_19 
REMARK   10  A    between atoms: C11_18  and  C13_20 
REMARK   11  A    between atoms: N4_21  and  C14_22 
REMARK   12  A    between atoms: C14_22  and  C15_23 
REMARK   13  A    between atoms: C14_22  and  C16_25 
REMARK       I    between atoms: C15_23  and  N6_40 
REMARK   14  A    between atoms: C16_25  and  C17_26 
REMARK   15  A    between atoms: C17_26  and  C18_27 
REMARK   16  A    between atoms: C17_26  and  C19_28 
REMARK   17  A    between atoms: C20_29  and  C21_30 
REMARK   18  A    between atoms: C20_29  and  C24_33 
REMARK   19  A    between atoms: C20_29  and  N6_40 
REMARK   20  A    between atoms: C21_30  and  C22_31 
REMARK   21  A    between atoms: C22_31  and  C23_32 
REMARK   22  A    between atoms: C23_32  and  O8_43 
REMARK   23  A    between atoms: C24_33  and  C25_34 
REMARK   24  A    between atoms: C28_38  and  O6_39 
REMARK   25  A    between atoms: C29_42  and  O8_43 
REMARK   26  A    between atoms: C29_42  and  C35_49 
ROOT
ATOM      1  C14 non d ame     -31.029  14.172  24.620  0.00  0.00     0.089 C 
ATOM      2  H20 non d ame     -30.072  14.117  25.141  0.00  0.00     0.087 H 
ENDROOT
BRANCH   1   3
ATOM      3  N4  non d ame     -31.375  12.824  24.196  0.00  0.00    -0.346 N 
ATOM      4  C10 non d ame     -31.161  11.655  25.124  0.00  0.00     0.241 C 
ATOM      5  O4  non d ame     -30.706  11.824  26.207  0.00  0.00    -0.271 OA
ATOM      6  H19 non d ame     -31.759  12.701  23.270  0.00  0.00     0.163 HD
BRANCH   4   7
ATOM      7  C9  non d ame     -31.531  10.267  24.671  0.00  0.00     0.092 C 
ATOM      8  H11 non d ame     -30.866   9.546  25.147  0.00  0.00     0.088 H 
BRANCH   7   9
ATOM      9  N3  non d ame     -32.894   9.955  25.111  0.00  0.00    -0.346 N 
ATOM     10  C7  non d ame     -33.111   8.972  26.143  0.00  0.00     0.240 C 
ATOM     11  O3  non d ame     -32.200   8.421  26.630  0.00  0.00    -0.271 OA
ATOM     12  H10 non d ame     -33.690  10.421  24.699  0.00  0.00     0.163 HD
BRANCH  10  13
ATOM     13  C6  non d ame     -34.565   8.642  26.605  0.00  0.00     0.086 C 
ATOM     14  H6  non d ame     -34.764   7.572  26.638  0.00  0.00     0.086 H 
BRANCH  13  15
ATOM     15  N2  non d ame     -34.755   9.143  27.956  0.00  0.00    -0.343 N 
ATOM     16  C5  non d ame     -34.633   8.224  29.089  0.00  0.00     0.273 C 
ATOM     17  O2  non d ame     -34.384   7.083  28.904  0.00  0.00    -0.266 OA
ATOM     18  H5  non d ame     -34.970  10.119  28.105  0.00  0.00     0.163 HD
BRANCH  16  19
ATOM     19  C4  non d ame     -34.830   8.740  30.523  0.00  0.00     0.154 A 
ATOM     20  C1  non d ame     -35.135  10.079  30.927  0.00  0.00    -0.017 A 
ATOM     21  C2  non d ame     -35.213  10.025  32.336  0.00  0.00     0.077 A 
ATOM     22  H1  non d ame     -35.278  10.954  30.293  0.00  0.00     0.091 H 
ATOM     23  O1  non d ame     -34.980   8.795  32.690  0.00  0.00    -0.218 OA
ATOM     24  N1  non d ame     -34.754   8.026  31.650  0.00  0.00    -0.123 NA
BRANCH  21  25
ATOM     25  C3  non d ame     -35.514  11.192  33.267  0.00  0.00    -0.029 C 
ATOM     26  H2  non d ame     -36.553  11.139  33.591  0.00  0.00     0.036 H 
ATOM     27  H3  non d ame     -34.860  11.140  34.137  0.00  0.00     0.036 H 
ATOM     28  H4  non d ame     -35.344  12.131  32.741  0.00  0.00     0.036 H 
ENDBRANCH  21  25
ENDBRANCH  16  19
ENDBRANCH  13  15
BRANCH  13  29
ATOM     29  C8  non d ame     -35.552   9.293  25.669  0.00  0.00    -0.049 C 
ATOM     30  H7  non d ame     -35.390   8.923  24.656  0.00  0.00     0.030 H 
ATOM     31  H8  non d ame     -36.566   9.052  25.986  0.00  0.00     0.030 H 
ATOM     32  H9  non d ame     -35.412  10.374  25.687  0.00  0.00     0.030 H 
ENDBRANCH  13  29
ENDBRANCH  10  13
ENDBRANCH   7   9
BRANCH   7  33
ATOM     33  C11 non d ame     -31.460  10.193  23.118  0.00  0.00    -0.033 C 
ATOM     34  H12 non d ame     -31.894  11.112  22.724  0.00  0.00     0.042 H 
BRANCH  33  35
ATOM     35  C12 non d ame     -29.983  10.121  22.619  0.00  0.00    -0.071 C 
ATOM     36  H13 non d ame     -29.971   9.966  21.540  0.00  0.00     0.028 H 
ATOM     37  H14 non d ame     -29.473  11.054  22.857  0.00  0.00     0.028 H 
ATOM     38  H15 non d ame     -29.473   9.292  23.110  0.00  0.00     0.028 H 
ENDBRANCH  33  35
BRANCH  33  39
ATOM     39  C13 non d ame     -32.299   8.991  22.576  0.00  0.00    -0.071 C 
ATOM     40  H16 non d ame     -31.853   8.055  22.913  0.00  0.00     0.028 H 
ATOM     41  H17 non d ame     -33.321   9.063  22.951  0.00  0.00     0.028 H 
ATOM     42  H18 non d ame     -32.311   9.018  21.487  0.00  0.00     0.028 H 
ENDBRANCH  33  39
ENDBRANCH   7  33
ENDBRANCH   4   7
ENDBRANCH   1   3
BRANCH   1  43
ATOM     43  C15 non d ame     -32.165  14.711  25.536  0.00  0.00     0.240 C 
ATOM     44  O5  non d ame     -33.269  14.285  25.421  0.00  0.00    -0.271 OA
ATOM     45  N6  non d ame     -31.876  15.753  26.562  0.00  0.00    -0.355 N 
ATOM     46  H46 non d ame     -30.941  16.119  26.672  0.00  0.00     0.162 HD
BRANCH  45  47
ATOM     47  C20 non d ame     -32.967  16.253  27.426  0.00  0.00     0.013 C 
ATOM     48  H30 non d ame     -33.909  16.104  26.897  0.00  0.00     0.072 H 
BRANCH  47  49
ATOM     49  C21 non d ame     -32.755  17.726  27.696  0.00  0.00    -0.038 C 
ATOM     50  H31 non d ame     -33.576  18.027  28.347  0.00  0.00     0.036 H 
ATOM     51  H32 non d ame     -31.724  17.816  28.041  0.00  0.00     0.036 H 
BRANCH  49  52
ATOM     52  C22 non d ame     -32.866  18.591  26.422  0.00  0.00     0.018 C 
ATOM     53  H33 non d ame     -32.116  19.373  26.530  0.00  0.00     0.048 H 
ATOM     54  H34 non d ame     -32.811  17.894  25.586  0.00  0.00     0.048 H 
BRANCH  52  55
ATOM     55  C23 non d ame     -34.230  19.323  26.280  0.00  0.00     0.259 C 
ATOM     56  O7  non d ame     -34.456  20.305  26.911  0.00  0.00    -0.265 OA
BRANCH  55  57
ATOM     57  O8  non d ame     -35.213  18.800  25.395  0.00  0.00    -0.317 OA
BRANCH  57  58
ATOM     58  C29 non d ame     -36.416  18.381  26.045  0.00  0.00     0.052 C 
ATOM     59  H47 non d ame     -36.233  18.501  27.112  0.00  0.00     0.082 H 
ATOM     60  H48 non d ame     -37.220  18.938  25.564  0.00  0.00     0.082 H 
BRANCH  58  61
ATOM     61  C35 non d ame     -36.620  16.871  25.748  0.00  0.00    -0.034 A 
ATOM     62  C30 non d ame     -36.393  15.928  26.745  0.00  0.00    -0.075 A 
ATOM     63  C31 non d ame     -36.575  14.572  26.479  0.00  0.00    -0.082 A 
ATOM     64  H49 non d ame     -36.071  16.252  27.735  0.00  0.00     0.084 H 
ATOM     65  C32 non d ame     -36.984  14.160  25.208  0.00  0.00    -0.083 A 
ATOM     66  H50 non d ame     -36.398  13.836  27.263  0.00  0.00     0.083 H 
ATOM     67  C33 non d ame     -37.207  15.104  24.215  0.00  0.00    -0.082 A 
ATOM     68  H51 non d ame     -37.130  13.101  24.991  0.00  0.00     0.083 H 
ATOM     69  C34 non d ame     -37.028  16.460  24.477  0.00  0.00    -0.075 A 
ATOM     70  H52 non d ame     -37.524  14.779  23.224  0.00  0.00     0.083 H 
ATOM     71  H53 non d ame     -37.205  17.196  23.692  0.00  0.00     0.084 H 
ENDBRANCH  58  61
ENDBRANCH  57  58
ENDBRANCH  55  57
ENDBRANCH  52  55
ENDBRANCH  49  52
ENDBRANCH  47  49
BRANCH  47  72
ATOM     72  C24 non d ame     -32.973  15.488  28.747  0.00  0.00    -0.039 C 
ATOM     73  H35 non d ame     -32.953  16.251  29.525  0.00  0.00     0.036 H 
ATOM     74  H36 non d ame     -33.816  14.800  28.681  0.00  0.00     0.036 H 
BRANCH  72  75
ATOM     75  C25 non d ame     -31.651  14.599  28.923  0.00  0.00    -0.001 C 
ATOM     76  C26 non d ame     -32.063  13.041  29.248  0.00  0.00    -0.035 C 
ATOM     77  C27 non d ame     -31.390  12.633  30.351  0.00  0.00     0.085 C 
ATOM     78  H38 non d ame     -33.108  12.986  29.552  0.00  0.00     0.036 H 
ATOM     79  H39 non d ame     -31.688  12.384  28.463  0.00  0.00     0.036 H 
ATOM     80  N5  non d ame     -30.810  13.868  30.997  0.00  0.00    -0.049 N 
ATOM     81  H40 non d ame     -32.146  12.207  31.011  0.00  0.00     0.075 H 
ATOM     82  H41 non d ame     -30.577  12.010  29.981  0.00  0.00     0.075 H 
ATOM     83  C28 non d ame     -30.918  15.039  29.891  0.00  0.00     0.193 C 
ATOM     84  H42 non d ame     -31.418  14.099  31.770  0.00  0.00     0.280 HD
ATOM     85  H43 non d ame     -29.833  13.671  31.163  0.00  0.00     0.280 HD
ATOM     86  H44 non d ame     -30.035  15.363  29.339  0.00  0.00     0.129 H 
ATOM     87  H37 non d ame     -30.932  14.765  28.121  0.00  0.00     0.046 H 
BRANCH  83  88
ATOM     88  O6  non d ame     -31.456  16.225  30.479  0.00  0.00    -0.369 OA
ATOM     89  H45 non d ame     -32.027  16.666  29.846  0.00  0.00     0.212 HD
ENDBRANCH  83  88
ENDBRANCH  72  75
ENDBRANCH  47  72
ENDBRANCH  45  47
ENDBRANCH   1  43
BRANCH   1  90
ATOM     90  C16 non d ame     -30.897  15.060  23.393  0.00  0.00    -0.035 C 
ATOM     91  H21 non d ame     -31.885  15.065  22.933  0.00  0.00     0.037 H 
ATOM     92  H22 non d ame     -30.459  15.990  23.755  0.00  0.00     0.037 H 
BRANCH  90  93
ATOM     93  C17 non d ame     -29.913  14.499  22.317  0.00  0.00    -0.059 C 
ATOM     94  H23 non d ame     -29.972  13.411  22.350  0.00  0.00     0.038 H 
BRANCH  93  95
ATOM     95  C18 non d ame     -30.299  14.953  20.872  0.00  0.00    -0.073 C 
ATOM     96  H24 non d ame     -30.042  14.167  20.164  0.00  0.00     0.028 H 
ATOM     97  H25 non d ame     -31.371  15.146  20.826  0.00  0.00     0.028 H 
ATOM     98  H26 non d ame     -29.755  15.863  20.620  0.00  0.00     0.028 H 
ENDBRANCH  93  95
BRANCH  93  99
ATOM     99  C19 non d ame     -28.469  14.887  22.642  0.00  0.00    -0.073 C 
ATOM    100  H27 non d ame     -28.031  15.406  21.788  0.00  0.00     0.028 H 
ATOM    101  H28 non d ame     -28.455  15.544  23.512  0.00  0.00     0.028 H 
ATOM    102  H29 non d ame     -27.891  13.988  22.857  0.00  0.00     0.028 H 
ENDBRANCH  93  99
ENDBRANCH  90  93
ENDBRANCH   1  90
TORSDOF 26
ENDMDL
MODEL 15
REMARK VINA RESULT:      -6.5      2.163      7.599
REMARK  26 active torsions:
REMARK  status: ('A' for Active; 'I' for Inactive)
REMARK    1  A    between atoms: C2_2  and  C3_3 
REMARK    2  A    between atoms: C4_6  and  C5_7 
REMARK       I    between atoms: C5_7  and  N2_9 
REMARK    3  A    between atoms: N2_9  and  C6_10 
REMARK    4  A    between atoms: C6_10  and  C7_11 
REMARK    5  A    between atoms: C6_10  and  C8_13 
REMARK       I    between atoms: C7_11  and  N3_14 
REMARK    6  A    between atoms: N3_14  and  C9_15 
REMARK    7  A    between atoms: C9_15  and  C10_16 
REMARK    8  A    between atoms: C9_15  and  C11_18 
REMARK       I    between atoms: C10_16  and  N4_21 
REMARK    9  A    between atoms: C11_18  and  C12_19 
REMARK   10  A    between atoms: C11_18  and  C13_20 
REMARK   11  A    between atoms: N4_21  and  C14_22 
REMARK   12  A    between atoms: C14_22  and  C15_23 
REMARK   13  A    between atoms: C14_22  and  C16_25 
REMARK       I    between atoms: C15_23  and  N6_40 
REMARK   14  A    between atoms: C16_25  and  C17_26 
REMARK   15  A    between atoms: C17_26  and  C18_27 
REMARK   16  A    between atoms: C17_26  and  C19_28 
REMARK   17  A    between atoms: C20_29  and  C21_30 
REMARK   18  A    between atoms: C20_29  and  C24_33 
REMARK   19  A    between atoms: C20_29  and  N6_40 
REMARK   20  A    between atoms: C21_30  and  C22_31 
REMARK   21  A    between atoms: C22_31  and  C23_32 
REMARK   22  A    between atoms: C23_32  and  O8_43 
REMARK   23  A    between atoms: C24_33  and  C25_34 
REMARK   24  A    between atoms: C28_38  and  O6_39 
REMARK   25  A    between atoms: C29_42  and  O8_43 
REMARK   26  A    between atoms: C29_42  and  C35_49 
ROOT
ATOM      1  C14 non d ame     -36.673  13.982  26.396  0.00  0.00     0.089 C 
ATOM      2  H20 non d ame     -37.261  13.982  27.315  0.00  0.00     0.087 H 
ENDROOT
BRANCH   1   3
ATOM      3  N4  non d ame     -36.360  15.367  26.077  0.00  0.00    -0.346 N 
ATOM      4  C10 non d ame     -37.087  16.492  26.769  0.00  0.00     0.241 C 
ATOM      5  O4  non d ame     -37.924  16.258  27.578  0.00  0.00    -0.271 OA
ATOM      6  H19 non d ame     -35.646  15.545  25.384  0.00  0.00     0.163 HD
BRANCH   4   7
ATOM      7  C9  non d ame     -36.746  17.919  26.430  0.00  0.00     0.092 C 
ATOM      8  H11 non d ame     -37.151  18.577  27.200  0.00  0.00     0.088 H 
BRANCH   7   9
ATOM      9  N3  non d ame     -35.290  18.089  26.437  0.00  0.00    -0.346 N 
ATOM     10  C7  non d ame     -34.581  18.177  27.690  0.00  0.00     0.240 C 
ATOM     11  O3  non d ame     -35.167  18.114  28.702  0.00  0.00    -0.271 OA
ATOM     12  H10 non d ame     -34.772  18.146  25.572  0.00  0.00     0.163 HD
BRANCH  10  13
ATOM     13  C6  non d ame     -33.032  18.361  27.691  0.00  0.00     0.086 C 
ATOM     14  H6  non d ame     -32.545  17.831  28.509  0.00  0.00     0.086 H 
BRANCH  13  15
ATOM     15  N2  non d ame     -32.491  17.811  26.459  0.00  0.00    -0.343 N 
ATOM     16  C5  non d ame     -32.157  16.387  26.390  0.00  0.00     0.273 C 
ATOM     17  O2  non d ame     -32.324  15.693  27.332  0.00  0.00    -0.266 OA
ATOM     18  H5  non d ame     -32.349  18.412  25.659  0.00  0.00     0.163 HD
BRANCH  16  19
ATOM     19  C4  non d ame     -31.586  15.791  25.094  0.00  0.00     0.154 A 
ATOM     20  C1  non d ame     -31.107  14.458  24.892  0.00  0.00    -0.017 A 
ATOM     21  C2  non d ame     -30.696  14.420  23.541  0.00  0.00     0.077 A 
ATOM     22  H1  non d ame     -31.065  13.643  25.614  0.00  0.00     0.091 H 
ATOM     23  O1  non d ame     -30.918  15.598  23.035  0.00  0.00    -0.218 OA
ATOM     24  N1  non d ame     -31.437  16.416  23.922  0.00  0.00    -0.123 NA
BRANCH  21  25
ATOM     25  C3  non d ame     -30.104  13.221  22.812  0.00  0.00    -0.029 C 
ATOM     26  H2  non d ame     -29.167  13.511  22.337  0.00  0.00     0.036 H 
ATOM     27  H3  non d ame     -29.916  12.419  23.525  0.00  0.00     0.036 H 
ATOM     28  H4  non d ame     -30.804  12.875  22.052  0.00  0.00     0.036 H 
ENDBRANCH  21  25
ENDBRANCH  16  19
ENDBRANCH  13  15
BRANCH  13  29
ATOM     29  C8  non d ame     -32.697  19.827  27.793  0.00  0.00    -0.049 C 
ATOM     30  H7  non d ame     -32.304  20.177  26.838  0.00  0.00     0.030 H 
ATOM     31  H8  non d ame     -33.597  20.388  28.043  0.00  0.00     0.030 H 
ATOM     32  H9  non d ame     -31.947  19.976  28.571  0.00  0.00     0.030 H 
ENDBRANCH  13  29
ENDBRANCH  10  13
ENDBRANCH   7   9
BRANCH   7  33
ATOM     33  C11 non d ame     -37.299  18.263  25.016  0.00  0.00    -0.033 C 
ATOM     34  H12 non d ame     -36.973  17.476  24.336  0.00  0.00     0.042 H 
BRANCH  33  35
ATOM     35  C12 non d ame     -38.860  18.277  25.004  0.00  0.00    -0.071 C 
ATOM     36  H13 non d ame     -39.223  18.920  25.806  0.00  0.00     0.028 H 
ATOM     37  H14 non d ame     -39.212  18.658  24.045  0.00  0.00     0.028 H 
ATOM     38  H15 non d ame     -39.233  17.264  25.153  0.00  0.00     0.028 H 
ENDBRANCH  33  35
BRANCH  33  39
ATOM     39  C13 non d ame     -36.716  19.618  24.502  0.00  0.00    -0.071 C 
ATOM     40  H16 non d ame     -36.996  19.761  23.458  0.00  0.00     0.028 H 
ATOM     41  H17 non d ame     -37.116  20.437  25.101  0.00  0.00     0.028 H 
ATOM     42  H18 non d ame     -35.630  19.603  24.589  0.00  0.00     0.028 H 
ENDBRANCH  33  39
ENDBRANCH   7  33
ENDBRANCH   4   7
ENDBRANCH   1   3
BRANCH   1  43
ATOM     43  C15 non d ame     -35.340  13.196  26.552  0.00  0.00     0.240 C 
ATOM     44  O5  non d ame     -34.414  13.458  25.855  0.00  0.00    -0.271 OA
ATOM     45  N6  non d ame     -35.215  12.121  27.578  0.00  0.00    -0.355 N 
ATOM     46  H46 non d ame     -35.993  11.893  28.179  0.00  0.00     0.162 HD
BRANCH  45  47
ATOM     47  C20 non d ame     -33.940  11.384  27.714  0.00  0.00     0.013 C 
ATOM     48  H30 non d ame     -33.140  12.026  27.345  0.00  0.00     0.072 H 
BRANCH  47  49
ATOM     49  C21 non d ame     -34.006  10.116  26.894  0.00  0.00    -0.038 C 
ATOM     50  H31 non d ame     -34.461   9.368  27.543  0.00  0.00     0.036 H 
ATOM     51  H32 non d ame     -34.492  10.396  25.959  0.00  0.00     0.036 H 
BRANCH  49  52
ATOM     52  C22 non d ame     -32.610   9.575  26.514  0.00  0.00     0.018 C 
ATOM     53  H33 non d ame     -32.052   9.518  27.448  0.00  0.00     0.048 H 
ATOM     54  H34 non d ame     -32.792   8.671  25.932  0.00  0.00     0.048 H 
BRANCH  52  55
ATOM     55  C23 non d ame     -31.800  10.524  25.588  0.00  0.00     0.259 C 
ATOM     56  O7  non d ame     -30.818  11.062  25.986  0.00  0.00    -0.265 OA
BRANCH  55  57
ATOM     57  O8  non d ame     -32.253  10.755  24.260  0.00  0.00    -0.317 OA
BRANCH  57  58
ATOM     58  C29 non d ame     -32.593   9.563  23.546  0.00  0.00     0.052 C 
ATOM     59  H47 non d ame     -33.095   8.920  24.268  0.00  0.00     0.082 H 
ATOM     60  H48 non d ame     -33.122   9.895  22.652  0.00  0.00     0.082 H 
BRANCH  58  61
ATOM     61  C35 non d ame     -31.274   8.874  23.107  0.00  0.00    -0.034 A 
ATOM     62  C30 non d ame     -31.100   7.509  23.310  0.00  0.00    -0.075 A 
ATOM     63  C31 non d ame     -29.915   6.889  22.916  0.00  0.00    -0.082 A 
ATOM     64  H49 non d ame     -31.893   6.924  23.777  0.00  0.00     0.084 H 
ATOM     65  C32 non d ame     -28.899   7.642  22.320  0.00  0.00    -0.083 A 
ATOM     66  H50 non d ame     -29.782   5.819  23.075  0.00  0.00     0.083 H 
ATOM     67  C33 non d ame     -29.076   9.005  22.123  0.00  0.00    -0.082 A 
ATOM     68  H51 non d ame     -27.969   7.165  22.009  0.00  0.00     0.083 H 
ATOM     69  C34 non d ame     -30.259   9.627  22.513  0.00  0.00    -0.075 A 
ATOM     70  H52 non d ame     -28.280   9.589  21.660  0.00  0.00     0.083 H 
ATOM     71  H53 non d ame     -30.391  10.698  22.354  0.00  0.00     0.084 H 
ENDBRANCH  58  61
ENDBRANCH  57  58
ENDBRANCH  55  57
ENDBRANCH  52  55
ENDBRANCH  49  52
ENDBRANCH  47  49
BRANCH  47  72
ATOM     72  C24 non d ame     -33.702  11.030  29.181  0.00  0.00    -0.039 C 
ATOM     73  H35 non d ame     -34.690  11.036  29.644  0.00  0.00     0.036 H 
ATOM     74  H36 non d ame     -33.113  10.114  29.167  0.00  0.00     0.036 H 
BRANCH  72  75
ATOM     75  C25 non d ame     -32.825  12.145  29.925  0.00  0.00    -0.001 C 
ATOM     76  C26 non d ame     -31.507  12.519  29.015  0.00  0.00    -0.035 C 
ATOM     77  C27 non d ame     -30.401  12.427  29.792  0.00  0.00     0.085 C 
ATOM     78  H38 non d ame     -31.349  11.755  28.255  0.00  0.00     0.036 H 
ATOM     79  H39 non d ame     -31.533  13.572  28.734  0.00  0.00     0.036 H 
ATOM     80  N5  non d ame     -30.807  11.709  31.056  0.00  0.00    -0.049 N 
ATOM     81  H40 non d ame     -29.705  11.799  29.234  0.00  0.00     0.075 H 
ATOM     82  H41 non d ame     -30.131  13.453  30.038  0.00  0.00     0.075 H 
ATOM     83  C28 non d ame     -32.421  11.729  31.079  0.00  0.00     0.193 C 
ATOM     84  H42 non d ame     -30.499  10.752  30.954  0.00  0.00     0.280 HD
ATOM     85  H43 non d ame     -30.467  12.269  31.824  0.00  0.00     0.280 HD
ATOM     86  H44 non d ame     -32.957  12.415  31.735  0.00  0.00     0.129 H 
ATOM     87  H37 non d ame     -33.431  12.977  30.284  0.00  0.00     0.046 H 
BRANCH  83  88
ATOM     88  O6  non d ame     -32.926  10.429  31.390  0.00  0.00    -0.369 OA
ATOM     89  H45 non d ame     -33.865  10.395  31.191  0.00  0.00     0.212 HD
ENDBRANCH  83  88
ENDBRANCH  72  75
ENDBRANCH  47  72
ENDBRANCH  45  47
ENDBRANCH   1  43
BRANCH   1  90
ATOM     90  C16 non d ame     -37.490  13.384  25.262  0.00  0.00    -0.035 C 
ATOM     91  H21 non d ame     -36.844  12.635  24.805  0.00  0.00     0.037 H 
ATOM     92  H22 non d ame     -38.436  13.086  25.714  0.00  0.00     0.037 H 
BRANCH  90  93
ATOM     93  C17 non d ame     -37.842  14.408  24.136  0.00  0.00    -0.059 C 
ATOM     94  H23 non d ame     -37.343  15.347  24.374  0.00  0.00     0.038 H 
BRANCH  93  95
ATOM     95  C18 non d ame     -37.332  13.940  22.735  0.00  0.00    -0.073 C 
ATOM     96  H24 non d ame     -38.106  13.351  22.244  0.00  0.00     0.028 H 
ATOM     97  H25 non d ame     -37.098  14.812  22.123  0.00  0.00     0.028 H 
ATOM     98  H26 non d ame     -36.436  13.332  22.858  0.00  0.00     0.028 H 
ENDBRANCH  93  95
BRANCH  93  99
ATOM     99  C19 non d ame     -39.346  14.688  24.103  0.00  0.00    -0.073 C 
ATOM    100  H27 non d ame     -39.518  15.713  23.772  0.00  0.00     0.028 H 
ATOM    101  H28 non d ame     -39.830  13.998  23.411  0.00  0.00     0.028 H 
ATOM    102  H29 non d ame     -39.763  14.553  25.100  0.00  0.00     0.028 H 
ENDBRANCH  93  99
ENDBRANCH  90  93
ENDBRANCH   1  90
TORSDOF 26
ENDMDL
MODEL 16
REMARK VINA RESULT:      -6.5      2.155      5.456
REMARK  26 active torsions:
REMARK  status: ('A' for Active; 'I' for Inactive)
REMARK    1  A    between atoms: C2_2  and  C3_3 
REMARK    2  A    between atoms: C4_6  and  C5_7 
REMARK       I    between atoms: C5_7  and  N2_9 
REMARK    3  A    between atoms: N2_9  and  C6_10 
REMARK    4  A    between atoms: C6_10  and  C7_11 
REMARK    5  A    between atoms: C6_10  and  C8_13 
REMARK       I    between atoms: C7_11  and  N3_14 
REMARK    6  A    between atoms: N3_14  and  C9_15 
REMARK    7  A    between atoms: C9_15  and  C10_16 
REMARK    8  A    between atoms: C9_15  and  C11_18 
REMARK       I    between atoms: C10_16  and  N4_21 
REMARK    9  A    between atoms: C11_18  and  C12_19 
REMARK   10  A    between atoms: C11_18  and  C13_20 
REMARK   11  A    between atoms: N4_21  and  C14_22 
REMARK   12  A    between atoms: C14_22  and  C15_23 
REMARK   13  A    between atoms: C14_22  and  C16_25 
REMARK       I    between atoms: C15_23  and  N6_40 
REMARK   14  A    between atoms: C16_25  and  C17_26 
REMARK   15  A    between atoms: C17_26  and  C18_27 
REMARK   16  A    between atoms: C17_26  and  C19_28 
REMARK   17  A    between atoms: C20_29  and  C21_30 
REMARK   18  A    between atoms: C20_29  and  C24_33 
REMARK   19  A    between atoms: C20_29  and  N6_40 
REMARK   20  A    between atoms: C21_30  and  C22_31 
REMARK   21  A    between atoms: C22_31  and  C23_32 
REMARK   22  A    between atoms: C23_32  and  O8_43 
REMARK   23  A    between atoms: C24_33  and  C25_34 
REMARK   24  A    between atoms: C28_38  and  O6_39 
REMARK   25  A    between atoms: C29_42  and  O8_43 
REMARK   26  A    between atoms: C29_42  and  C35_49 
ROOT
ATOM      1  C14 non d ame     -31.181  14.481  24.201  0.00  0.00     0.089 C 
ATOM      2  H20 non d ame     -30.205  14.534  24.683  0.00  0.00     0.087 H 
ENDROOT
BRANCH   1   3
ATOM      3  N4  non d ame     -31.467  13.078  23.942  0.00  0.00    -0.346 N 
ATOM      4  C10 non d ame     -31.270  12.048  25.025  0.00  0.00     0.241 C 
ATOM      5  O4  non d ame     -30.877  12.372  26.097  0.00  0.00    -0.271 OA
ATOM      6  H19 non d ame     -31.799  12.823  23.022  0.00  0.00     0.163 HD
BRANCH   4   7
ATOM      7  C9  non d ame     -31.576  10.601  24.741  0.00  0.00     0.092 C 
ATOM      8  H11 non d ame     -30.987   9.972  25.408  0.00  0.00     0.088 H 
BRANCH   7   9
ATOM      9  N3  non d ame     -32.989  10.334  25.029  0.00  0.00    -0.346 N 
ATOM     10  C7  non d ame     -33.348   9.415  26.081  0.00  0.00     0.240 C 
ATOM     11  O3  non d ame     -32.514   8.880  26.704  0.00  0.00    -0.271 OA
ATOM     12  H10 non d ame     -33.719  10.787  24.499  0.00  0.00     0.163 HD
BRANCH  10  13
ATOM     13  C6  non d ame     -34.853   9.133  26.381  0.00  0.00     0.086 C 
ATOM     14  H6  non d ame     -35.031   8.851  27.418  0.00  0.00     0.086 H 
BRANCH  13  15
ATOM     15  N2  non d ame     -35.617  10.347  26.144  0.00  0.00    -0.343 N 
ATOM     16  C5  non d ame     -35.701  11.363  27.195  0.00  0.00     0.273 C 
ATOM     17  O2  non d ame     -35.153  11.193  28.229  0.00  0.00    -0.266 OA
ATOM     18  H5  non d ame     -36.084  10.483  25.258  0.00  0.00     0.163 HD
BRANCH  16  19
ATOM     19  C4  non d ame     -36.503  12.652  26.958  0.00  0.00     0.154 A 
ATOM     20  C1  non d ame     -35.985  13.943  26.623  0.00  0.00    -0.017 A 
ATOM     21  C2  non d ame     -37.123  14.774  26.515  0.00  0.00     0.077 A 
ATOM     22  H1  non d ame     -34.944  14.233  26.480  0.00  0.00     0.091 H 
ATOM     23  O1  non d ame     -38.166  14.036  26.760  0.00  0.00    -0.218 OA
ATOM     24  N1  non d ame     -37.830  12.794  27.021  0.00  0.00    -0.123 NA
BRANCH  21  25
ATOM     25  C3  non d ame     -37.126  16.258  26.174  0.00  0.00    -0.029 C 
ATOM     26  H2  non d ame     -36.126  16.666  26.315  0.00  0.00     0.036 H 
ATOM     27  H3  non d ame     -37.429  16.391  25.135  0.00  0.00     0.036 H 
ATOM     28  H4  non d ame     -37.827  16.779  26.826  0.00  0.00     0.036 H 
ENDBRANCH  21  25
ENDBRANCH  16  19
ENDBRANCH  13  15
BRANCH  13  29
ATOM     29  C8  non d ame     -35.349   8.027  25.483  0.00  0.00    -0.049 C 
ATOM     30  H7  non d ame     -34.727   7.978  24.590  0.00  0.00     0.030 H 
ATOM     31  H8  non d ame     -35.297   7.078  26.015  0.00  0.00     0.030 H 
ATOM     32  H9  non d ame     -36.382   8.228  25.197  0.00  0.00     0.030 H 
ENDBRANCH  13  29
ENDBRANCH  10  13
ENDBRANCH   7   9
BRANCH   7  33
ATOM     33  C11 non d ame     -31.289  10.294  23.242  0.00  0.00    -0.033 C 
ATOM     34  H12 non d ame     -31.510  11.198  22.674  0.00  0.00     0.042 H 
BRANCH  33  35
ATOM     35  C12 non d ame     -29.784   9.951  23.010  0.00  0.00    -0.071 C 
ATOM     36  H13 non d ame     -29.574   8.955  23.400  0.00  0.00     0.028 H 
ATOM     37  H14 non d ame     -29.566   9.977  21.943  0.00  0.00     0.028 H 
ATOM     38  H15 non d ame     -29.161  10.682  23.527  0.00  0.00     0.028 H 
ENDBRANCH  33  35
BRANCH  33  39
ATOM     39  C13 non d ame     -32.218   9.153  22.716  0.00  0.00    -0.071 C 
ATOM     40  H16 non d ame     -32.361   8.411  23.502  0.00  0.00     0.028 H 
ATOM     41  H17 non d ame     -33.183   9.573  22.431  0.00  0.00     0.028 H 
ATOM     42  H18 non d ame     -31.757   8.681  21.849  0.00  0.00     0.028 H 
ENDBRANCH  33  39
ENDBRANCH   7  33
ENDBRANCH   4   7
ENDBRANCH   1   3
BRANCH   1  43
ATOM     43  C15 non d ame     -32.312  15.060  25.100  0.00  0.00     0.240 C 
ATOM     44  O5  non d ame     -33.405  15.200  24.657  0.00  0.00    -0.271 OA
ATOM     45  N6  non d ame     -32.032  15.430  26.516  0.00  0.00    -0.355 N 
ATOM     46  H46 non d ame     -31.108  15.311  26.905  0.00  0.00     0.162 HD
BRANCH  45  47
ATOM     47  C20 non d ame     -33.118  15.977  27.358  0.00  0.00     0.013 C 
ATOM     48  H30 non d ame     -34.068  15.700  26.903  0.00  0.00     0.072 H 
BRANCH  47  49
ATOM     49  C21 non d ame     -32.994  17.483  27.418  0.00  0.00    -0.038 C 
ATOM     50  H31 non d ame     -32.304  17.690  28.236  0.00  0.00     0.036 H 
ATOM     51  H32 non d ame     -32.748  17.798  26.403  0.00  0.00     0.036 H 
BRANCH  49  52
ATOM     52  C22 non d ame     -34.323  18.180  27.781  0.00  0.00     0.018 C 
ATOM     53  H33 non d ame     -35.111  17.533  27.396  0.00  0.00     0.048 H 
ATOM     54  H34 non d ame     -34.264  18.391  28.849  0.00  0.00     0.048 H 
BRANCH  52  55
ATOM     55  C23 non d ame     -34.520  19.555  27.084  0.00  0.00     0.259 C 
ATOM     56  O7  non d ame     -33.612  20.314  26.979  0.00  0.00    -0.265 OA
BRANCH  55  57
ATOM     57  O8  non d ame     -35.804  19.904  26.581  0.00  0.00    -0.317 OA
BRANCH  57  58
ATOM     58  C29 non d ame     -36.485  20.893  27.359  0.00  0.00     0.052 C 
ATOM     59  H47 non d ame     -35.712  21.583  27.700  0.00  0.00     0.082 H 
ATOM     60  H48 non d ame     -37.299  21.254  26.731  0.00  0.00     0.082 H 
BRANCH  58  61
ATOM     61  C35 non d ame     -37.097  20.190  28.599  0.00  0.00    -0.034 A 
ATOM     62  C30 non d ame     -36.764  20.620  29.880  0.00  0.00    -0.075 A 
ATOM     63  C31 non d ame     -37.313  19.989  30.994  0.00  0.00    -0.082 A 
ATOM     64  H49 non d ame     -36.072  21.453  30.010  0.00  0.00     0.084 H 
ATOM     65  C32 non d ame     -38.198  18.920  30.825  0.00  0.00    -0.083 A 
ATOM     66  H50 non d ame     -37.052  20.329  31.996  0.00  0.00     0.083 H 
ATOM     67  C33 non d ame     -38.525  18.491  29.545  0.00  0.00    -0.082 A 
ATOM     68  H51 non d ame     -38.633  18.421  31.691  0.00  0.00     0.083 H 
ATOM     69  C34 non d ame     -37.979  19.121  28.429  0.00  0.00    -0.075 A 
ATOM     70  H52 non d ame     -39.213  17.656  29.417  0.00  0.00     0.083 H 
ATOM     71  H53 non d ame     -38.242  18.780  27.427  0.00  0.00     0.084 H 
ENDBRANCH  58  61
ENDBRANCH  57  58
ENDBRANCH  55  57
ENDBRANCH  52  55
ENDBRANCH  49  52
ENDBRANCH  47  49
BRANCH  47  72
ATOM     72  C24 non d ame     -33.018  15.402  28.769  0.00  0.00    -0.039 C 
ATOM     73  H35 non d ame     -32.889  16.263  29.426  0.00  0.00     0.036 H 
ATOM     74  H36 non d ame     -33.889  14.756  28.882  0.00  0.00     0.036 H 
BRANCH  72  75
ATOM     75  C25 non d ame     -31.720  14.478  28.942  0.00  0.00    -0.001 C 
ATOM     76  C26 non d ame     -32.169  12.953  29.360  0.00  0.00    -0.035 C 
ATOM     77  C27 non d ame     -31.469  12.577  30.457  0.00  0.00     0.085 C 
ATOM     78  H38 non d ame     -33.203  12.949  29.705  0.00  0.00     0.036 H 
ATOM     79  H39 non d ame     -31.847  12.245  28.597  0.00  0.00     0.036 H 
ATOM     80  N5  non d ame     -30.824  13.822  31.017  0.00  0.00    -0.049 N 
ATOM     81  H40 non d ame     -32.212  12.211  31.166  0.00  0.00     0.075 H 
ATOM     82  H41 non d ame     -30.690  11.909  30.090  0.00  0.00     0.075 H 
ATOM     83  C28 non d ame     -30.936  14.940  29.858  0.00  0.00     0.193 C 
ATOM     84  H42 non d ame     -31.394  14.111  31.800  0.00  0.00     0.280 HD
ATOM     85  H43 non d ame     -29.849  13.600  31.157  0.00  0.00     0.280 HD
ATOM     86  H44 non d ame     -30.065  15.205  29.259  0.00  0.00     0.129 H 
ATOM     87  H37 non d ame     -31.027  14.579  28.106  0.00  0.00     0.046 H 
BRANCH  83  88
ATOM     88  O6  non d ame     -31.412  16.171  30.405  0.00  0.00    -0.369 OA
ATOM     89  H45 non d ame     -30.789  16.492  31.061  0.00  0.00     0.212 HD
ENDBRANCH  83  88
ENDBRANCH  72  75
ENDBRANCH  47  72
ENDBRANCH  45  47
ENDBRANCH   1  43
BRANCH   1  90
ATOM     90  C16 non d ame     -31.144  15.232  22.880  0.00  0.00    -0.035 C 
ATOM     91  H21 non d ame     -32.141  15.118  22.455  0.00  0.00     0.037 H 
ATOM     92  H22 non d ame     -30.766  16.226  23.123  0.00  0.00     0.037 H 
BRANCH  90  93
ATOM     93  C17 non d ame     -30.150  14.624  21.840  0.00  0.00    -0.059 C 
ATOM     94  H23 non d ame     -30.321  13.548  21.810  0.00  0.00     0.038 H 
BRANCH  93  95
ATOM     95  C18 non d ame     -30.385  15.185  20.401  0.00  0.00    -0.073 C 
ATOM     96  H24 non d ame     -30.561  14.358  19.713  0.00  0.00     0.028 H 
ATOM     97  H25 non d ame     -31.252  15.844  20.405  0.00  0.00     0.028 H 
ATOM     98  H26 non d ame     -29.505  15.743  20.081  0.00  0.00     0.028 H 
ENDBRANCH  93  95
BRANCH  93  99
ATOM     99  C19 non d ame     -28.699  14.840  22.280  0.00  0.00    -0.073 C 
ATOM    100  H27 non d ame     -28.028  14.555  21.469  0.00  0.00     0.028 H 
ATOM    101  H28 non d ame     -28.547  15.892  22.525  0.00  0.00     0.028 H 
ATOM    102  H29 non d ame     -28.490  14.229  23.157  0.00  0.00     0.028 H 
ENDBRANCH  93  99
ENDBRANCH  90  93
ENDBRANCH   1  90
TORSDOF 26
ENDMDL
MODEL 17
REMARK VINA RESULT:      -6.5      1.748      5.026
REMARK  26 active torsions:
REMARK  status: ('A' for Active; 'I' for Inactive)
REMARK    1  A    between atoms: C2_2  and  C3_3 
REMARK    2  A    between atoms: C4_6  and  C5_7 
REMARK       I    between atoms: C5_7  and  N2_9 
REMARK    3  A    between atoms: N2_9  and  C6_10 
REMARK    4  A    between atoms: C6_10  and  C7_11 
REMARK    5  A    between atoms: C6_10  and  C8_13 
REMARK       I    between atoms: C7_11  and  N3_14 
REMARK    6  A    between atoms: N3_14  and  C9_15 
REMARK    7  A    between atoms: C9_15  and  C10_16 
REMARK    8  A    between atoms: C9_15  and  C11_18 
REMARK       I    between atoms: C10_16  and  N4_21 
REMARK    9  A    between atoms: C11_18  and  C12_19 
REMARK   10  A    between atoms: C11_18  and  C13_20 
REMARK   11  A    between atoms: N4_21  and  C14_22 
REMARK   12  A    between atoms: C14_22  and  C15_23 
REMARK   13  A    between atoms: C14_22  and  C16_25 
REMARK       I    between atoms: C15_23  and  N6_40 
REMARK   14  A    between atoms: C16_25  and  C17_26 
REMARK   15  A    between atoms: C17_26  and  C18_27 
REMARK   16  A    between atoms: C17_26  and  C19_28 
REMARK   17  A    between atoms: C20_29  and  C21_30 
REMARK   18  A    between atoms: C20_29  and  C24_33 
REMARK   19  A    between atoms: C20_29  and  N6_40 
REMARK   20  A    between atoms: C21_30  and  C22_31 
REMARK   21  A    between atoms: C22_31  and  C23_32 
REMARK   22  A    between atoms: C23_32  and  O8_43 
REMARK   23  A    between atoms: C24_33  and  C25_34 
REMARK   24  A    between atoms: C28_38  and  O6_39 
REMARK   25  A    between atoms: C29_42  and  O8_43 
REMARK   26  A    between atoms: C29_42  and  C35_49 
ROOT
ATOM      1  C14 non d ame     -32.991  10.860  26.108  0.00  0.00     0.089 C 
ATOM      2  H20 non d ame     -33.260  10.671  27.148  0.00  0.00     0.087 H 
ENDROOT
BRANCH   1   3
ATOM      3  N4  non d ame     -34.207  11.235  25.402  0.00  0.00    -0.346 N 
ATOM      4  C10 non d ame     -35.442  11.631  26.170  0.00  0.00     0.241 C 
ATOM      5  O4  non d ame     -35.435  11.637  27.357  0.00  0.00    -0.271 OA
ATOM      6  H19 non d ame     -34.193  11.221  24.392  0.00  0.00     0.163 HD
BRANCH   4   7
ATOM      7  C9  non d ame     -36.690  12.021  25.422  0.00  0.00     0.092 C 
ATOM      8  H11 non d ame     -37.553  11.904  26.078  0.00  0.00     0.088 H 
BRANCH   7   9
ATOM      9  N3  non d ame     -36.616  13.438  25.054  0.00  0.00    -0.346 N 
ATOM     10  C7  non d ame     -37.679  14.338  25.431  0.00  0.00     0.240 C 
ATOM     11  O3  non d ame     -38.601  13.938  26.030  0.00  0.00    -0.271 OA
ATOM     12  H10 non d ame     -35.827  13.798  24.535  0.00  0.00     0.163 HD
BRANCH  10  13
ATOM     13  C6  non d ame     -37.595  15.844  25.033  0.00  0.00     0.086 C 
ATOM     14  H6  non d ame     -38.366  16.449  25.510  0.00  0.00     0.086 H 
BRANCH  13  15
ATOM     15  N2  non d ame     -36.317  16.378  25.472  0.00  0.00    -0.343 N 
ATOM     16  C5  non d ame     -36.198  17.804  25.781  0.00  0.00     0.273 C 
ATOM     17  O2  non d ame     -37.137  18.515  25.671  0.00  0.00    -0.266 OA
ATOM     18  H5  non d ame     -35.519  15.764  25.561  0.00  0.00     0.163 HD
BRANCH  16  19
ATOM     19  C4  non d ame     -34.853  18.382  26.248  0.00  0.00     0.154 A 
ATOM     20  C1  non d ame     -34.481  18.738  27.583  0.00  0.00    -0.017 A 
ATOM     21  C2  non d ame     -33.156  19.214  27.477  0.00  0.00     0.077 A 
ATOM     22  H1  non d ame     -35.082  18.662  28.490  0.00  0.00     0.091 H 
ATOM     23  O1  non d ame     -32.815  19.135  26.224  0.00  0.00    -0.218 OA
ATOM     24  N1  non d ame     -33.789  18.653  25.487  0.00  0.00    -0.123 NA
BRANCH  21  25
ATOM     25  C3  non d ame     -32.286  19.724  28.619  0.00  0.00    -0.029 C 
ATOM     26  H2  non d ame     -32.919  20.174  29.384  0.00  0.00     0.036 H 
ATOM     27  H3  non d ame     -31.730  18.892  29.051  0.00  0.00     0.036 H 
ATOM     28  H4  non d ame     -31.588  20.469  28.239  0.00  0.00     0.036 H 
ENDBRANCH  21  25
ENDBRANCH  16  19
ENDBRANCH  13  15
BRANCH  13  29
ATOM     29  C8  non d ame     -37.725  15.979  23.537  0.00  0.00    -0.049 C 
ATOM     30  H7  non d ame     -37.239  16.899  23.212  0.00  0.00     0.030 H 
ATOM     31  H8  non d ame     -37.250  15.127  23.053  0.00  0.00     0.030 H 
ATOM     32  H9  non d ame     -38.781  16.011  23.265  0.00  0.00     0.030 H 
ENDBRANCH  13  29
ENDBRANCH  10  13
ENDBRANCH   7   9
BRANCH   7  33
ATOM     33  C11 non d ame     -36.814  11.158  24.132  0.00  0.00    -0.033 C 
ATOM     34  H12 non d ame     -35.835  11.143  23.653  0.00  0.00     0.042 H 
BRANCH  33  35
ATOM     35  C12 non d ame     -37.195   9.683  24.470  0.00  0.00    -0.071 C 
ATOM     36  H13 non d ame     -36.319   9.161  24.858  0.00  0.00     0.028 H 
ATOM     37  H14 non d ame     -37.985   9.675  25.220  0.00  0.00     0.028 H 
ATOM     38  H15 non d ame     -37.544   9.183  23.567  0.00  0.00     0.028 H 
ENDBRANCH  33  35
BRANCH  33  39
ATOM     39  C13 non d ame     -37.833  11.792  23.131  0.00  0.00    -0.071 C 
ATOM     40  H16 non d ame     -38.013  11.098  22.310  0.00  0.00     0.028 H 
ATOM     41  H17 non d ame     -38.771  11.996  23.648  0.00  0.00     0.028 H 
ATOM     42  H18 non d ame     -37.425  12.723  22.739  0.00  0.00     0.028 H 
ENDBRANCH  33  39
ENDBRANCH   7  33
ENDBRANCH   4   7
ENDBRANCH   1   3
BRANCH   1  43
ATOM     43  C15 non d ame     -31.960  12.016  25.969  0.00  0.00     0.240 C 
ATOM     44  O5  non d ame     -31.110  12.152  26.789  0.00  0.00    -0.271 OA
ATOM     45  N6  non d ame     -32.028  12.950  24.809  0.00  0.00    -0.355 N 
ATOM     46  H46 non d ame     -32.742  12.842  24.104  0.00  0.00     0.162 HD
BRANCH  45  47
ATOM     47  C20 non d ame     -31.040  14.044  24.691  0.00  0.00     0.013 C 
ATOM     48  H30 non d ame     -30.283  13.898  25.462  0.00  0.00     0.072 H 
BRANCH  47  49
ATOM     49  C21 non d ame     -31.736  15.371  24.895  0.00  0.00    -0.038 C 
ATOM     50  H31 non d ame     -31.075  16.121  24.459  0.00  0.00     0.036 H 
ATOM     51  H32 non d ame     -32.744  15.237  24.503  0.00  0.00     0.036 H 
BRANCH  49  52
ATOM     52  C22 non d ame     -31.893  15.741  26.386  0.00  0.00     0.018 C 
ATOM     53  H33 non d ame     -31.118  15.185  26.912  0.00  0.00     0.048 H 
ATOM     54  H34 non d ame     -31.899  16.831  26.420  0.00  0.00     0.048 H 
BRANCH  52  55
ATOM     55  C23 non d ame     -33.243  15.285  27.006  0.00  0.00     0.259 C 
ATOM     56  O7  non d ame     -34.084  14.794  26.325  0.00  0.00    -0.265 OA
BRANCH  55  57
ATOM     57  O8  non d ame     -33.469  15.473  28.398  0.00  0.00    -0.317 OA
BRANCH  57  58
ATOM     58  C29 non d ame     -32.282  15.413  29.194  0.00  0.00     0.052 C 
ATOM     59  H47 non d ame     -31.463  15.664  28.521  0.00  0.00     0.082 H 
ATOM     60  H48 non d ame     -32.481  16.034  30.067  0.00  0.00     0.082 H 
BRANCH  58  61
ATOM     61  C35 non d ame     -32.097  13.946  29.668  0.00  0.00    -0.034 A 
ATOM     62  C30 non d ame     -33.134  13.030  29.518  0.00  0.00    -0.075 A 
ATOM     63  C31 non d ame     -32.968  11.713  29.944  0.00  0.00    -0.082 A 
ATOM     64  H49 non d ame     -34.076  13.344  29.069  0.00  0.00     0.084 H 
ATOM     65  C32 non d ame     -31.760  11.314  30.523  0.00  0.00    -0.083 A 
ATOM     66  H50 non d ame     -33.781  10.997  29.824  0.00  0.00     0.083 H 
ATOM     67  C33 non d ame     -30.730  12.232  30.673  0.00  0.00    -0.082 A 
ATOM     68  H51 non d ame     -31.622  10.286  30.858  0.00  0.00     0.083 H 
ATOM     69  C34 non d ame     -30.891  13.549  30.247  0.00  0.00    -0.075 A 
ATOM     70  H52 non d ame     -29.790  11.918  31.128  0.00  0.00     0.083 H 
ATOM     71  H53 non d ame     -30.077  14.265  30.368  0.00  0.00     0.084 H 
ENDBRANCH  58  61
ENDBRANCH  57  58
ENDBRANCH  55  57
ENDBRANCH  52  55
ENDBRANCH  49  52
ENDBRANCH  47  49
BRANCH  47  72
ATOM     72  C24 non d ame     -30.398  14.013  23.305  0.00  0.00    -0.039 C 
ATOM     73  H35 non d ame     -29.417  13.561  23.450  0.00  0.00     0.036 H 
ATOM     74  H36 non d ame     -31.130  13.530  22.657  0.00  0.00     0.036 H 
BRANCH  72  75
ATOM     75  C25 non d ame     -30.159  15.489  22.730  0.00  0.00    -0.001 C 
ATOM     76  C26 non d ame     -31.244  15.807  21.535  0.00  0.00    -0.035 C 
ATOM     77  C27 non d ame     -30.574  16.253  20.445  0.00  0.00     0.085 C 
ATOM     78  H38 non d ame     -31.703  14.881  21.191  0.00  0.00     0.036 H 
ATOM     79  H39 non d ame     -31.869  16.655  21.815  0.00  0.00     0.036 H 
ATOM     80  N5  non d ame     -29.111  15.958  20.674  0.00  0.00    -0.049 N 
ATOM     81  H40 non d ame     -30.934  15.646  19.615  0.00  0.00     0.075 H 
ATOM     82  H41 non d ame     -30.721  17.333  20.435  0.00  0.00     0.075 H 
ATOM     83  C28 non d ame     -28.968  15.615  22.245  0.00  0.00     0.193 C 
ATOM     84  H42 non d ame     -28.900  15.126  20.143  0.00  0.00     0.280 HD
ATOM     85  H43 non d ame     -28.614  16.817  20.486  0.00  0.00     0.280 HD
ATOM     86  H44 non d ame     -28.549  16.346  22.936  0.00  0.00     0.129 H 
ATOM     87  H37 non d ame     -30.063  16.231  23.523  0.00  0.00     0.046 H 
BRANCH  83  88
ATOM     88  O6  non d ame     -28.187  14.431  22.422  0.00  0.00    -0.369 OA
ATOM     89  H45 non d ame     -28.261  14.132  23.331  0.00  0.00     0.212 HD
ENDBRANCH  83  88
ENDBRANCH  72  75
ENDBRANCH  47  72
ENDBRANCH  45  47
ENDBRANCH   1  43
BRANCH   1  90
ATOM     90  C16 non d ame     -32.425   9.594  25.485  0.00  0.00    -0.035 C 
ATOM     91  H21 non d ame     -31.349   9.650  25.642  0.00  0.00     0.037 H 
ATOM     92  H22 non d ame     -32.998   8.776  25.923  0.00  0.00     0.037 H 
BRANCH  90  93
ATOM     93  C17 non d ame     -32.640   9.506  23.940  0.00  0.00    -0.059 C 
ATOM     94  H23 non d ame     -33.302  10.322  23.651  0.00  0.00     0.038 H 
BRANCH  93  95
ATOM     95  C18 non d ame     -31.304   9.673  23.149  0.00  0.00    -0.073 C 
ATOM     96  H24 non d ame     -30.741  10.511  23.558  0.00  0.00     0.028 H 
ATOM     97  H25 non d ame     -30.713   8.761  23.237  0.00  0.00     0.028 H 
ATOM     98  H26 non d ame     -31.525   9.862  22.099  0.00  0.00     0.028 H 
ENDBRANCH  93  95
BRANCH  93  99
ATOM     99  C19 non d ame     -33.339   8.198  23.559  0.00  0.00    -0.073 C 
ATOM    100  H27 non d ame     -34.040   8.384  22.745  0.00  0.00     0.028 H 
ATOM    101  H28 non d ame     -32.596   7.468  23.239  0.00  0.00     0.028 H 
ATOM    102  H29 non d ame     -33.880   7.810  24.422  0.00  0.00     0.028 H 
ENDBRANCH  93  99
ENDBRANCH  90  93
ENDBRANCH   1  90
TORSDOF 26
ENDMDL
MODEL 18
REMARK VINA RESULT:      -6.5      1.915      8.416
REMARK  26 active torsions:
REMARK  status: ('A' for Active; 'I' for Inactive)
REMARK    1  A    between atoms: C2_2  and  C3_3 
REMARK    2  A    between atoms: C4_6  and  C5_7 
REMARK       I    between atoms: C5_7  and  N2_9 
REMARK    3  A    between atoms: N2_9  and  C6_10 
REMARK    4  A    between atoms: C6_10  and  C7_11 
REMARK    5  A    between atoms: C6_10  and  C8_13 
REMARK       I    between atoms: C7_11  and  N3_14 
REMARK    6  A    between atoms: N3_14  and  C9_15 
REMARK    7  A    between atoms: C9_15  and  C10_16 
REMARK    8  A    between atoms: C9_15  and  C11_18 
REMARK       I    between atoms: C10_16  and  N4_21 
REMARK    9  A    between atoms: C11_18  and  C12_19 
REMARK   10  A    between atoms: C11_18  and  C13_20 
REMARK   11  A    between atoms: N4_21  and  C14_22 
REMARK   12  A    between atoms: C14_22  and  C15_23 
REMARK   13  A    between atoms: C14_22  and  C16_25 
REMARK       I    between atoms: C15_23  and  N6_40 
REMARK   14  A    between atoms: C16_25  and  C17_26 
REMARK   15  A    between atoms: C17_26  and  C18_27 
REMARK   16  A    between atoms: C17_26  and  C19_28 
REMARK   17  A    between atoms: C20_29  and  C21_30 
REMARK   18  A    between atoms: C20_29  and  C24_33 
REMARK   19  A    between atoms: C20_29  and  N6_40 
REMARK   20  A    between atoms: C21_30  and  C22_31 
REMARK   21  A    between atoms: C22_31  and  C23_32 
REMARK   22  A    between atoms: C23_32  and  O8_43 
REMARK   23  A    between atoms: C24_33  and  C25_34 
REMARK   24  A    between atoms: C28_38  and  O6_39 
REMARK   25  A    between atoms: C29_42  and  O8_43 
REMARK   26  A    between atoms: C29_42  and  C35_49 
ROOT
ATOM      1  C14 non d ame     -37.577  13.610  25.229  0.00  0.00     0.089 C 
ATOM      2  H20 non d ame     -38.562  13.657  25.695  0.00  0.00     0.087 H 
ENDROOT
BRANCH   1   3
ATOM      3  N4  non d ame     -36.980  14.933  25.332  0.00  0.00    -0.346 N 
ATOM      4  C10 non d ame     -37.523  15.940  26.315  0.00  0.00     0.241 C 
ATOM      5  O4  non d ame     -38.444  15.663  27.010  0.00  0.00    -0.271 OA
ATOM      6  H19 non d ame     -36.198  15.150  24.730  0.00  0.00     0.163 HD
BRANCH   4   7
ATOM      7  C9  non d ame     -36.889  17.303  26.413  0.00  0.00     0.092 C 
ATOM      8  H11 non d ame     -37.280  17.818  27.290  0.00  0.00     0.088 H 
BRANCH   7   9
ATOM      9  N3  non d ame     -35.443  17.156  26.605  0.00  0.00    -0.346 N 
ATOM     10  C7  non d ame     -34.781  17.877  27.664  0.00  0.00     0.240 C 
ATOM     11  O3  non d ame     -35.395  18.579  28.370  0.00  0.00    -0.271 OA
ATOM     12  H10 non d ame     -34.899  16.555  26.002  0.00  0.00     0.163 HD
BRANCH  10  13
ATOM     13  C6  non d ame     -33.241  17.720  27.862  0.00  0.00     0.086 C 
ATOM     14  H6  non d ame     -32.864  18.290  28.711  0.00  0.00     0.086 H 
BRANCH  13  15
ATOM     15  N2  non d ame     -32.940  16.324  28.132  0.00  0.00    -0.343 N 
ATOM     16  C5  non d ame     -32.149  15.972  29.314  0.00  0.00     0.273 C 
ATOM     17  O2  non d ame     -31.757  16.819  30.038  0.00  0.00    -0.266 OA
ATOM     18  H5  non d ame     -33.277  15.606  27.506  0.00  0.00     0.163 HD
BRANCH  16  19
ATOM     19  C4  non d ame     -31.825  14.500  29.613  0.00  0.00     0.154 A 
ATOM     20  C1  non d ame     -32.741  13.401  29.638  0.00  0.00    -0.017 A 
ATOM     21  C2  non d ame     -31.950  12.275  29.960  0.00  0.00     0.077 A 
ATOM     22  H1  non d ame     -33.815  13.417  29.451  0.00  0.00     0.091 H 
ATOM     23  O1  non d ame     -30.725  12.690  30.100  0.00  0.00    -0.218 OA
ATOM     24  N1  non d ame     -30.627  13.985  29.903  0.00  0.00    -0.123 NA
BRANCH  21  25
ATOM     25  C3  non d ame     -32.442  10.842  30.113  0.00  0.00    -0.029 C 
ATOM     26  H2  non d ame     -31.623  10.212  30.458  0.00  0.00     0.036 H 
ATOM     27  H3  non d ame     -33.254  10.812  30.838  0.00  0.00     0.036 H 
ATOM     28  H4  non d ame     -32.801  10.476  29.151  0.00  0.00     0.036 H 
ENDBRANCH  21  25
ENDBRANCH  16  19
ENDBRANCH  13  15
BRANCH  13  29
ATOM     29  C8  non d ame     -32.523  18.170  26.615  0.00  0.00    -0.049 C 
ATOM     30  H7  non d ame     -31.640  17.549  26.460  0.00  0.00     0.030 H 
ATOM     31  H8  non d ame     -33.189  18.075  25.758  0.00  0.00     0.030 H 
ATOM     32  H9  non d ame     -32.219  19.211  26.726  0.00  0.00     0.030 H 
ENDBRANCH  13  29
ENDBRANCH  10  13
ENDBRANCH   7   9
BRANCH   7  33
ATOM     33  C11 non d ame     -37.158  18.095  25.100  0.00  0.00    -0.033 C 
ATOM     34  H12 non d ame     -36.464  17.724  24.344  0.00  0.00     0.042 H 
BRANCH  33  35
ATOM     35  C12 non d ame     -38.605  17.845  24.571  0.00  0.00    -0.071 C 
ATOM     36  H13 non d ame     -39.201  17.374  25.353  0.00  0.00     0.028 H 
ATOM     37  H14 non d ame     -39.058  18.796  24.291  0.00  0.00     0.028 H 
ATOM     38  H15 non d ame     -38.565  17.190  23.701  0.00  0.00     0.028 H 
ENDBRANCH  33  35
BRANCH  33  39
ATOM     39  C13 non d ame     -36.883  19.620  25.300  0.00  0.00    -0.071 C 
ATOM     40  H16 non d ame     -36.491  20.043  24.375  0.00  0.00     0.028 H 
ATOM     41  H17 non d ame     -37.812  20.124  25.566  0.00  0.00     0.028 H 
ATOM     42  H18 non d ame     -36.155  19.756  26.100  0.00  0.00     0.028 H 
ENDBRANCH  33  39
ENDBRANCH   7  33
ENDBRANCH   4   7
ENDBRANCH   1   3
BRANCH   1  43
ATOM     43  C15 non d ame     -36.641  12.588  25.935  0.00  0.00     0.240 C 
ATOM     44  O5  non d ame     -36.784  12.357  27.092  0.00  0.00    -0.271 OA
ATOM     45  N6  non d ame     -35.572  11.890  25.166  0.00  0.00    -0.355 N 
ATOM     46  H46 non d ame     -35.444  12.074  24.181  0.00  0.00     0.162 HD
BRANCH  45  47
ATOM     47  C20 non d ame     -34.691  10.919  25.851  0.00  0.00     0.013 C 
ATOM     48  H30 non d ame     -35.307  10.327  26.528  0.00  0.00     0.072 H 
BRANCH  47  49
ATOM     49  C21 non d ame     -33.636  11.667  26.633  0.00  0.00    -0.038 C 
ATOM     50  H31 non d ame     -34.180  12.366  27.269  0.00  0.00     0.036 H 
ATOM     51  H32 non d ame     -33.003  10.901  27.081  0.00  0.00     0.036 H 
BRANCH  49  52
ATOM     52  C22 non d ame     -32.716  12.522  25.734  0.00  0.00     0.018 C 
ATOM     53  H33 non d ame     -31.705  12.355  26.103  0.00  0.00     0.048 H 
ATOM     54  H34 non d ame     -32.974  12.253  24.709  0.00  0.00     0.048 H 
BRANCH  52  55
ATOM     55  C23 non d ame     -32.969  14.050  25.852  0.00  0.00     0.259 C 
ATOM     56  O7  non d ame     -34.050  14.464  26.118  0.00  0.00    -0.265 OA
BRANCH  55  57
ATOM     57  O8  non d ame     -31.893  14.953  25.626  0.00  0.00    -0.317 OA
BRANCH  57  58
ATOM     58  C29 non d ame     -30.711  14.334  25.110  0.00  0.00     0.052 C 
ATOM     59  H47 non d ame     -29.880  14.793  25.646  0.00  0.00     0.082 H 
ATOM     60  H48 non d ame     -30.883  13.261  25.186  0.00  0.00     0.082 H 
BRANCH  58  61
ATOM     61  C35 non d ame     -30.593  14.707  23.608  0.00  0.00    -0.034 A 
ATOM     62  C30 non d ame     -29.895  13.876  22.738  0.00  0.00    -0.075 A 
ATOM     63  C31 non d ame     -29.788  14.211  21.389  0.00  0.00    -0.082 A 
ATOM     64  H49 non d ame     -29.432  12.963  23.112  0.00  0.00     0.084 H 
ATOM     65  C32 non d ame     -30.379  15.384  20.911  0.00  0.00    -0.083 A 
ATOM     66  H50 non d ame     -29.241  13.557  20.708  0.00  0.00     0.083 H 
ATOM     67  C33 non d ame     -31.072  16.211  21.785  0.00  0.00    -0.082 A 
ATOM     68  H51 non d ame     -30.301  15.652  19.858  0.00  0.00     0.083 H 
ATOM     69  C34 non d ame     -31.183  15.880  23.133  0.00  0.00    -0.075 A 
ATOM     70  H52 non d ame     -31.531  17.127  21.410  0.00  0.00     0.083 H 
ATOM     71  H53 non d ame     -31.730  16.534  23.813  0.00  0.00     0.084 H 
ENDBRANCH  58  61
ENDBRANCH  57  58
ENDBRANCH  55  57
ENDBRANCH  52  55
ENDBRANCH  49  52
ENDBRANCH  47  49
BRANCH  47  72
ATOM     72  C24 non d ame     -34.017  10.016  24.820  0.00  0.00    -0.039 C 
ATOM     73  H35 non d ame     -34.718   9.954  23.987  0.00  0.00     0.036 H 
ATOM     74  H36 non d ame     -33.025  10.440  24.668  0.00  0.00     0.036 H 
BRANCH  72  75
ATOM     75  C25 non d ame     -33.815   8.528  25.378  0.00  0.00    -0.001 C 
ATOM     76  C26 non d ame     -34.398   8.421  26.912  0.00  0.00    -0.035 C 
ATOM     77  C27 non d ame     -33.444   7.877  27.705  0.00  0.00     0.085 C 
ATOM     78  H38 non d ame     -34.537   9.418  27.329  0.00  0.00     0.036 H 
ATOM     79  H39 non d ame     -35.209   7.694  26.955  0.00  0.00     0.036 H 
ATOM     80  N5  non d ame     -32.152   7.905  26.924  0.00  0.00    -0.049 N 
ATOM     81  H40 non d ame     -33.357   8.548  28.559  0.00  0.00     0.075 H 
ATOM     82  H41 non d ame     -33.746   6.841  27.854  0.00  0.00     0.075 H 
ATOM     83  C28 non d ame     -32.566   8.199  25.391  0.00  0.00     0.193 C 
ATOM     84  H42 non d ame     -31.625   8.693  27.271  0.00  0.00     0.280 HD
ATOM     85  H43 non d ame     -31.765   6.973  26.979  0.00  0.00     0.280 HD
ATOM     86  H44 non d ame     -32.565   7.396  24.654  0.00  0.00     0.129 H 
ATOM     87  H37 non d ame     -34.148   7.771  24.668  0.00  0.00     0.046 H 
BRANCH  83  88
ATOM     88  O6  non d ame     -31.734   9.223  24.844  0.00  0.00    -0.369 OA
ATOM     89  H45 non d ame     -30.922   8.832  24.512  0.00  0.00     0.212 HD
ENDBRANCH  83  88
ENDBRANCH  72  75
ENDBRANCH  47  72
ENDBRANCH  45  47
ENDBRANCH   1  43
BRANCH   1  90
ATOM     90  C16 non d ame     -37.720  13.244  23.760  0.00  0.00    -0.035 C 
ATOM     91  H21 non d ame     -36.706  13.046  23.413  0.00  0.00     0.037 H 
ATOM     92  H22 non d ame     -38.470  12.454  23.732  0.00  0.00     0.037 H 
BRANCH  90  93
ATOM     93  C17 non d ame     -38.269  14.407  22.875  0.00  0.00    -0.059 C 
ATOM     94  H23 non d ame     -37.862  15.340  23.264  0.00  0.00     0.038 H 
BRANCH  93  95
ATOM     95  C18 non d ame     -37.820  14.276  21.384  0.00  0.00    -0.073 C 
ATOM     96  H24 non d ame     -36.761  14.025  21.344  0.00  0.00     0.028 H 
ATOM     97  H25 non d ame     -38.397  13.489  20.898  0.00  0.00     0.028 H 
ATOM     98  H26 non d ame     -37.990  15.221  20.869  0.00  0.00     0.028 H 
ENDBRANCH  93  95
BRANCH  93  99
ATOM     99  C19 non d ame     -39.794  14.499  22.978  0.00  0.00    -0.073 C 
ATOM    100  H27 non d ame     -40.249  13.832  22.245  0.00  0.00     0.028 H 
ATOM    101  H28 non d ame     -40.109  14.206  23.980  0.00  0.00     0.028 H 
ATOM    102  H29 non d ame     -40.110  15.524  22.784  0.00  0.00     0.028 H 
ENDBRANCH  93  99
ENDBRANCH  90  93
ENDBRANCH   1  90
TORSDOF 26
ENDMDL
MODEL 19
REMARK VINA RESULT:      -6.4      2.639      7.641
REMARK  26 active torsions:
REMARK  status: ('A' for Active; 'I' for Inactive)
REMARK    1  A    between atoms: C2_2  and  C3_3 
REMARK    2  A    between atoms: C4_6  and  C5_7 
REMARK       I    between atoms: C5_7  and  N2_9 
REMARK    3  A    between atoms: N2_9  and  C6_10 
REMARK    4  A    between atoms: C6_10  and  C7_11 
REMARK    5  A    between atoms: C6_10  and  C8_13 
REMARK       I    between atoms: C7_11  and  N3_14 
REMARK    6  A    between atoms: N3_14  and  C9_15 
REMARK    7  A    between atoms: C9_15  and  C10_16 
REMARK    8  A    between atoms: C9_15  and  C11_18 
REMARK       I    between atoms: C10_16  and  N4_21 
REMARK    9  A    between atoms: C11_18  and  C12_19 
REMARK   10  A    between atoms: C11_18  and  C13_20 
REMARK   11  A    between atoms: N4_21  and  C14_22 
REMARK   12  A    between atoms: C14_22  and  C15_23 
REMARK   13  A    between atoms: C14_22  and  C16_25 
REMARK       I    between atoms: C15_23  and  N6_40 
REMARK   14  A    between atoms: C16_25  and  C17_26 
REMARK   15  A    between atoms: C17_26  and  C18_27 
REMARK   16  A    between atoms: C17_26  and  C19_28 
REMARK   17  A    between atoms: C20_29  and  C21_30 
REMARK   18  A    between atoms: C20_29  and  C24_33 
REMARK   19  A    between atoms: C20_29  and  N6_40 
REMARK   20  A    between atoms: C21_30  and  C22_31 
REMARK   21  A    between atoms: C22_31  and  C23_32 
REMARK   22  A    between atoms: C23_32  and  O8_43 
REMARK   23  A    between atoms: C24_33  and  C25_34 
REMARK   24  A    between atoms: C28_38  and  O6_39 
REMARK   25  A    between atoms: C29_42  and  O8_43 
REMARK   26  A    between atoms: C29_42  and  C35_49 
ROOT
ATOM      1  C14 non d ame     -31.247  14.607  24.178  0.00  0.00     0.089 C 
ATOM      2  H20 non d ame     -30.254  14.676  24.623  0.00  0.00     0.087 H 
ENDROOT
BRANCH   1   3
ATOM      3  N4  non d ame     -31.538  13.195  23.976  0.00  0.00    -0.346 N 
ATOM      4  C10 non d ame     -31.337  12.208  25.098  0.00  0.00     0.241 C 
ATOM      5  O4  non d ame     -30.936  12.572  26.153  0.00  0.00    -0.271 OA
ATOM      6  H19 non d ame     -31.876  12.905  23.069  0.00  0.00     0.163 HD
BRANCH   4   7
ATOM      7  C9  non d ame     -31.649  10.752  24.873  0.00  0.00     0.092 C 
ATOM      8  H11 non d ame     -31.040  10.146  25.544  0.00  0.00     0.088 H 
BRANCH   7   9
ATOM      9  N3  non d ame     -33.052  10.495  25.211  0.00  0.00    -0.346 N 
ATOM     10  C7  non d ame     -33.389   9.885  26.474  0.00  0.00     0.240 C 
ATOM     11  O3  non d ame     -32.544   9.594  27.229  0.00  0.00    -0.271 OA
ATOM     12  H10 non d ame     -33.793  10.739  24.568  0.00  0.00     0.163 HD
BRANCH  10  13
ATOM     13  C6  non d ame     -34.884   9.611  26.826  0.00  0.00     0.086 C 
ATOM     14  H6  non d ame     -35.393   9.013  26.070  0.00  0.00     0.086 H 
BRANCH  13  15
ATOM     15  N2  non d ame     -34.945   8.854  28.066  0.00  0.00    -0.343 N 
ATOM     16  C5  non d ame     -35.766   7.643  28.131  0.00  0.00     0.273 C 
ATOM     17  O2  non d ame     -36.375   7.288  27.183  0.00  0.00    -0.266 OA
ATOM     18  H5  non d ame     -34.423   9.166  28.872  0.00  0.00     0.163 HD
BRANCH  16  19
ATOM     19  C4  non d ame     -35.838   6.831  29.434  0.00  0.00     0.154 A 
ATOM     20  C1  non d ame     -34.749   6.223  30.136  0.00  0.00    -0.017 A 
ATOM     21  C2  non d ame     -35.341   5.605  31.260  0.00  0.00     0.077 A 
ATOM     22  H1  non d ame     -33.692   6.229  29.870  0.00  0.00     0.091 H 
ATOM     23  O1  non d ame     -36.619   5.838  31.202  0.00  0.00    -0.218 OA
ATOM     24  N1  non d ame     -36.934   6.552  30.146  0.00  0.00    -0.123 NA
BRANCH  21  25
ATOM     25  C3  non d ame     -34.615   4.813  32.339  0.00  0.00    -0.029 C 
ATOM     26  H2  non d ame     -34.838   5.241  33.316  0.00  0.00     0.036 H 
ATOM     27  H3  non d ame     -34.947   3.775  32.313  0.00  0.00     0.036 H 
ATOM     28  H4  non d ame     -33.541   4.854  32.161  0.00  0.00     0.036 H 
ENDBRANCH  21  25
ENDBRANCH  16  19
ENDBRANCH  13  15
BRANCH  13  29
ATOM     29  C8  non d ame     -35.614  10.920  26.985  0.00  0.00    -0.049 C 
ATOM     30  H7  non d ame     -35.298  11.610  26.202  0.00  0.00     0.030 H 
ATOM     31  H8  non d ame     -36.687  10.750  26.906  0.00  0.00     0.030 H 
ATOM     32  H9  non d ame     -35.385  11.349  27.961  0.00  0.00     0.030 H 
ENDBRANCH  13  29
ENDBRANCH  10  13
ENDBRANCH   7   9
BRANCH   7  33
ATOM     33  C11 non d ame     -31.405  10.394  23.377  0.00  0.00    -0.033 C 
ATOM     34  H12 non d ame     -31.641  11.278  22.785  0.00  0.00     0.042 H 
BRANCH  33  35
ATOM     35  C12 non d ame     -29.908  10.039  23.115  0.00  0.00    -0.071 C 
ATOM     36  H13 non d ame     -29.775   9.774  22.066  0.00  0.00     0.028 H 
ATOM     37  H14 non d ame     -29.284  10.900  23.354  0.00  0.00     0.028 H 
ATOM     38  H15 non d ame     -29.619   9.196  23.742  0.00  0.00     0.028 H 
ENDBRANCH  33  35
BRANCH  33  39
ATOM     39  C13 non d ame     -32.350   9.237  22.917  0.00  0.00    -0.071 C 
ATOM     40  H16 non d ame     -32.100   8.326  23.462  0.00  0.00     0.028 H 
ATOM     41  H17 non d ame     -33.385   9.511  23.121  0.00  0.00     0.028 H 
ATOM     42  H18 non d ame     -32.223   9.069  21.848  0.00  0.00     0.028 H 
ENDBRANCH  33  39
ENDBRANCH   7  33
ENDBRANCH   4   7
ENDBRANCH   1   3
BRANCH   1  43
ATOM     43  C15 non d ame     -32.346  15.213  25.097  0.00  0.00     0.240 C 
ATOM     44  O5  non d ame     -33.443  15.384  24.673  0.00  0.00    -0.271 OA
ATOM     45  N6  non d ame     -32.032  15.574  26.509  0.00  0.00    -0.355 N 
ATOM     46  H46 non d ame     -31.105  15.429  26.882  0.00  0.00     0.162 HD
BRANCH  45  47
ATOM     47  C20 non d ame     -33.089  16.148  27.370  0.00  0.00     0.013 C 
ATOM     48  H30 non d ame     -34.052  15.927  26.912  0.00  0.00     0.072 H 
BRANCH  47  49
ATOM     49  C21 non d ame     -32.894  17.644  27.470  0.00  0.00    -0.038 C 
ATOM     50  H31 non d ame     -33.180  17.912  28.487  0.00  0.00     0.036 H 
ATOM     51  H32 non d ame     -31.878  17.832  27.122  0.00  0.00     0.036 H 
BRANCH  49  52
ATOM     52  C22 non d ame     -33.830  18.434  26.530  0.00  0.00     0.018 C 
ATOM     53  H33 non d ame     -33.181  19.087  25.948  0.00  0.00     0.048 H 
ATOM     54  H34 non d ame     -34.444  17.686  26.027  0.00  0.00     0.048 H 
BRANCH  52  55
ATOM     55  C23 non d ame     -34.822  19.370  27.275  0.00  0.00     0.259 C 
ATOM     56  O7  non d ame     -35.108  19.164  28.410  0.00  0.00    -0.265 OA
BRANCH  55  57
ATOM     57  O8  non d ame     -35.395  20.471  26.582  0.00  0.00    -0.317 OA
BRANCH  57  58
ATOM     58  C29 non d ame     -36.816  20.566  26.714  0.00  0.00     0.052 C 
ATOM     59  H47 non d ame     -37.124  19.666  27.246  0.00  0.00     0.082 H 
ATOM     60  H48 non d ame     -37.007  21.547  27.149  0.00  0.00     0.082 H 
BRANCH  58  61
ATOM     61  C35 non d ame     -37.433  20.532  25.291  0.00  0.00    -0.034 A 
ATOM     62  C30 non d ame     -36.688  20.049  24.220  0.00  0.00    -0.075 A 
ATOM     63  C31 non d ame     -37.242  20.018  22.941  0.00  0.00    -0.082 A 
ATOM     64  H49 non d ame     -35.670  19.695  24.383  0.00  0.00     0.084 H 
ATOM     65  C32 non d ame     -38.546  20.475  22.734  0.00  0.00    -0.083 A 
ATOM     66  H50 non d ame     -36.656  19.637  22.104  0.00  0.00     0.083 H 
ATOM     67  C33 non d ame     -39.285  20.960  23.805  0.00  0.00    -0.082 A 
ATOM     68  H51 non d ame     -38.987  20.454  21.738  0.00  0.00     0.083 H 
ATOM     69  C34 non d ame     -38.736  20.990  25.086  0.00  0.00    -0.075 A 
ATOM     70  H52 non d ame     -40.302  21.318  23.640  0.00  0.00     0.083 H 
ATOM     71  H53 non d ame     -39.323  21.371  25.922  0.00  0.00     0.084 H 
ENDBRANCH  58  61
ENDBRANCH  57  58
ENDBRANCH  55  57
ENDBRANCH  52  55
ENDBRANCH  49  52
ENDBRANCH  47  49
BRANCH  47  72
ATOM     72  C24 non d ame     -33.011  15.530  28.765  0.00  0.00    -0.039 C 
ATOM     73  H35 non d ame     -32.852  16.367  29.445  0.00  0.00     0.036 H 
ATOM     74  H36 non d ame     -33.905  14.913  28.859  0.00  0.00     0.036 H 
BRANCH  72  75
ATOM     75  C25 non d ame     -31.747  14.556  28.912  0.00  0.00    -0.001 C 
ATOM     76  C26 non d ame     -32.252  13.038  29.294  0.00  0.00    -0.035 C 
ATOM     77  C27 non d ame     -31.564  12.610  30.380  0.00  0.00     0.085 C 
ATOM     78  H38 non d ame     -33.284  13.064  29.641  0.00  0.00     0.036 H 
ATOM     79  H39 non d ame     -31.956  12.338  28.513  0.00  0.00     0.036 H 
ATOM     80  N5  non d ame     -30.873  13.817  30.969  0.00  0.00    -0.049 N 
ATOM     81  H40 non d ame     -32.318  12.255  31.081  0.00  0.00     0.075 H 
ATOM     82  H41 non d ame     -30.811  11.923  29.995  0.00  0.00     0.075 H 
ATOM     83  C28 non d ame     -30.946  14.966  29.837  0.00  0.00     0.193 C 
ATOM     84  H42 non d ame     -31.431  14.108  31.759  0.00  0.00     0.280 HD
ATOM     85  H43 non d ame     -29.907  13.556  31.101  0.00  0.00     0.280 HD
ATOM     86  H44 non d ame     -30.066  15.214  29.242  0.00  0.00     0.129 H 
ATOM     87  H37 non d ame     -31.053  14.652  28.077  0.00  0.00     0.046 H 
BRANCH  83  88
ATOM     88  O6  non d ame     -31.376  16.200  30.415  0.00  0.00    -0.369 OA
ATOM     89  H45 non d ame     -31.197  16.192  31.358  0.00  0.00     0.212 HD
ENDBRANCH  83  88
ENDBRANCH  72  75
ENDBRANCH  47  72
ENDBRANCH  45  47
ENDBRANCH   1  43
BRANCH   1  90
ATOM     90  C16 non d ame     -31.259  15.313  22.832  0.00  0.00    -0.035 C 
ATOM     91  H21 non d ame     -32.257  15.148  22.428  0.00  0.00     0.037 H 
ATOM     92  H22 non d ame     -30.915  16.328  23.035  0.00  0.00     0.037 H 
BRANCH  90  93
ATOM     93  C17 non d ame     -30.258  14.707  21.797  0.00  0.00    -0.059 C 
ATOM     94  H23 non d ame     -30.412  13.628  21.781  0.00  0.00     0.038 H 
BRANCH  93  95
ATOM     95  C18 non d ame     -30.507  15.245  20.352  0.00  0.00    -0.073 C 
ATOM     96  H24 non d ame     -31.537  15.041  20.060  0.00  0.00     0.028 H 
ATOM     97  H25 non d ame     -30.331  16.321  20.329  0.00  0.00     0.028 H 
ATOM     98  H26 non d ame     -29.828  14.751  19.658  0.00  0.00     0.028 H 
ENDBRANCH  93  95
BRANCH  93  99
ATOM     99  C19 non d ame     -28.810  14.953  22.228  0.00  0.00    -0.073 C 
ATOM    100  H27 non d ame     -28.295  15.531  21.460  0.00  0.00     0.028 H 
ATOM    101  H28 non d ame     -28.799  15.507  23.167  0.00  0.00     0.028 H 
ATOM    102  H29 non d ame     -28.304  13.998  22.364  0.00  0.00     0.028 H 
ENDBRANCH  93  99
ENDBRANCH  90  93
ENDBRANCH   1  90
TORSDOF 26
ENDMDL
MODEL 20
REMARK VINA RESULT:      -6.3      3.689      9.334
REMARK  26 active torsions:
REMARK  status: ('A' for Active; 'I' for Inactive)
REMARK    1  A    between atoms: C2_2  and  C3_3 
REMARK    2  A    between atoms: C4_6  and  C5_7 
REMARK       I    between atoms: C5_7  and  N2_9 
REMARK    3  A    between atoms: N2_9  and  C6_10 
REMARK    4  A    between atoms: C6_10  and  C7_11 
REMARK    5  A    between atoms: C6_10  and  C8_13 
REMARK       I    between atoms: C7_11  and  N3_14 
REMARK    6  A    between atoms: N3_14  and  C9_15 
REMARK    7  A    between atoms: C9_15  and  C10_16 
REMARK    8  A    between atoms: C9_15  and  C11_18 
REMARK       I    between atoms: C10_16  and  N4_21 
REMARK    9  A    between atoms: C11_18  and  C12_19 
REMARK   10  A    between atoms: C11_18  and  C13_20 
REMARK   11  A    between atoms: N4_21  and  C14_22 
REMARK   12  A    between atoms: C14_22  and  C15_23 
REMARK   13  A    between atoms: C14_22  and  C16_25 
REMARK       I    between atoms: C15_23  and  N6_40 
REMARK   14  A    between atoms: C16_25  and  C17_26 
REMARK   15  A    between atoms: C17_26  and  C18_27 
REMARK   16  A    between atoms: C17_26  and  C19_28 
REMARK   17  A    between atoms: C20_29  and  C21_30 
REMARK   18  A    between atoms: C20_29  and  C24_33 
REMARK   19  A    between atoms: C20_29  and  N6_40 
REMARK   20  A    between atoms: C21_30  and  C22_31 
REMARK   21  A    between atoms: C22_31  and  C23_32 
REMARK   22  A    between atoms: C23_32  and  O8_43 
REMARK   23  A    between atoms: C24_33  and  C25_34 
REMARK   24  A    between atoms: C28_38  and  O6_39 
REMARK   25  A    between atoms: C29_42  and  O8_43 
REMARK   26  A    between atoms: C29_42  and  C35_49 
ROOT
ATOM      1  C14 non d ame     -34.888   8.417  31.229  0.00  0.00     0.089 C 
ATOM      2  H20 non d ame     -34.449   8.432  32.227  0.00  0.00     0.087 H 
ENDROOT
BRANCH   1   3
ATOM      3  N4  non d ame     -33.996   9.153  30.346  0.00  0.00    -0.346 N 
ATOM      4  C10 non d ame     -33.464  10.504  30.754  0.00  0.00     0.241 C 
ATOM      5  O4  non d ame     -33.771  10.980  31.797  0.00  0.00    -0.271 OA
ATOM      6  H19 non d ame     -33.748   8.731  29.462  0.00  0.00     0.163 HD
BRANCH   4   7
ATOM      7  C9  non d ame     -32.537  11.249  29.830  0.00  0.00     0.092 C 
ATOM      8  H11 non d ame     -31.883  10.536  29.327  0.00  0.00     0.088 H 
BRANCH   7   9
ATOM      9  N3  non d ame     -33.321  11.926  28.792  0.00  0.00    -0.346 N 
ATOM     10  C7  non d ame     -33.546  11.280  27.523  0.00  0.00     0.240 C 
ATOM     11  O3  non d ame     -33.102  10.216  27.319  0.00  0.00    -0.271 OA
ATOM     12  H10 non d ame     -33.708  12.845  28.953  0.00  0.00     0.163 HD
BRANCH  10  13
ATOM     13  C6  non d ame     -34.378  12.007  26.421  0.00  0.00     0.086 C 
ATOM     14  H6  non d ame     -35.035  12.775  26.827  0.00  0.00     0.086 H 
BRANCH  13  15
ATOM     15  N2  non d ame     -33.467  12.678  25.508  0.00  0.00    -0.343 N 
ATOM     16  C5  non d ame     -32.945  14.001  25.854  0.00  0.00     0.273 C 
ATOM     17  O2  non d ame     -33.266  14.519  26.867  0.00  0.00    -0.266 OA
ATOM     18  H5  non d ame     -33.201  12.229  24.643  0.00  0.00     0.163 HD
BRANCH  16  19
ATOM     19  C4  non d ame     -31.980  14.722  24.899  0.00  0.00     0.154 A 
ATOM     20  C1  non d ame     -30.868  14.152  24.202  0.00  0.00    -0.017 A 
ATOM     21  C2  non d ame     -30.315  15.223  23.464  0.00  0.00     0.077 A 
ATOM     22  H1  non d ame     -30.516  13.121  24.227  0.00  0.00     0.091 H 
ATOM     23  O1  non d ame     -31.034  16.278  23.714  0.00  0.00    -0.218 OA
ATOM     24  N1  non d ame     -32.011  16.011  24.549  0.00  0.00    -0.123 NA
BRANCH  21  25
ATOM     25  C3  non d ame     -29.103  15.153  22.545  0.00  0.00    -0.029 C 
ATOM     26  H2  non d ame     -29.434  15.036  21.514  0.00  0.00     0.036 H 
ATOM     27  H3  non d ame     -28.523  16.071  22.638  0.00  0.00     0.036 H 
ATOM     28  H4  non d ame     -28.482  14.302  22.826  0.00  0.00     0.036 H 
ENDBRANCH  21  25
ENDBRANCH  16  19
ENDBRANCH  13  15
BRANCH  13  29
ATOM     29  C8  non d ame     -35.212  10.999  25.671  0.00  0.00    -0.049 C 
ATOM     30  H7  non d ame     -34.962  11.038  24.611  0.00  0.00     0.030 H 
ATOM     31  H8  non d ame     -35.008  10.001  26.056  0.00  0.00     0.030 H 
ATOM     32  H9  non d ame     -36.269  11.232  25.803  0.00  0.00     0.030 H 
ENDBRANCH  13  29
ENDBRANCH  10  13
ENDBRANCH   7   9
BRANCH   7  33
ATOM     33  C11 non d ame     -31.735  12.307  30.643  0.00  0.00    -0.033 C 
ATOM     34  H12 non d ame     -32.274  12.485  31.573  0.00  0.00     0.042 H 
BRANCH  33  35
ATOM     35  C12 non d ame     -30.315  11.778  31.018  0.00  0.00    -0.071 C 
ATOM     36  H13 non d ame     -30.410  10.852  31.586  0.00  0.00     0.028 H 
ATOM     37  H14 non d ame     -29.746  11.589  30.108  0.00  0.00     0.028 H 
ATOM     38  H15 non d ame     -29.798  12.523  31.623  0.00  0.00     0.028 H 
ENDBRANCH  33  35
BRANCH  33  39
ATOM     39  C13 non d ame     -31.648  13.660  29.868  0.00  0.00    -0.071 C 
ATOM     40  H16 non d ame     -32.626  14.144  29.870  0.00  0.00     0.028 H 
ATOM     41  H17 non d ame     -30.920  14.311  30.352  0.00  0.00     0.028 H 
ATOM     42  H18 non d ame     -31.338  13.471  28.840  0.00  0.00     0.028 H 
ENDBRANCH  33  39
ENDBRANCH   7  33
ENDBRANCH   4   7
ENDBRANCH   1   3
BRANCH   1  43
ATOM     43  C15 non d ame     -35.048   6.970  30.679  0.00  0.00     0.240 C 
ATOM     44  O5  non d ame     -35.670   6.168  31.297  0.00  0.00    -0.271 OA
ATOM     45  N6  non d ame     -34.432   6.588  29.377  0.00  0.00    -0.355 N 
ATOM     46  H46 non d ame     -33.905   7.262  28.840  0.00  0.00     0.162 HD
BRANCH  45  47
ATOM     47  C20 non d ame     -34.593   5.209  28.867  0.00  0.00     0.013 C 
ATOM     48  H30 non d ame     -34.963   4.590  29.684  0.00  0.00     0.072 H 
BRANCH  47  49
ATOM     49  C21 non d ame     -33.254   4.692  28.391  0.00  0.00    -0.038 C 
ATOM     50  H31 non d ame     -32.507   5.322  28.874  0.00  0.00     0.036 H 
ATOM     51  H32 non d ame     -33.269   3.618  28.583  0.00  0.00     0.036 H 
BRANCH  49  52
ATOM     52  C22 non d ame     -33.052   4.861  26.870  0.00  0.00     0.018 C 
ATOM     53  H33 non d ame     -32.485   3.989  26.548  0.00  0.00     0.048 H 
ATOM     54  H34 non d ame     -34.044   5.049  26.459  0.00  0.00     0.048 H 
BRANCH  52  55
ATOM     55  C23 non d ame     -32.190   6.096  26.487  0.00  0.00     0.259 C 
ATOM     56  O7  non d ame     -32.043   6.991  27.255  0.00  0.00    -0.265 OA
BRANCH  55  57
ATOM     57  O8  non d ame     -31.587   6.153  25.200  0.00  0.00    -0.317 OA
BRANCH  57  58
ATOM     58  C29 non d ame     -32.402   6.774  24.202  0.00  0.00     0.052 C 
ATOM     59  H47 non d ame     -32.465   6.056  23.384  0.00  0.00     0.082 H 
ATOM     60  H48 non d ame     -33.307   7.094  24.717  0.00  0.00     0.082 H 
BRANCH  58  61
ATOM     61  C35 non d ame     -31.656   8.036  23.691  0.00  0.00    -0.034 A 
ATOM     62  C30 non d ame     -32.025   9.296  24.150  0.00  0.00    -0.075 A 
ATOM     63  C31 non d ame     -31.356  10.430  23.691  0.00  0.00    -0.082 A 
ATOM     64  H49 non d ame     -32.839   9.396  24.868  0.00  0.00     0.084 H 
ATOM     65  C32 non d ame     -30.315  10.299  22.768  0.00  0.00    -0.083 A 
ATOM     66  H50 non d ame     -31.647  11.416  24.054  0.00  0.00     0.083 H 
ATOM     67  C33 non d ame     -29.953   9.040  22.311  0.00  0.00    -0.082 A 
ATOM     68  H51 non d ame     -29.786  11.180  22.405  0.00  0.00     0.083 H 
ATOM     69  C34 non d ame     -30.618   7.904  22.768  0.00  0.00    -0.075 A 
ATOM     70  H52 non d ame     -29.141   8.942  21.589  0.00  0.00     0.083 H 
ATOM     71  H53 non d ame     -30.326   6.918  22.405  0.00  0.00     0.084 H 
ENDBRANCH  58  61
ENDBRANCH  57  58
ENDBRANCH  55  57
ENDBRANCH  52  55
ENDBRANCH  49  52
ENDBRANCH  47  49
BRANCH  47  72
ATOM     72  C24 non d ame     -35.585   5.201  27.705  0.00  0.00    -0.039 C 
ATOM     73  H35 non d ame     -35.943   6.228  27.622  0.00  0.00     0.036 H 
ATOM     74  H36 non d ame     -35.052   4.741  26.872  0.00  0.00     0.036 H 
BRANCH  72  75
ATOM     75  C25 non d ame     -36.857   4.280  28.018  0.00  0.00    -0.001 C 
ATOM     76  C26 non d ame     -36.879   2.989  27.000  0.00  0.00    -0.035 C 
ATOM     77  C27 non d ame     -38.100   2.911  26.420  0.00  0.00     0.085 C 
ATOM     78  H38 non d ame     -36.208   3.165  26.159  0.00  0.00     0.036 H 
ATOM     79  H39 non d ame     -36.807   2.062  27.569  0.00  0.00     0.036 H 
ATOM     80  N5  non d ame     -38.806   4.216  26.699  0.00  0.00    -0.049 N 
ATOM     81  H40 non d ame     -37.910   2.831  25.350  0.00  0.00     0.075 H 
ATOM     82  H41 non d ame     -38.620   2.108  26.942  0.00  0.00     0.075 H 
ATOM     83  C28 non d ame     -37.959   4.938  27.868  0.00  0.00     0.193 C 
ATOM     84  H42 non d ame     -38.728   4.769  25.857  0.00  0.00     0.280 HD
ATOM     85  H43 non d ame     -39.717   3.976  27.063  0.00  0.00     0.280 HD
ATOM     86  H44 non d ame     -38.326   4.945  28.894  0.00  0.00     0.129 H 
ATOM     87  H37 non d ame     -36.966   4.074  29.083  0.00  0.00     0.046 H 
BRANCH  83  88
ATOM     88  O6  non d ame     -37.727   6.308  27.535  0.00  0.00    -0.369 OA
ATOM     89  H45 non d ame     -37.596   6.815  28.340  0.00  0.00     0.212 HD
ENDBRANCH  83  88
ENDBRANCH  72  75
ENDBRANCH  47  72
ENDBRANCH  45  47
ENDBRANCH   1  43
BRANCH   1  90
ATOM     90  C16 non d ame     -36.243   9.107  31.253  0.00  0.00    -0.035 C 
ATOM     91  H21 non d ame     -36.818   8.587  32.018  0.00  0.00     0.037 H 
ATOM     92  H22 non d ame     -36.024  10.169  31.364  0.00  0.00     0.037 H 
BRANCH  90  93
ATOM     93  C17 non d ame     -37.045   8.958  29.921  0.00  0.00    -0.059 C 
ATOM     94  H23 non d ame     -36.525   8.228  29.302  0.00  0.00     0.038 H 
BRANCH  93  95
ATOM     95  C18 non d ame     -38.496   8.431  30.163  0.00  0.00    -0.073 C 
ATOM     96  H24 non d ame     -39.214   9.200  29.881  0.00  0.00     0.028 H 
ATOM     97  H25 non d ame     -38.664   7.539  29.560  0.00  0.00     0.028 H 
ATOM     98  H26 non d ame     -38.622   8.185  31.217  0.00  0.00     0.028 H 
ENDBRANCH  93  95
BRANCH  93  99
ATOM     99  C19 non d ame     -37.067  10.278  29.146  0.00  0.00    -0.073 C 
ATOM    100  H27 non d ame     -37.091  10.071  28.076  0.00  0.00     0.028 H 
ATOM    101  H28 non d ame     -37.953  10.849  29.425  0.00  0.00     0.028 H 
ATOM    102  H29 non d ame     -36.174  10.855  29.385  0.00  0.00     0.028 H 
ENDBRANCH  93  99
ENDBRANCH  90  93
ENDBRANCH   1  90
TORSDOF 26
ENDMDL
