MODEL 1
REMARK VINA RESULT:      -7.3      0.000      0.000
REMARK  26 active torsions:
REMARK  status: ('A' for Active; 'I' for Inactive)
REMARK    1  A    between atoms: C2_2  and  C3_3 
REMARK    2  A    between atoms: C4_6  and  C5_7 
REMARK       I    between atoms: C5_7  and  N2_9 
REMARK    3  A    between atoms: N2_9  and  C6_10 
REMARK    4  A    between atoms: C6_10  and  C7_11 
REMARK    5  A    between atoms: C6_10  and  C8_13 
REMARK       I    between atoms: C7_11  and  N3_14 
REMARK    6  A    between atoms: N3_14  and  C9_15 
REMARK    7  A    between atoms: C9_15  and  C10_16 
REMARK    8  A    between atoms: C9_15  and  C11_18 
REMARK       I    between atoms: C10_16  and  N4_21 
REMARK    9  A    between atoms: C11_18  and  C12_19 
REMARK   10  A    between atoms: C11_18  and  C13_20 
REMARK   11  A    between atoms: N4_21  and  C14_22 
REMARK   12  A    between atoms: C14_22  and  C15_23 
REMARK   13  A    between atoms: C14_22  and  C16_25 
REMARK       I    between atoms: C15_23  and  N6_40 
REMARK   14  A    between atoms: C16_25  and  C17_26 
REMARK   15  A    between atoms: C17_26  and  C18_27 
REMARK   16  A    between atoms: C17_26  and  C19_28 
REMARK   17  A    between atoms: C20_29  and  C21_30 
REMARK   18  A    between atoms: C20_29  and  C24_33 
REMARK   19  A    between atoms: C20_29  and  N6_40 
REMARK   20  A    between atoms: C21_30  and  C22_31 
REMARK   21  A    between atoms: C22_31  and  C23_32 
REMARK   22  A    between atoms: C23_32  and  O8_43 
REMARK   23  A    between atoms: C24_33  and  C25_34 
REMARK   24  A    between atoms: C28_38  and  O6_39 
REMARK   25  A    between atoms: C29_42  and  O8_43 
REMARK   26  A    between atoms: C29_42  and  C35_49 
ROOT
ATOM      1  C14 non d ame     -30.690  14.291  23.793  0.00  0.00     0.089 C 
ATOM      2  H20 non d ame     -29.612  14.325  23.634  0.00  0.00     0.087 H 
ENDROOT
BRANCH   1   3
ATOM      3  N4  non d ame     -31.055  12.902  24.029  0.00  0.00    -0.346 N 
ATOM      4  C10 non d ame     -30.438  11.802  23.202  0.00  0.00     0.241 C 
ATOM      5  O4  non d ame     -29.653  12.059  22.350  0.00  0.00    -0.271 OA
ATOM      6  H19 non d ame     -31.726  12.705  24.757  0.00  0.00     0.163 HD
BRANCH   4   7
ATOM      7  C9  non d ame     -30.823  10.370  23.464  0.00  0.00     0.092 C 
ATOM      8  H11 non d ame     -30.279  10.006  24.336  0.00  0.00     0.088 H 
BRANCH   7   9
ATOM      9  N3  non d ame     -32.251  10.297  23.782  0.00  0.00    -0.346 N 
ATOM     10  C7  non d ame     -32.685  10.304  25.157  0.00  0.00     0.240 C 
ATOM     11  O3  non d ame     -31.897  10.365  26.021  0.00  0.00    -0.271 OA
ATOM     12  H10 non d ame     -32.942  10.242  23.048  0.00  0.00     0.163 HD
BRANCH  10  13
ATOM     13  C6  non d ame     -34.207  10.223  25.490  0.00  0.00     0.086 C 
ATOM     14  H6  non d ame     -34.398   9.911  26.516  0.00  0.00     0.086 H 
BRANCH  13  15
ATOM     15  N2  non d ame     -34.792  11.546  25.341  0.00  0.00    -0.343 N 
ATOM     16  C5  non d ame     -35.666  12.070  26.394  0.00  0.00     0.273 C 
ATOM     17  O2  non d ame     -35.894  11.419  27.353  0.00  0.00    -0.266 OA
ATOM     18  H5  non d ame     -34.595  12.093  24.516  0.00  0.00     0.163 HD
BRANCH  16  19
ATOM     19  C4  non d ame     -36.290  13.466  26.250  0.00  0.00     0.154 A 
ATOM     20  C1  non d ame     -35.922  14.487  25.317  0.00  0.00    -0.017 A 
ATOM     21  C2  non d ame     -36.791  15.566  25.595  0.00  0.00     0.077 A 
ATOM     22  H1  non d ame     -35.143  14.451  24.555  0.00  0.00     0.091 H 
ATOM     23  O1  non d ame     -37.565  15.196  26.574  0.00  0.00    -0.218 OA
ATOM     24  N1  non d ame     -37.291  13.976  26.973  0.00  0.00    -0.123 NA
BRANCH  21  25
ATOM     25  C3  non d ame     -36.817  16.910  24.881  0.00  0.00    -0.029 C 
ATOM     26  H2  non d ame     -37.790  17.053  24.410  0.00  0.00     0.036 H 
ATOM     27  H3  non d ame     -36.642  17.708  25.602  0.00  0.00     0.036 H 
ATOM     28  H4  non d ame     -36.039  16.932  24.119  0.00  0.00     0.036 H 
ENDBRANCH  21  25
ENDBRANCH  16  19
ENDBRANCH  13  15
BRANCH  13  29
ATOM     29  C8  non d ame     -34.879   9.253  24.551  0.00  0.00    -0.049 C 
ATOM     30  H7  non d ame     -35.373   9.804  23.752  0.00  0.00     0.030 H 
ATOM     31  H8  non d ame     -34.131   8.585  24.123  0.00  0.00     0.030 H 
ATOM     32  H9  non d ame     -35.617   8.668  25.100  0.00  0.00     0.030 H 
ENDBRANCH  13  29
ENDBRANCH  10  13
ENDBRANCH   7   9
BRANCH   7  33
ATOM     33  C11 non d ame     -30.532   9.515  22.196  0.00  0.00    -0.033 C 
ATOM     34  H12 non d ame     -30.498  10.194  21.343  0.00  0.00     0.042 H 
BRANCH  33  35
ATOM     35  C12 non d ame     -29.142   8.811  22.290  0.00  0.00    -0.071 C 
ATOM     36  H13 non d ame     -28.360   9.563  22.394  0.00  0.00     0.028 H 
ATOM     37  H14 non d ame     -29.128   8.150  23.157  0.00  0.00     0.028 H 
ATOM     38  H15 non d ame     -28.968   8.228  21.385  0.00  0.00     0.028 H 
ENDBRANCH  33  35
BRANCH  33  39
ATOM     39  C13 non d ame     -31.675   8.480  21.944  0.00  0.00    -0.071 C 
ATOM     40  H16 non d ame     -31.877   8.415  20.875  0.00  0.00     0.028 H 
ATOM     41  H17 non d ame     -31.369   7.502  22.317  0.00  0.00     0.028 H 
ATOM     42  H18 non d ame     -32.576   8.801  22.466  0.00  0.00     0.028 H 
ENDBRANCH  33  39
ENDBRANCH   7  33
ENDBRANCH   4   7
ENDBRANCH   1   3
BRANCH   1  43
ATOM     43  C15 non d ame     -31.129  15.134  25.025  0.00  0.00     0.240 C 
ATOM     44  O5  non d ame     -30.786  16.268  25.117  0.00  0.00    -0.271 OA
ATOM     45  N6  non d ame     -31.985  14.531  26.085  0.00  0.00    -0.355 N 
ATOM     46  H46 non d ame     -32.287  13.569  26.014  0.00  0.00     0.162 HD
BRANCH  45  47
ATOM     47  C20 non d ame     -32.396  15.346  27.249  0.00  0.00     0.013 C 
ATOM     48  H30 non d ame     -31.495  15.760  27.702  0.00  0.00     0.072 H 
BRANCH  47  49
ATOM     49  C21 non d ame     -33.118  14.467  28.244  0.00  0.00    -0.038 C 
ATOM     50  H31 non d ame     -33.926  15.080  28.647  0.00  0.00     0.036 H 
ATOM     51  H32 non d ame     -33.348  13.545  27.711  0.00  0.00     0.036 H 
BRANCH  49  52
ATOM     52  C22 non d ame     -32.234  14.068  29.445  0.00  0.00     0.018 C 
ATOM     53  H33 non d ame     -31.487  14.856  29.537  0.00  0.00     0.048 H 
ATOM     54  H34 non d ame     -32.924  13.873  30.267  0.00  0.00     0.048 H 
BRANCH  52  55
ATOM     55  C23 non d ame     -31.441  12.749  29.229  0.00  0.00     0.259 C 
ATOM     56  O7  non d ame     -30.707  12.631  28.302  0.00  0.00    -0.265 OA
BRANCH  55  57
ATOM     57  O8  non d ame     -31.614  11.674  30.145  0.00  0.00    -0.317 OA
BRANCH  57  58
ATOM     58  C29 non d ame     -32.887  11.665  30.798  0.00  0.00     0.052 C 
ATOM     59  H47 non d ame     -32.671  11.603  31.864  0.00  0.00     0.082 H 
ATOM     60  H48 non d ame     -33.429  12.523  30.400  0.00  0.00     0.082 H 
BRANCH  58  61
ATOM     61  C35 non d ame     -33.634  10.372  30.372  0.00  0.00    -0.034 A 
ATOM     62  C30 non d ame     -34.600   9.819  31.207  0.00  0.00    -0.075 A 
ATOM     63  C31 non d ame     -35.271   8.658  30.824  0.00  0.00    -0.082 A 
ATOM     64  H49 non d ame     -34.831  10.294  32.160  0.00  0.00     0.084 H 
ATOM     65  C32 non d ame     -34.971   8.049  29.603  0.00  0.00    -0.083 A 
ATOM     66  H50 non d ame     -36.028   8.227  31.481  0.00  0.00     0.083 H 
ATOM     67  C33 non d ame     -34.004   8.603  28.775  0.00  0.00    -0.082 A 
ATOM     68  H51 non d ame     -35.491   7.141  29.297  0.00  0.00     0.083 H 
ATOM     69  C34 non d ame     -33.333   9.764  29.152  0.00  0.00    -0.075 A 
ATOM     70  H52 non d ame     -33.770   8.124  27.824  0.00  0.00     0.083 H 
ATOM     71  H53 non d ame     -32.576  10.194  28.496  0.00  0.00     0.084 H 
ENDBRANCH  58  61
ENDBRANCH  57  58
ENDBRANCH  55  57
ENDBRANCH  52  55
ENDBRANCH  49  52
ENDBRANCH  47  49
BRANCH  47  72
ATOM     72  C24 non d ame     -33.324  16.469  26.792  0.00  0.00    -0.039 C 
ATOM     73  H35 non d ame     -32.788  16.979  25.990  0.00  0.00     0.036 H 
ATOM     74  H36 non d ame     -34.281  15.990  26.588  0.00  0.00     0.036 H 
BRANCH  72  75
ATOM     75  C25 non d ame     -33.571  17.543  27.954  0.00  0.00    -0.001 C 
ATOM     76  C26 non d ame     -35.172  17.903  28.052  0.00  0.00    -0.035 C 
ATOM     77  C27 non d ame     -35.320  19.249  28.020  0.00  0.00     0.085 C 
ATOM     78  H38 non d ame     -35.687  17.568  27.151  0.00  0.00     0.036 H 
ATOM     79  H39 non d ame     -35.558  17.627  29.034  0.00  0.00     0.036 H 
ATOM     80  N5  non d ame     -33.998  19.828  27.580  0.00  0.00    -0.049 N 
ATOM     81  H40 non d ame     -36.067  19.442  27.249  0.00  0.00     0.075 H 
ATOM     82  H41 non d ame     -35.513  19.545  29.051  0.00  0.00     0.075 H 
ATOM     83  C28 non d ame     -32.919  18.636  27.728  0.00  0.00     0.193 C 
ATOM     84  H42 non d ame     -34.095  20.054  26.600  0.00  0.00     0.280 HD
ATOM     85  H43 non d ame     -33.768  20.554  28.245  0.00  0.00     0.280 HD
ATOM     86  H44 non d ame     -32.218  18.624  28.561  0.00  0.00     0.129 H 
ATOM     87  H37 non d ame     -33.066  17.273  28.881  0.00  0.00     0.046 H 
BRANCH  83  88
ATOM     88  O6  non d ame     -32.115  18.549  26.550  0.00  0.00    -0.369 OA
ATOM     89  H45 non d ame     -31.187  18.544  26.795  0.00  0.00     0.212 HD
ENDBRANCH  83  88
ENDBRANCH  72  75
ENDBRANCH  47  72
ENDBRANCH  45  47
ENDBRANCH   1  43
BRANCH   1  90
ATOM     90  C16 non d ame     -31.410  14.789  22.550  0.00  0.00    -0.035 C 
ATOM     91  H21 non d ame     -31.682  13.892  21.995  0.00  0.00     0.037 H 
ATOM     92  H22 non d ame     -32.187  15.460  22.916  0.00  0.00     0.037 H 
BRANCH  90  93
ATOM     93  C17 non d ame     -30.506  15.636  21.599  0.00  0.00    -0.059 C 
ATOM     94  H23 non d ame     -30.787  16.682  21.720  0.00  0.00     0.038 H 
BRANCH  93  95
ATOM     95  C18 non d ame     -28.991  15.505  21.955  0.00  0.00    -0.073 C 
ATOM     96  H24 non d ame     -28.606  14.562  21.566  0.00  0.00     0.028 H 
ATOM     97  H25 non d ame     -28.439  16.332  21.508  0.00  0.00     0.028 H 
ATOM     98  H26 non d ame     -28.867  15.529  23.037  0.00  0.00     0.028 H 
ENDBRANCH  93  95
BRANCH  93  99
ATOM     99  C19 non d ame     -30.755  15.266  20.135  0.00  0.00    -0.073 C 
ATOM    100  H27 non d ame     -31.589  14.565  20.073  0.00  0.00     0.028 H 
ATOM    101  H28 non d ame     -30.996  16.165  19.568  0.00  0.00     0.028 H 
ATOM    102  H29 non d ame     -29.860  14.804  19.719  0.00  0.00     0.028 H 
ENDBRANCH  93  99
ENDBRANCH  90  93
ENDBRANCH   1  90
TORSDOF 26
ENDMDL
MODEL 2
REMARK VINA RESULT:      -7.2      1.612      2.493
REMARK  26 active torsions:
REMARK  status: ('A' for Active; 'I' for Inactive)
REMARK    1  A    between atoms: C2_2  and  C3_3 
REMARK    2  A    between atoms: C4_6  and  C5_7 
REMARK       I    between atoms: C5_7  and  N2_9 
REMARK    3  A    between atoms: N2_9  and  C6_10 
REMARK    4  A    between atoms: C6_10  and  C7_11 
REMARK    5  A    between atoms: C6_10  and  C8_13 
REMARK       I    between atoms: C7_11  and  N3_14 
REMARK    6  A    between atoms: N3_14  and  C9_15 
REMARK    7  A    between atoms: C9_15  and  C10_16 
REMARK    8  A    between atoms: C9_15  and  C11_18 
REMARK       I    between atoms: C10_16  and  N4_21 
REMARK    9  A    between atoms: C11_18  and  C12_19 
REMARK   10  A    between atoms: C11_18  and  C13_20 
REMARK   11  A    between atoms: N4_21  and  C14_22 
REMARK   12  A    between atoms: C14_22  and  C15_23 
REMARK   13  A    between atoms: C14_22  and  C16_25 
REMARK       I    between atoms: C15_23  and  N6_40 
REMARK   14  A    between atoms: C16_25  and  C17_26 
REMARK   15  A    between atoms: C17_26  and  C18_27 
REMARK   16  A    between atoms: C17_26  and  C19_28 
REMARK   17  A    between atoms: C20_29  and  C21_30 
REMARK   18  A    between atoms: C20_29  and  C24_33 
REMARK   19  A    between atoms: C20_29  and  N6_40 
REMARK   20  A    between atoms: C21_30  and  C22_31 
REMARK   21  A    between atoms: C22_31  and  C23_32 
REMARK   22  A    between atoms: C23_32  and  O8_43 
REMARK   23  A    between atoms: C24_33  and  C25_34 
REMARK   24  A    between atoms: C28_38  and  O6_39 
REMARK   25  A    between atoms: C29_42  and  O8_43 
REMARK   26  A    between atoms: C29_42  and  C35_49 
ROOT
ATOM      1  C14 non d ame     -31.147  14.057  24.467  0.00  0.00     0.089 C 
ATOM      2  H20 non d ame     -30.164  13.633  24.672  0.00  0.00     0.087 H 
ENDROOT
BRANCH   1   3
ATOM      3  N4  non d ame     -32.131  13.007  24.681  0.00  0.00    -0.346 N 
ATOM      4  C10 non d ame     -31.846  11.880  25.642  0.00  0.00     0.241 C 
ATOM      5  O4  non d ame     -30.816  11.838  26.229  0.00  0.00    -0.271 OA
ATOM      6  H19 non d ame     -33.000  13.060  24.169  0.00  0.00     0.163 HD
BRANCH   4   7
ATOM      7  C9  non d ame     -32.879  10.805  25.855  0.00  0.00     0.092 C 
ATOM      8  H11 non d ame     -33.028  10.658  26.926  0.00  0.00     0.088 H 
BRANCH   7   9
ATOM      9  N3  non d ame     -34.161  11.240  25.295  0.00  0.00    -0.346 N 
ATOM     10  C7  non d ame     -35.216  11.688  26.170  0.00  0.00     0.240 C 
ATOM     11  O3  non d ame     -35.050  11.703  27.329  0.00  0.00    -0.271 OA
ATOM     12  H10 non d ame     -34.319  11.231  24.298  0.00  0.00     0.163 HD
BRANCH  10  13
ATOM     13  C6  non d ame     -36.580  12.147  25.568  0.00  0.00     0.086 C 
ATOM     14  H6  non d ame     -37.426  11.911  26.213  0.00  0.00     0.086 H 
BRANCH  13  15
ATOM     15  N2  non d ame     -36.564  13.592  25.414  0.00  0.00    -0.343 N 
ATOM     16  C5  non d ame     -37.537  14.406  26.148  0.00  0.00     0.273 C 
ATOM     17  O2  non d ame     -38.328  13.888  26.857  0.00  0.00    -0.266 OA
ATOM     18  H5  non d ame     -35.887  14.026  24.804  0.00  0.00     0.163 HD
BRANCH  16  19
ATOM     19  C4  non d ame     -37.531  15.935  25.997  0.00  0.00     0.154 A 
ATOM     20  C1  non d ame     -37.166  16.687  24.836  0.00  0.00    -0.017 A 
ATOM     21  C2  non d ame     -37.331  18.039  25.212  0.00  0.00     0.077 A 
ATOM     22  H1  non d ame     -36.833  16.311  23.869  0.00  0.00     0.091 H 
ATOM     23  O1  non d ame     -37.744  18.050  26.446  0.00  0.00    -0.218 OA
ATOM     24  N1  non d ame     -37.868  16.834  26.925  0.00  0.00    -0.123 NA
BRANCH  21  25
ATOM     25  C3  non d ame     -37.073  19.257  24.335  0.00  0.00    -0.029 C 
ATOM     26  H2  non d ame     -37.895  19.377  23.628  0.00  0.00     0.036 H 
ATOM     27  H3  non d ame     -37.001  20.147  24.960  0.00  0.00     0.036 H 
ATOM     28  H4  non d ame     -36.141  19.121  23.788  0.00  0.00     0.036 H 
ENDBRANCH  21  25
ENDBRANCH  16  19
ENDBRANCH  13  15
BRANCH  13  29
ATOM     29  C8  non d ame     -36.788  11.488  24.228  0.00  0.00    -0.049 C 
ATOM     30  H7  non d ame     -36.032  11.841  23.527  0.00  0.00     0.030 H 
ATOM     31  H8  non d ame     -36.702  10.406  24.338  0.00  0.00     0.030 H 
ATOM     32  H9  non d ame     -37.779  11.737  23.850  0.00  0.00     0.030 H 
ENDBRANCH  13  29
ENDBRANCH  10  13
ENDBRANCH   7   9
BRANCH   7  33
ATOM     33  C11 non d ame     -32.421   9.498  25.145  0.00  0.00    -0.033 C 
ATOM     34  H12 non d ame     -31.336   9.546  25.037  0.00  0.00     0.042 H 
BRANCH  33  35
ATOM     35  C12 non d ame     -32.753   8.237  26.001  0.00  0.00    -0.071 C 
ATOM     36  H13 non d ame     -31.910   8.008  26.653  0.00  0.00     0.028 H 
ATOM     37  H14 non d ame     -33.638   8.433  26.607  0.00  0.00     0.028 H 
ATOM     38  H15 non d ame     -32.943   7.390  25.343  0.00  0.00     0.028 H 
ENDBRANCH  33  35
BRANCH  33  39
ATOM     39  C13 non d ame     -33.042   9.392  23.715  0.00  0.00    -0.071 C 
ATOM     40  H16 non d ame     -32.392   9.892  22.997  0.00  0.00     0.028 H 
ATOM     41  H17 non d ame     -33.146   8.341  23.441  0.00  0.00     0.028 H 
ATOM     42  H18 non d ame     -34.023   9.866  23.709  0.00  0.00     0.028 H 
ENDBRANCH  33  39
ENDBRANCH   7  33
ENDBRANCH   4   7
ENDBRANCH   1   3
BRANCH   1  43
ATOM     43  C15 non d ame     -31.481  15.249  25.408  0.00  0.00     0.240 C 
ATOM     44  O5  non d ame     -31.068  16.335  25.156  0.00  0.00    -0.271 OA
ATOM     45  N6  non d ame     -32.324  15.039  26.619  0.00  0.00    -0.355 N 
ATOM     46  H46 non d ame     -32.684  14.122  26.840  0.00  0.00     0.162 HD
BRANCH  45  47
ATOM     47  C20 non d ame     -32.635  16.183  27.504  0.00  0.00     0.013 C 
ATOM     48  H30 non d ame     -31.897  16.963  27.315  0.00  0.00     0.072 H 
BRANCH  47  49
ATOM     49  C21 non d ame     -32.555  15.735  28.946  0.00  0.00    -0.038 C 
ATOM     50  H31 non d ame     -31.518  15.894  29.247  0.00  0.00     0.036 H 
ATOM     51  H32 non d ame     -33.359  16.259  29.462  0.00  0.00     0.036 H 
BRANCH  49  52
ATOM     52  C22 non d ame     -32.833  14.227  29.122  0.00  0.00     0.018 C 
ATOM     53  H33 non d ame     -33.457  14.143  30.011  0.00  0.00     0.048 H 
ATOM     54  H34 non d ame     -33.210  13.882  28.158  0.00  0.00     0.048 H 
BRANCH  52  55
ATOM     55  C23 non d ame     -31.561  13.384  29.410  0.00  0.00     0.259 C 
ATOM     56  O7  non d ame     -30.507  13.711  28.968  0.00  0.00    -0.265 OA
BRANCH  55  57
ATOM     57  O8  non d ame     -31.669  12.205  30.199  0.00  0.00    -0.317 OA
BRANCH  57  58
ATOM     58  C29 non d ame     -32.286  11.106  29.521  0.00  0.00     0.052 C 
ATOM     59  H47 non d ame     -32.720  11.527  28.614  0.00  0.00     0.082 H 
ATOM     60  H48 non d ame     -31.519  10.334  29.451  0.00  0.00     0.082 H 
BRANCH  58  61
ATOM     61  C35 non d ame     -33.437  10.575  30.416  0.00  0.00    -0.034 A 
ATOM     62  C30 non d ame     -34.081   9.386  30.090  0.00  0.00    -0.075 A 
ATOM     63  C31 non d ame     -35.116   8.909  30.894  0.00  0.00    -0.082 A 
ATOM     64  H49 non d ame     -33.776   8.828  29.205  0.00  0.00     0.084 H 
ATOM     65  C32 non d ame     -35.507   9.627  32.027  0.00  0.00    -0.083 A 
ATOM     66  H50 non d ame     -35.617   7.975  30.636  0.00  0.00     0.083 H 
ATOM     67  C33 non d ame     -34.864  10.815  32.346  0.00  0.00    -0.082 A 
ATOM     68  H51 non d ame     -36.314   9.260  32.661  0.00  0.00     0.083 H 
ATOM     69  C34 non d ame     -33.828  11.294  31.547  0.00  0.00    -0.075 A 
ATOM     70  H52 non d ame     -35.172  11.375  33.230  0.00  0.00     0.083 H 
ATOM     71  H53 non d ame     -33.327  12.228  31.805  0.00  0.00     0.084 H 
ENDBRANCH  58  61
ENDBRANCH  57  58
ENDBRANCH  55  57
ENDBRANCH  52  55
ENDBRANCH  49  52
ENDBRANCH  47  49
BRANCH  47  72
ATOM     72  C24 non d ame     -34.041  16.699  27.207  0.00  0.00    -0.039 C 
ATOM     73  H35 non d ame     -34.367  16.156  26.319  0.00  0.00     0.036 H 
ATOM     74  H36 non d ame     -34.591  16.595  28.142  0.00  0.00     0.036 H 
BRANCH  72  75
ATOM     75  C25 non d ame     -34.034  18.257  26.833  0.00  0.00    -0.001 C 
ATOM     76  C26 non d ame     -32.510  18.858  26.971  0.00  0.00    -0.035 C 
ATOM     77  C27 non d ame     -32.547  19.971  27.741  0.00  0.00     0.085 C 
ATOM     78  H38 non d ame     -31.887  18.171  27.544  0.00  0.00     0.036 H 
ATOM     79  H39 non d ame     -32.166  19.228  26.005  0.00  0.00     0.036 H 
ATOM     80  N5  non d ame     -33.900  19.999  28.411  0.00  0.00    -0.049 N 
ATOM     81  H40 non d ame     -31.778  19.826  28.501  0.00  0.00     0.075 H 
ATOM     82  H41 non d ame     -32.477  20.809  27.048  0.00  0.00     0.075 H 
ATOM     83  C28 non d ame     -34.811  18.929  27.616  0.00  0.00     0.193 C 
ATOM     84  H42 non d ame     -33.760  19.665  29.354  0.00  0.00     0.280 HD
ATOM     85  H43 non d ame     -34.278  20.923  28.254  0.00  0.00     0.280 HD
ATOM     86  H44 non d ame     -35.566  19.264  26.905  0.00  0.00     0.129 H 
ATOM     87  H37 non d ame     -34.566  18.461  25.905  0.00  0.00     0.046 H 
BRANCH  83  88
ATOM     88  O6  non d ame     -35.503  18.088  28.541  0.00  0.00    -0.369 OA
ATOM     89  H45 non d ame     -36.450  18.177  28.408  0.00  0.00     0.212 HD
ENDBRANCH  83  88
ENDBRANCH  72  75
ENDBRANCH  47  72
ENDBRANCH  45  47
ENDBRANCH   1  43
BRANCH   1  90
ATOM     90  C16 non d ame     -31.217  14.515  23.018  0.00  0.00    -0.035 C 
ATOM     91  H21 non d ame     -31.990  13.901  22.559  0.00  0.00     0.037 H 
ATOM     92  H22 non d ame     -31.335  15.597  23.063  0.00  0.00     0.037 H 
BRANCH  90  93
ATOM     93  C17 non d ame     -29.906  14.247  22.212  0.00  0.00    -0.059 C 
ATOM     94  H23 non d ame     -30.071  14.587  21.190  0.00  0.00     0.038 H 
BRANCH  93  95
ATOM     95  C18 non d ame     -28.688  15.037  22.788  0.00  0.00    -0.073 C 
ATOM     96  H24 non d ame     -28.494  15.910  22.165  0.00  0.00     0.028 H 
ATOM     97  H25 non d ame     -28.913  15.361  23.805  0.00  0.00     0.028 H 
ATOM     98  H26 non d ame     -27.809  14.394  22.798  0.00  0.00     0.028 H 
ENDBRANCH  93  95
BRANCH  93  99
ATOM     99  C19 non d ame     -29.601  12.748  22.148  0.00  0.00    -0.073 C 
ATOM    100  H27 non d ame     -29.642  12.325  23.153  0.00  0.00     0.028 H 
ATOM    101  H28 non d ame     -30.339  12.253  21.517  0.00  0.00     0.028 H 
ATOM    102  H29 non d ame     -28.606  12.597  21.730  0.00  0.00     0.028 H 
ENDBRANCH  93  99
ENDBRANCH  90  93
ENDBRANCH   1  90
TORSDOF 26
ENDMDL
MODEL 3
REMARK VINA RESULT:      -7.2      2.476      5.470
REMARK  26 active torsions:
REMARK  status: ('A' for Active; 'I' for Inactive)
REMARK    1  A    between atoms: C2_2  and  C3_3 
REMARK    2  A    between atoms: C4_6  and  C5_7 
REMARK       I    between atoms: C5_7  and  N2_9 
REMARK    3  A    between atoms: N2_9  and  C6_10 
REMARK    4  A    between atoms: C6_10  and  C7_11 
REMARK    5  A    between atoms: C6_10  and  C8_13 
REMARK       I    between atoms: C7_11  and  N3_14 
REMARK    6  A    between atoms: N3_14  and  C9_15 
REMARK    7  A    between atoms: C9_15  and  C10_16 
REMARK    8  A    between atoms: C9_15  and  C11_18 
REMARK       I    between atoms: C10_16  and  N4_21 
REMARK    9  A    between atoms: C11_18  and  C12_19 
REMARK   10  A    between atoms: C11_18  and  C13_20 
REMARK   11  A    between atoms: N4_21  and  C14_22 
REMARK   12  A    between atoms: C14_22  and  C15_23 
REMARK   13  A    between atoms: C14_22  and  C16_25 
REMARK       I    between atoms: C15_23  and  N6_40 
REMARK   14  A    between atoms: C16_25  and  C17_26 
REMARK   15  A    between atoms: C17_26  and  C18_27 
REMARK   16  A    between atoms: C17_26  and  C19_28 
REMARK   17  A    between atoms: C20_29  and  C21_30 
REMARK   18  A    between atoms: C20_29  and  C24_33 
REMARK   19  A    between atoms: C20_29  and  N6_40 
REMARK   20  A    between atoms: C21_30  and  C22_31 
REMARK   21  A    between atoms: C22_31  and  C23_32 
REMARK   22  A    between atoms: C23_32  and  O8_43 
REMARK   23  A    between atoms: C24_33  and  C25_34 
REMARK   24  A    between atoms: C28_38  and  O6_39 
REMARK   25  A    between atoms: C29_42  and  O8_43 
REMARK   26  A    between atoms: C29_42  and  C35_49 
ROOT
ATOM      1  C14 non d ame     -32.831  10.157  26.570  0.00  0.00     0.089 C 
ATOM      2  H20 non d ame     -33.596  10.612  25.940  0.00  0.00     0.087 H 
ENDROOT
BRANCH   1   3
ATOM      3  N4  non d ame     -32.189   9.109  25.791  0.00  0.00    -0.346 N 
ATOM      4  C10 non d ame     -33.011   8.204  24.907  0.00  0.00     0.241 C 
ATOM      5  O4  non d ame     -34.188   8.337  24.841  0.00  0.00    -0.271 OA
ATOM      6  H19 non d ame     -31.186   9.011  25.862  0.00  0.00     0.163 HD
BRANCH   4   7
ATOM      7  C9  non d ame     -32.329   7.129  24.103  0.00  0.00     0.092 C 
ATOM      8  H11 non d ame     -32.916   6.924  23.207  0.00  0.00     0.088 H 
BRANCH   7   9
ATOM      9  N3  non d ame     -31.016   7.607  23.661  0.00  0.00    -0.346 N 
ATOM     10  C7  non d ame     -30.827   8.039  22.298  0.00  0.00     0.240 C 
ATOM     11  O3  non d ame     -31.721   8.006  21.543  0.00  0.00    -0.271 OA
ATOM     12  H10 non d ame     -30.235   7.639  24.300  0.00  0.00     0.163 HD
BRANCH  10  13
ATOM     13  C6  non d ame     -29.426   8.544  21.832  0.00  0.00     0.086 C 
ATOM     14  H6  non d ame     -29.129   8.133  20.868  0.00  0.00     0.086 H 
BRANCH  13  15
ATOM     15  N2  non d ame     -29.476   9.988  21.671  0.00  0.00    -0.343 N 
ATOM     16  C5  non d ame     -29.936  10.823  22.783  0.00  0.00     0.273 C 
ATOM     17  O2  non d ame     -30.265  10.323  23.802  0.00  0.00    -0.266 OA
ATOM     18  H5  non d ame     -29.197  10.406  20.795  0.00  0.00     0.163 HD
BRANCH  16  19
ATOM     19  C4  non d ame     -29.992  12.350  22.627  0.00  0.00     0.154 A 
ATOM     20  C1  non d ame     -30.743  13.274  23.420  0.00  0.00    -0.017 A 
ATOM     21  C2  non d ame     -30.453  14.544  22.873  0.00  0.00     0.077 A 
ATOM     22  H1  non d ame     -31.399  13.057  24.263  0.00  0.00     0.091 H 
ATOM     23  O1  non d ame     -29.629  14.359  21.883  0.00  0.00    -0.218 OA
ATOM     24  N1  non d ame     -29.346  13.088  21.720  0.00  0.00    -0.123 NA
BRANCH  21  25
ATOM     25  C3  non d ame     -31.003  15.880  23.354  0.00  0.00    -0.029 C 
ATOM     26  H2  non d ame     -31.624  15.721  24.236  0.00  0.00     0.036 H 
ATOM     27  H3  non d ame     -30.176  16.543  23.608  0.00  0.00     0.036 H 
ATOM     28  H4  non d ame     -31.602  16.332  22.565  0.00  0.00     0.036 H 
ENDBRANCH  21  25
ENDBRANCH  16  19
ENDBRANCH  13  15
BRANCH  13  29
ATOM     29  C8  non d ame     -28.388   8.175  22.862  0.00  0.00    -0.049 C 
ATOM     30  H7  non d ame     -28.443   8.870  23.699  0.00  0.00     0.030 H 
ATOM     31  H8  non d ame     -28.575   7.162  23.218  0.00  0.00     0.030 H 
ATOM     32  H9  non d ame     -27.397   8.225  22.412  0.00  0.00     0.030 H 
ENDBRANCH  13  29
ENDBRANCH  10  13
ENDBRANCH   7   9
BRANCH   7  33
ATOM     33  C11 non d ame     -32.146   5.860  24.985  0.00  0.00    -0.033 C 
ATOM     34  H12 non d ame     -31.170   5.435  24.751  0.00  0.00     0.042 H 
BRANCH  33  35
ATOM     35  C12 non d ame     -32.149   6.217  26.505  0.00  0.00    -0.071 C 
ATOM     36  H13 non d ame     -31.220   5.876  26.960  0.00  0.00     0.028 H 
ATOM     37  H14 non d ame     -32.238   7.297  26.623  0.00  0.00     0.028 H 
ATOM     38  H15 non d ame     -32.993   5.727  26.991  0.00  0.00     0.028 H 
ENDBRANCH  33  35
BRANCH  33  39
ATOM     39  C13 non d ame     -33.232   4.787  24.653  0.00  0.00    -0.071 C 
ATOM     40  H16 non d ame     -32.905   3.813  25.018  0.00  0.00     0.028 H 
ATOM     41  H17 non d ame     -34.172   5.059  25.136  0.00  0.00     0.028 H 
ATOM     42  H18 non d ame     -33.379   4.740  23.575  0.00  0.00     0.028 H 
ENDBRANCH  33  39
ENDBRANCH   7  33
ENDBRANCH   4   7
ENDBRANCH   1   3
BRANCH   1  43
ATOM     43  C15 non d ame     -31.747  11.180  27.012  0.00  0.00     0.240 C 
ATOM     44  O5  non d ame     -30.795  11.366  26.325  0.00  0.00    -0.271 OA
ATOM     45  N6  non d ame     -31.900  11.937  28.287  0.00  0.00    -0.355 N 
ATOM     46  H46 non d ame     -32.708  11.791  28.876  0.00  0.00     0.162 HD
BRANCH  45  47
ATOM     47  C20 non d ame     -30.862  12.908  28.694  0.00  0.00     0.013 C 
ATOM     48  H30 non d ame     -29.915  12.590  28.256  0.00  0.00     0.072 H 
BRANCH  47  49
ATOM     49  C21 non d ame     -30.754  12.924  30.202  0.00  0.00    -0.038 C 
ATOM     50  H31 non d ame     -29.687  12.993  30.420  0.00  0.00     0.036 H 
ATOM     51  H32 non d ame     -31.431  13.709  30.537  0.00  0.00     0.036 H 
BRANCH  49  52
ATOM     52  C22 non d ame     -31.249  11.614  30.852  0.00  0.00     0.018 C 
ATOM     53  H33 non d ame     -30.978  10.819  30.158  0.00  0.00     0.048 H 
ATOM     54  H34 non d ame     -30.841  11.615  31.864  0.00  0.00     0.048 H 
BRANCH  52  55
ATOM     55  C23 non d ame     -32.792  11.537  31.011  0.00  0.00     0.259 C 
ATOM     56  O7  non d ame     -33.467  12.497  30.821  0.00  0.00    -0.265 OA
BRANCH  55  57
ATOM     57  O8  non d ame     -33.392  10.308  31.404  0.00  0.00    -0.317 OA
BRANCH  57  58
ATOM     58  C29 non d ame     -34.704  10.452  31.956  0.00  0.00     0.052 C 
ATOM     59  H47 non d ame     -34.565  10.512  33.035  0.00  0.00     0.082 H 
ATOM     60  H48 non d ame     -35.162  11.282  31.417  0.00  0.00     0.082 H 
BRANCH  58  61
ATOM     61  C35 non d ame     -35.503   9.160  31.635  0.00  0.00    -0.034 A 
ATOM     62  C30 non d ame     -34.829   7.969  31.386  0.00  0.00    -0.075 A 
ATOM     63  C31 non d ame     -35.547   6.808  31.097  0.00  0.00    -0.082 A 
ATOM     64  H49 non d ame     -33.740   7.944  31.414  0.00  0.00     0.084 H 
ATOM     65  C32 non d ame     -36.943   6.843  31.057  0.00  0.00    -0.083 A 
ATOM     66  H50 non d ame     -35.015   5.876  30.903  0.00  0.00     0.083 H 
ATOM     67  C33 non d ame     -37.611   8.035  31.304  0.00  0.00    -0.082 A 
ATOM     68  H51 non d ame     -37.511   5.940  30.834  0.00  0.00     0.083 H 
ATOM     69  C34 non d ame     -36.898   9.196  31.595  0.00  0.00    -0.075 A 
ATOM     70  H52 non d ame     -38.700   8.059  31.271  0.00  0.00     0.083 H 
ATOM     71  H53 non d ame     -37.430  10.128  31.789  0.00  0.00     0.084 H 
ENDBRANCH  58  61
ENDBRANCH  57  58
ENDBRANCH  55  57
ENDBRANCH  52  55
ENDBRANCH  49  52
ENDBRANCH  47  49
BRANCH  47  72
ATOM     72  C24 non d ame     -31.234  14.303  28.194  0.00  0.00    -0.039 C 
ATOM     73  H35 non d ame     -30.958  14.982  29.001  0.00  0.00     0.036 H 
ATOM     74  H36 non d ame     -30.760  14.396  27.217  0.00  0.00     0.036 H 
BRANCH  72  75
ATOM     75  C25 non d ame     -32.813  14.450  27.970  0.00  0.00    -0.001 C 
ATOM     76  C26 non d ame     -33.122  14.831  26.401  0.00  0.00    -0.035 C 
ATOM     77  C27 non d ame     -33.932  15.916  26.366  0.00  0.00     0.085 C 
ATOM     78  H38 non d ame     -32.211  15.176  25.913  0.00  0.00     0.036 H 
ATOM     79  H39 non d ame     -33.725  14.049  25.938  0.00  0.00     0.036 H 
ATOM     80  N5  non d ame     -33.937  16.507  27.755  0.00  0.00    -0.049 N 
ATOM     81  H40 non d ame     -33.450  16.617  25.684  0.00  0.00     0.075 H 
ATOM     82  H41 non d ame     -34.926  15.532  26.141  0.00  0.00     0.075 H 
ATOM     83  C28 non d ame     -33.308  15.377  28.721  0.00  0.00     0.193 C 
ATOM     84  H42 non d ame     -33.308  17.297  27.733  0.00  0.00     0.280 HD
ATOM     85  H43 non d ame     -34.907  16.641  28.005  0.00  0.00     0.280 HD
ATOM     86  H44 non d ame     -33.950  14.783  29.371  0.00  0.00     0.129 H 
ATOM     87  H37 non d ame     -33.371  13.617  28.397  0.00  0.00     0.046 H 
BRANCH  83  88
ATOM     88  O6  non d ame     -32.325  15.955  29.582  0.00  0.00    -0.369 OA
ATOM     89  H45 non d ame     -31.832  16.624  29.101  0.00  0.00     0.212 HD
ENDBRANCH  83  88
ENDBRANCH  72  75
ENDBRANCH  47  72
ENDBRANCH  45  47
ENDBRANCH   1  43
BRANCH   1  90
ATOM     90  C16 non d ame     -33.479   9.536  27.797  0.00  0.00    -0.035 C 
ATOM     91  H21 non d ame     -33.535   8.469  27.586  0.00  0.00     0.037 H 
ATOM     92  H22 non d ame     -32.895   9.893  28.644  0.00  0.00     0.037 H 
BRANCH  90  93
ATOM     93  C17 non d ame     -34.947  10.013  28.041  0.00  0.00    -0.059 C 
ATOM     94  H23 non d ame     -35.019  10.348  29.075  0.00  0.00     0.038 H 
BRANCH  93  95
ATOM     95  C18 non d ame     -35.336  11.215  27.121  0.00  0.00    -0.073 C 
ATOM     96  H24 non d ame     -34.432  11.676  26.725  0.00  0.00     0.028 H 
ATOM     97  H25 non d ame     -35.951  10.856  26.296  0.00  0.00     0.028 H 
ATOM     98  H26 non d ame     -35.896  11.949  27.700  0.00  0.00     0.028 H 
ENDBRANCH  93  95
BRANCH  93  99
ATOM     99  C19 non d ame     -35.933   8.855  27.869  0.00  0.00    -0.073 C 
ATOM    100  H27 non d ame     -35.411   7.908  28.009  0.00  0.00     0.028 H 
ATOM    101  H28 non d ame     -36.729   8.942  28.609  0.00  0.00     0.028 H 
ATOM    102  H29 non d ame     -36.363   8.889  26.868  0.00  0.00     0.028 H 
ENDBRANCH  93  99
ENDBRANCH  90  93
ENDBRANCH   1  90
TORSDOF 26
ENDMDL
MODEL 4
REMARK VINA RESULT:      -7.2      3.191      6.493
REMARK  26 active torsions:
REMARK  status: ('A' for Active; 'I' for Inactive)
REMARK    1  A    between atoms: C2_2  and  C3_3 
REMARK    2  A    between atoms: C4_6  and  C5_7 
REMARK       I    between atoms: C5_7  and  N2_9 
REMARK    3  A    between atoms: N2_9  and  C6_10 
REMARK    4  A    between atoms: C6_10  and  C7_11 
REMARK    5  A    between atoms: C6_10  and  C8_13 
REMARK       I    between atoms: C7_11  and  N3_14 
REMARK    6  A    between atoms: N3_14  and  C9_15 
REMARK    7  A    between atoms: C9_15  and  C10_16 
REMARK    8  A    between atoms: C9_15  and  C11_18 
REMARK       I    between atoms: C10_16  and  N4_21 
REMARK    9  A    between atoms: C11_18  and  C12_19 
REMARK   10  A    between atoms: C11_18  and  C13_20 
REMARK   11  A    between atoms: N4_21  and  C14_22 
REMARK   12  A    between atoms: C14_22  and  C15_23 
REMARK   13  A    between atoms: C14_22  and  C16_25 
REMARK       I    between atoms: C15_23  and  N6_40 
REMARK   14  A    between atoms: C16_25  and  C17_26 
REMARK   15  A    between atoms: C17_26  and  C18_27 
REMARK   16  A    between atoms: C17_26  and  C19_28 
REMARK   17  A    between atoms: C20_29  and  C21_30 
REMARK   18  A    between atoms: C20_29  and  C24_33 
REMARK   19  A    between atoms: C20_29  and  N6_40 
REMARK   20  A    between atoms: C21_30  and  C22_31 
REMARK   21  A    between atoms: C22_31  and  C23_32 
REMARK   22  A    between atoms: C23_32  and  O8_43 
REMARK   23  A    between atoms: C24_33  and  C25_34 
REMARK   24  A    between atoms: C28_38  and  O6_39 
REMARK   25  A    between atoms: C29_42  and  O8_43 
REMARK   26  A    between atoms: C29_42  and  C35_49 
ROOT
ATOM      1  C14 non d ame     -32.699  10.369  25.706  0.00  0.00     0.089 C 
ATOM      2  H20 non d ame     -33.556  10.437  25.034  0.00  0.00     0.087 H 
ENDROOT
BRANCH   1   3
ATOM      3  N4  non d ame     -32.175   9.015  25.611  0.00  0.00    -0.346 N 
ATOM      4  C10 non d ame     -32.981   7.930  24.942  0.00  0.00     0.241 C 
ATOM      5  O4  non d ame     -34.051   8.171  24.489  0.00  0.00    -0.271 OA
ATOM      6  H19 non d ame     -31.263   8.831  26.004  0.00  0.00     0.163 HD
BRANCH   4   7
ATOM      7  C9  non d ame     -32.420   6.536  24.848  0.00  0.00     0.092 C 
ATOM      8  H11 non d ame     -31.355   6.562  25.080  0.00  0.00     0.088 H 
BRANCH   7   9
ATOM      9  N3  non d ame     -33.061   5.682  25.850  0.00  0.00    -0.346 N 
ATOM     10  C7  non d ame     -32.676   5.782  27.236  0.00  0.00     0.240 C 
ATOM     11  O3  non d ame     -31.850   6.545  27.562  0.00  0.00    -0.271 OA
ATOM     12  H10 non d ame     -33.774   5.018  25.584  0.00  0.00     0.163 HD
BRANCH  10  13
ATOM     13  C6  non d ame     -33.361   4.868  28.299  0.00  0.00     0.086 C 
ATOM     14  H6  non d ame     -32.744   4.716  29.185  0.00  0.00     0.086 H 
BRANCH  13  15
ATOM     15  N2  non d ame     -34.587   5.506  28.750  0.00  0.00    -0.343 N 
ATOM     16  C5  non d ame     -34.918   5.504  30.177  0.00  0.00     0.273 C 
ATOM     17  O2  non d ame     -34.193   4.986  30.953  0.00  0.00    -0.266 OA
ATOM     18  H5  non d ame     -35.202   5.943  28.079  0.00  0.00     0.163 HD
BRANCH  16  19
ATOM     19  C4  non d ame     -36.210   6.176  30.667  0.00  0.00     0.154 A 
ATOM     20  C1  non d ame     -36.493   7.578  30.710  0.00  0.00    -0.017 A 
ATOM     21  C2  non d ame     -37.801   7.669  31.237  0.00  0.00     0.077 A 
ATOM     22  H1  non d ame     -35.849   8.403  30.407  0.00  0.00     0.091 H 
ATOM     23  O1  non d ame     -38.212   6.456  31.464  0.00  0.00    -0.218 OA
ATOM     24  N1  non d ame     -37.301   5.568  31.140  0.00  0.00    -0.123 NA
BRANCH  21  25
ATOM     25  C3  non d ame     -38.584   8.951  31.490  0.00  0.00    -0.029 C 
ATOM     26  H2  non d ame     -39.173   8.843  32.401  0.00  0.00     0.036 H 
ATOM     27  H3  non d ame     -37.890   9.784  31.603  0.00  0.00     0.036 H 
ATOM     28  H4  non d ame     -39.248   9.143  30.649  0.00  0.00     0.036 H 
ENDBRANCH  21  25
ENDBRANCH  16  19
ENDBRANCH  13  15
BRANCH  13  29
ATOM     29  C8  non d ame     -33.672   3.526  27.685  0.00  0.00    -0.049 C 
ATOM     30  H7  non d ame     -33.662   2.761  28.461  0.00  0.00     0.030 H 
ATOM     31  H8  non d ame     -34.658   3.560  27.221  0.00  0.00     0.030 H 
ATOM     32  H9  non d ame     -32.923   3.289  26.930  0.00  0.00     0.030 H 
ENDBRANCH  13  29
ENDBRANCH  10  13
ENDBRANCH   7   9
BRANCH   7  33
ATOM     33  C11 non d ame     -32.694   5.962  23.427  0.00  0.00    -0.033 C 
ATOM     34  H12 non d ame     -33.538   6.511  23.008  0.00  0.00     0.042 H 
BRANCH  33  35
ATOM     35  C12 non d ame     -31.474   6.180  22.479  0.00  0.00    -0.071 C 
ATOM     36  H13 non d ame     -31.228   7.241  22.441  0.00  0.00     0.028 H 
ATOM     37  H14 non d ame     -30.617   5.622  22.856  0.00  0.00     0.028 H 
ATOM     38  H15 non d ame     -31.725   5.830  21.478  0.00  0.00     0.028 H 
ENDBRANCH  33  35
BRANCH  33  39
ATOM     39  C13 non d ame     -33.091   4.452  23.501  0.00  0.00    -0.071 C 
ATOM     40  H16 non d ame     -34.079   4.357  23.951  0.00  0.00     0.028 H 
ATOM     41  H17 non d ame     -33.106   4.030  22.496  0.00  0.00     0.028 H 
ATOM     42  H18 non d ame     -32.362   3.915  24.108  0.00  0.00     0.028 H 
ENDBRANCH  33  39
ENDBRANCH   7  33
ENDBRANCH   4   7
ENDBRANCH   1   3
BRANCH   1  43
ATOM     43  C15 non d ame     -31.570  11.366  25.321  0.00  0.00     0.240 C 
ATOM     44  O5  non d ame     -30.452  10.979  25.212  0.00  0.00    -0.271 OA
ATOM     45  N6  non d ame     -31.884  12.803  25.077  0.00  0.00    -0.355 N 
ATOM     46  H46 non d ame     -32.831  13.142  25.161  0.00  0.00     0.162 HD
BRANCH  45  47
ATOM     47  C20 non d ame     -30.799  13.739  24.710  0.00  0.00     0.013 C 
ATOM     48  H30 non d ame     -29.868  13.354  25.127  0.00  0.00     0.072 H 
BRANCH  47  49
ATOM     49  C21 non d ame     -31.099  15.103  25.288  0.00  0.00    -0.038 C 
ATOM     50  H31 non d ame     -30.579  15.137  26.247  0.00  0.00     0.036 H 
ATOM     51  H32 non d ame     -30.844  15.817  24.505  0.00  0.00     0.036 H 
BRANCH  49  52
ATOM     52  C22 non d ame     -32.597  15.308  25.596  0.00  0.00     0.018 C 
ATOM     53  H33 non d ame     -33.035  15.708  24.683  0.00  0.00     0.048 H 
ATOM     54  H34 non d ame     -32.948  14.355  25.997  0.00  0.00     0.048 H 
BRANCH  52  55
ATOM     55  C23 non d ame     -32.871  16.364  26.702  0.00  0.00     0.259 C 
ATOM     56  O7  non d ame     -33.238  17.457  26.415  0.00  0.00    -0.265 OA
BRANCH  55  57
ATOM     57  O8  non d ame     -32.664  16.015  28.066  0.00  0.00    -0.317 OA
BRANCH  57  58
ATOM     58  C29 non d ame     -33.465  14.917  28.513  0.00  0.00     0.052 C 
ATOM     59  H47 non d ame     -34.087  15.314  29.315  0.00  0.00     0.082 H 
ATOM     60  H48 non d ame     -33.927  14.504  27.617  0.00  0.00     0.082 H 
BRANCH  58  61
ATOM     61  C35 non d ame     -32.516  13.845  29.114  0.00  0.00    -0.034 A 
ATOM     62  C30 non d ame     -32.986  12.963  30.082  0.00  0.00    -0.075 A 
ATOM     63  C31 non d ame     -32.133  12.001  30.622  0.00  0.00    -0.082 A 
ATOM     64  H49 non d ame     -34.020  13.026  30.418  0.00  0.00     0.084 H 
ATOM     65  C32 non d ame     -30.806  11.924  30.193  0.00  0.00    -0.083 A 
ATOM     66  H50 non d ame     -32.505  11.310  31.380  0.00  0.00     0.083 H 
ATOM     67  C33 non d ame     -30.341  12.809  29.229  0.00  0.00    -0.082 A 
ATOM     68  H51 non d ame     -30.133  11.174  30.609  0.00  0.00     0.083 H 
ATOM     69  C34 non d ame     -31.189  13.771  28.685  0.00  0.00    -0.075 A 
ATOM     70  H52 non d ame     -29.304  12.748  28.897  0.00  0.00     0.083 H 
ATOM     71  H53 non d ame     -30.817  14.461  27.928  0.00  0.00     0.084 H 
ENDBRANCH  58  61
ENDBRANCH  57  58
ENDBRANCH  55  57
ENDBRANCH  52  55
ENDBRANCH  49  52
ENDBRANCH  47  49
BRANCH  47  72
ATOM     72  C24 non d ame     -30.696  13.840  23.189  0.00  0.00    -0.039 C 
ATOM     73  H35 non d ame     -29.977  13.074  22.896  0.00  0.00     0.036 H 
ATOM     74  H36 non d ame     -31.722  13.791  22.826  0.00  0.00     0.036 H 
BRANCH  72  75
ATOM     75  C25 non d ame     -30.097  15.252  22.728  0.00  0.00    -0.001 C 
ATOM     76  C26 non d ame     -31.242  16.105  21.914  0.00  0.00    -0.035 C 
ATOM     77  C27 non d ame     -30.720  16.523  20.736  0.00  0.00     0.085 C 
ATOM     78  H38 non d ame     -32.056  15.447  21.612  0.00  0.00     0.036 H 
ATOM     79  H39 non d ame     -31.460  17.036  22.439  0.00  0.00     0.036 H 
ATOM     80  N5  non d ame     -29.436  15.757  20.526  0.00  0.00    -0.049 N 
ATOM     81  H40 non d ame     -31.441  16.223  19.974  0.00  0.00     0.075 H 
ATOM     82  H41 non d ame     -30.485  17.578  20.878  0.00  0.00     0.075 H 
ATOM     83  C28 non d ame     -29.075  15.097  21.954  0.00  0.00     0.193 C 
ATOM     84  H42 non d ame     -29.647  15.016  19.873  0.00  0.00     0.280 HD
ATOM     85  H43 non d ame     -28.728  16.442  20.300  0.00  0.00     0.280 HD
ATOM     86  H44 non d ame     -28.289  15.520  22.578  0.00  0.00     0.129 H 
ATOM     87  H37 non d ame     -29.579  15.765  23.537  0.00  0.00     0.046 H 
BRANCH  83  88
ATOM     88  O6  non d ame     -28.730  13.720  21.787  0.00  0.00    -0.369 OA
ATOM     89  H45 non d ame     -29.385  13.291  21.234  0.00  0.00     0.212 HD
ENDBRANCH  83  88
ENDBRANCH  72  75
ENDBRANCH  47  72
ENDBRANCH  45  47
ENDBRANCH   1  43
BRANCH   1  90
ATOM     90  C16 non d ame     -33.146  10.629  27.136  0.00  0.00    -0.035 C 
ATOM     91  H21 non d ame     -32.856   9.740  27.695  0.00  0.00     0.037 H 
ATOM     92  H22 non d ame     -32.723  11.599  27.398  0.00  0.00     0.037 H 
BRANCH  90  93
ATOM     93  C17 non d ame     -34.694  10.764  27.295  0.00  0.00    -0.059 C 
ATOM     94  H23 non d ame     -35.160  10.069  26.597  0.00  0.00     0.038 H 
BRANCH  93  95
ATOM     95  C18 non d ame     -35.173  10.388  28.734  0.00  0.00    -0.073 C 
ATOM     96  H24 non d ame     -36.262  10.353  28.757  0.00  0.00     0.028 H 
ATOM     97  H25 non d ame     -34.773   9.411  29.006  0.00  0.00     0.028 H 
ATOM     98  H26 non d ame     -34.818  11.136  29.442  0.00  0.00     0.028 H 
ENDBRANCH  93  95
BRANCH  93  99
ATOM     99  C19 non d ame     -35.161  12.172  26.916  0.00  0.00    -0.073 C 
ATOM    100  H27 non d ame     -36.155  12.117  26.470  0.00  0.00     0.028 H 
ATOM    101  H28 non d ame     -35.199  12.795  27.809  0.00  0.00     0.028 H 
ATOM    102  H29 non d ame     -34.465  12.606  26.200  0.00  0.00     0.028 H 
ENDBRANCH  93  99
ENDBRANCH  90  93
ENDBRANCH   1  90
TORSDOF 26
ENDMDL
MODEL 5
REMARK VINA RESULT:      -7.1      3.153      7.087
REMARK  26 active torsions:
REMARK  status: ('A' for Active; 'I' for Inactive)
REMARK    1  A    between atoms: C2_2  and  C3_3 
REMARK    2  A    between atoms: C4_6  and  C5_7 
REMARK       I    between atoms: C5_7  and  N2_9 
REMARK    3  A    between atoms: N2_9  and  C6_10 
REMARK    4  A    between atoms: C6_10  and  C7_11 
REMARK    5  A    between atoms: C6_10  and  C8_13 
REMARK       I    between atoms: C7_11  and  N3_14 
REMARK    6  A    between atoms: N3_14  and  C9_15 
REMARK    7  A    between atoms: C9_15  and  C10_16 
REMARK    8  A    between atoms: C9_15  and  C11_18 
REMARK       I    between atoms: C10_16  and  N4_21 
REMARK    9  A    between atoms: C11_18  and  C12_19 
REMARK   10  A    between atoms: C11_18  and  C13_20 
REMARK   11  A    between atoms: N4_21  and  C14_22 
REMARK   12  A    between atoms: C14_22  and  C15_23 
REMARK   13  A    between atoms: C14_22  and  C16_25 
REMARK       I    between atoms: C15_23  and  N6_40 
REMARK   14  A    between atoms: C16_25  and  C17_26 
REMARK   15  A    between atoms: C17_26  and  C18_27 
REMARK   16  A    between atoms: C17_26  and  C19_28 
REMARK   17  A    between atoms: C20_29  and  C21_30 
REMARK   18  A    between atoms: C20_29  and  C24_33 
REMARK   19  A    between atoms: C20_29  and  N6_40 
REMARK   20  A    between atoms: C21_30  and  C22_31 
REMARK   21  A    between atoms: C22_31  and  C23_32 
REMARK   22  A    between atoms: C23_32  and  O8_43 
REMARK   23  A    between atoms: C24_33  and  C25_34 
REMARK   24  A    between atoms: C28_38  and  O6_39 
REMARK   25  A    between atoms: C29_42  and  O8_43 
REMARK   26  A    between atoms: C29_42  and  C35_49 
ROOT
ATOM      1  C14 non d ame     -31.298  13.237  24.891  0.00  0.00     0.089 C 
ATOM      2  H20 non d ame     -30.292  13.123  25.297  0.00  0.00     0.087 H 
ENDROOT
BRANCH   1   3
ATOM      3  N4  non d ame     -31.746  11.923  24.456  0.00  0.00    -0.346 N 
ATOM      4  C10 non d ame     -31.607  10.729  25.367  0.00  0.00     0.241 C 
ATOM      5  O4  non d ame     -31.127  10.850  26.445  0.00  0.00    -0.271 OA
ATOM      6  H19 non d ame     -32.150  11.841  23.533  0.00  0.00     0.163 HD
BRANCH   4   7
ATOM      7  C9  non d ame     -32.082   9.378  24.901  0.00  0.00     0.092 C 
ATOM      8  H11 non d ame     -31.300   8.640  25.083  0.00  0.00     0.088 H 
BRANCH   7   9
ATOM      9  N3  non d ame     -33.251   8.973  25.686  0.00  0.00    -0.346 N 
ATOM     10  C7  non d ame     -33.120   7.964  26.708  0.00  0.00     0.240 C 
ATOM     11  O3  non d ame     -32.080   7.466  26.911  0.00  0.00    -0.271 OA
ATOM     12  H10 non d ame     -34.155   9.392  25.521  0.00  0.00     0.163 HD
BRANCH  10  13
ATOM     13  C6  non d ame     -34.369   7.535  27.538  0.00  0.00     0.086 C 
ATOM     14  H6  non d ame     -35.000   6.820  27.011  0.00  0.00     0.086 H 
BRANCH  13  15
ATOM     15  N2  non d ame     -33.922   6.878  28.755  0.00  0.00    -0.343 N 
ATOM     16  C5  non d ame     -34.199   5.452  28.948  0.00  0.00     0.273 C 
ATOM     17  O2  non d ame     -34.782   4.844  28.120  0.00  0.00    -0.266 OA
ATOM     18  H5  non d ame     -33.428   7.406  29.460  0.00  0.00     0.163 HD
BRANCH  16  19
ATOM     19  C4  non d ame     -33.731   4.744  30.229  0.00  0.00     0.154 A 
ATOM     20  C1  non d ame     -32.691   3.769  30.348  0.00  0.00    -0.017 A 
ATOM     21  C2  non d ame     -32.658   3.437  31.721  0.00  0.00     0.077 A 
ATOM     22  H1  non d ame     -32.058   3.363  29.559  0.00  0.00     0.091 H 
ATOM     23  O1  non d ame     -33.574   4.147  32.312  0.00  0.00    -0.218 OA
ATOM     24  N1  non d ame     -34.214   4.916  31.462  0.00  0.00    -0.123 NA
BRANCH  21  25
ATOM     25  C3  non d ame     -31.722   2.436  32.384  0.00  0.00    -0.029 C 
ATOM     26  H2  non d ame     -31.762   1.489  31.846  0.00  0.00     0.036 H 
ATOM     27  H3  non d ame     -30.703   2.822  32.363  0.00  0.00     0.036 H 
ATOM     28  H4  non d ame     -32.029   2.280  33.417  0.00  0.00     0.036 H 
ENDBRANCH  21  25
ENDBRANCH  16  19
ENDBRANCH  13  15
BRANCH  13  29
ATOM     29  C8  non d ame     -35.191   8.752  27.880  0.00  0.00    -0.049 C 
ATOM     30  H7  non d ame     -34.976   9.061  28.903  0.00  0.00     0.030 H 
ATOM     31  H8  non d ame     -34.940   9.563  27.196  0.00  0.00     0.030 H 
ATOM     32  H9  non d ame     -36.250   8.513  27.788  0.00  0.00     0.030 H 
ENDBRANCH  13  29
ENDBRANCH  10  13
ENDBRANCH   7   9
BRANCH   7  33
ATOM     33  C11 non d ame     -32.471   9.456  23.396  0.00  0.00    -0.033 C 
ATOM     34  H12 non d ame     -32.516  10.511  23.123  0.00  0.00     0.042 H 
BRANCH  33  35
ATOM     35  C12 non d ame     -31.392   8.782  22.493  0.00  0.00    -0.071 C 
ATOM     36  H13 non d ame     -30.486   8.612  23.074  0.00  0.00     0.028 H 
ATOM     37  H14 non d ame     -31.772   7.830  22.124  0.00  0.00     0.028 H 
ATOM     38  H15 non d ame     -31.165   9.435  21.650  0.00  0.00     0.028 H 
ENDBRANCH  33  35
BRANCH  33  39
ATOM     39  C13 non d ame     -33.884   8.835  23.151  0.00  0.00    -0.071 C 
ATOM     40  H16 non d ame     -33.895   7.805  23.508  0.00  0.00     0.028 H 
ATOM     41  H17 non d ame     -34.635   9.415  23.689  0.00  0.00     0.028 H 
ATOM     42  H18 non d ame     -34.109   8.853  22.085  0.00  0.00     0.028 H 
ENDBRANCH  33  39
ENDBRANCH   7  33
ENDBRANCH   4   7
ENDBRANCH   1   3
BRANCH   1  43
ATOM     43  C15 non d ame     -32.301  13.777  25.950  0.00  0.00     0.240 C 
ATOM     44  O5  non d ame     -33.469  13.641  25.781  0.00  0.00    -0.271 OA
ATOM     45  N6  non d ame     -31.804  14.455  27.181  0.00  0.00    -0.355 N 
ATOM     46  H46 non d ame     -30.813  14.571  27.339  0.00  0.00     0.162 HD
BRANCH  45  47
ATOM     47  C20 non d ame     -32.770  14.961  28.181  0.00  0.00     0.013 C 
ATOM     48  H30 non d ame     -33.775  14.758  27.808  0.00  0.00     0.072 H 
BRANCH  47  49
ATOM     49  C21 non d ame     -32.575  16.450  28.355  0.00  0.00    -0.038 C 
ATOM     50  H31 non d ame     -33.440  16.797  28.923  0.00  0.00     0.036 H 
ATOM     51  H32 non d ame     -31.572  16.570  28.762  0.00  0.00     0.036 H 
BRANCH  49  52
ATOM     52  C22 non d ame     -32.597  17.219  27.016  0.00  0.00     0.018 C 
ATOM     53  H33 non d ame     -31.617  17.061  26.569  0.00  0.00     0.048 H 
ATOM     54  H34 non d ame     -33.494  16.879  26.496  0.00  0.00     0.048 H 
BRANCH  52  55
ATOM     55  C23 non d ame     -32.753  18.756  27.178  0.00  0.00     0.259 C 
ATOM     56  O7  non d ame     -32.056  19.501  26.568  0.00  0.00    -0.265 OA
BRANCH  55  57
ATOM     57  O8  non d ame     -33.730  19.267  28.078  0.00  0.00    -0.317 OA
BRANCH  57  58
ATOM     58  C29 non d ame     -34.850  19.880  27.432  0.00  0.00     0.052 C 
ATOM     59  H47 non d ame     -35.383  20.418  28.216  0.00  0.00     0.082 H 
ATOM     60  H48 non d ame     -34.439  20.422  26.581  0.00  0.00     0.082 H 
BRANCH  58  61
ATOM     61  C35 non d ame     -35.772  18.752  26.897  0.00  0.00    -0.034 A 
ATOM     62  C30 non d ame     -36.279  17.795  27.770  0.00  0.00    -0.075 A 
ATOM     63  C31 non d ame     -37.107  16.780  27.289  0.00  0.00    -0.082 A 
ATOM     64  H49 non d ame     -36.029  17.838  28.830  0.00  0.00     0.084 H 
ATOM     65  C32 non d ame     -37.425  16.725  25.930  0.00  0.00    -0.083 A 
ATOM     66  H50 non d ame     -37.505  16.033  27.976  0.00  0.00     0.083 H 
ATOM     67  C33 non d ame     -36.913  17.680  25.062  0.00  0.00    -0.082 A 
ATOM     68  H51 non d ame     -38.072  15.936  25.546  0.00  0.00     0.083 H 
ATOM     69  C34 non d ame     -36.087  18.696  25.538  0.00  0.00    -0.075 A 
ATOM     70  H52 non d ame     -37.161  17.633  24.001  0.00  0.00     0.083 H 
ATOM     71  H53 non d ame     -35.690  19.443  24.851  0.00  0.00     0.084 H 
ENDBRANCH  58  61
ENDBRANCH  57  58
ENDBRANCH  55  57
ENDBRANCH  52  55
ENDBRANCH  49  52
ENDBRANCH  47  49
BRANCH  47  72
ATOM     72  C24 non d ame     -32.548  14.257  29.518  0.00  0.00    -0.039 C 
ATOM     73  H35 non d ame     -31.824  14.873  30.052  0.00  0.00     0.036 H 
ATOM     74  H36 non d ame     -33.544  14.104  29.933  0.00  0.00     0.036 H 
BRANCH  72  75
ATOM     75  C25 non d ame     -31.889  12.811  29.324  0.00  0.00    -0.001 C 
ATOM     76  C26 non d ame     -33.062  11.659  29.309  0.00  0.00    -0.035 C 
ATOM     77  C27 non d ame     -32.734  10.690  30.197  0.00  0.00     0.085 C 
ATOM     78  H38 non d ame     -33.991  12.066  29.707  0.00  0.00     0.036 H 
ATOM     79  H39 non d ame     -33.061  11.137  28.351  0.00  0.00     0.036 H 
ATOM     80  N5  non d ame     -31.616  11.235  31.051  0.00  0.00    -0.049 N 
ATOM     81  H40 non d ame     -33.621  10.552  30.817  0.00  0.00     0.075 H 
ATOM     82  H41 non d ame     -32.354   9.863  29.598  0.00  0.00     0.075 H 
ATOM     83  C28 non d ame     -31.063  12.541  30.280  0.00  0.00     0.193 C 
ATOM     84  H42 non d ame     -32.037  11.529  31.921  0.00  0.00     0.280 HD
ATOM     85  H43 non d ame     -30.890  10.532  31.054  0.00  0.00     0.280 HD
ATOM     86  H44 non d ame     -30.126  12.502  29.726  0.00  0.00     0.129 H 
ATOM     87  H37 non d ame     -31.165  12.792  28.510  0.00  0.00     0.046 H 
BRANCH  83  88
ATOM     88  O6  non d ame     -30.922  13.631  31.194  0.00  0.00    -0.369 OA
ATOM     89  H45 non d ame     -31.214  14.442  30.772  0.00  0.00     0.212 HD
ENDBRANCH  83  88
ENDBRANCH  72  75
ENDBRANCH  47  72
ENDBRANCH  45  47
ENDBRANCH   1  43
BRANCH   1  90
ATOM     90  C16 non d ame     -31.266  14.173  23.693  0.00  0.00    -0.035 C 
ATOM     91  H21 non d ame     -31.903  13.704  22.944  0.00  0.00     0.037 H 
ATOM     92  H22 non d ame     -31.523  15.155  24.088  0.00  0.00     0.037 H 
BRANCH  90  93
ATOM     93  C17 non d ame     -29.853  14.313  23.044  0.00  0.00    -0.059 C 
ATOM     94  H23 non d ame     -29.117  14.302  23.848  0.00  0.00     0.038 H 
BRANCH  93  95
ATOM     95  C18 non d ame     -29.526  13.126  22.082  0.00  0.00    -0.073 C 
ATOM     96  H24 non d ame     -29.106  12.299  22.654  0.00  0.00     0.028 H 
ATOM     97  H25 non d ame     -30.440  12.797  21.588  0.00  0.00     0.028 H 
ATOM     98  H26 non d ame     -28.806  13.453  21.333  0.00  0.00     0.028 H 
ENDBRANCH  93  95
BRANCH  93  99
ATOM     99  C19 non d ame     -29.715  15.655  22.320  0.00  0.00    -0.073 C 
ATOM    100  H27 non d ame     -29.222  15.500  21.359  0.00  0.00     0.028 H 
ATOM    101  H28 non d ame     -30.704  16.082  22.155  0.00  0.00     0.028 H 
ATOM    102  H29 non d ame     -29.122  16.337  22.928  0.00  0.00     0.028 H 
ENDBRANCH  93  99
ENDBRANCH  90  93
ENDBRANCH   1  90
TORSDOF 26
ENDMDL
MODEL 6
REMARK VINA RESULT:      -7.1      3.237      7.260
REMARK  26 active torsions:
REMARK  status: ('A' for Active; 'I' for Inactive)
REMARK    1  A    between atoms: C2_2  and  C3_3 
REMARK    2  A    between atoms: C4_6  and  C5_7 
REMARK       I    between atoms: C5_7  and  N2_9 
REMARK    3  A    between atoms: N2_9  and  C6_10 
REMARK    4  A    between atoms: C6_10  and  C7_11 
REMARK    5  A    between atoms: C6_10  and  C8_13 
REMARK       I    between atoms: C7_11  and  N3_14 
REMARK    6  A    between atoms: N3_14  and  C9_15 
REMARK    7  A    between atoms: C9_15  and  C10_16 
REMARK    8  A    between atoms: C9_15  and  C11_18 
REMARK       I    between atoms: C10_16  and  N4_21 
REMARK    9  A    between atoms: C11_18  and  C12_19 
REMARK   10  A    between atoms: C11_18  and  C13_20 
REMARK   11  A    between atoms: N4_21  and  C14_22 
REMARK   12  A    between atoms: C14_22  and  C15_23 
REMARK   13  A    between atoms: C14_22  and  C16_25 
REMARK       I    between atoms: C15_23  and  N6_40 
REMARK   14  A    between atoms: C16_25  and  C17_26 
REMARK   15  A    between atoms: C17_26  and  C18_27 
REMARK   16  A    between atoms: C17_26  and  C19_28 
REMARK   17  A    between atoms: C20_29  and  C21_30 
REMARK   18  A    between atoms: C20_29  and  C24_33 
REMARK   19  A    between atoms: C20_29  and  N6_40 
REMARK   20  A    between atoms: C21_30  and  C22_31 
REMARK   21  A    between atoms: C22_31  and  C23_32 
REMARK   22  A    between atoms: C23_32  and  O8_43 
REMARK   23  A    between atoms: C24_33  and  C25_34 
REMARK   24  A    between atoms: C28_38  and  O6_39 
REMARK   25  A    between atoms: C29_42  and  O8_43 
REMARK   26  A    between atoms: C29_42  and  C35_49 
ROOT
ATOM      1  C14 non d ame     -32.966  10.220  25.427  0.00  0.00     0.089 C 
ATOM      2  H20 non d ame     -33.666  10.288  24.593  0.00  0.00     0.087 H 
ENDROOT
BRANCH   1   3
ATOM      3  N4  non d ame     -32.424   8.869  25.433  0.00  0.00    -0.346 N 
ATOM      4  C10 non d ame     -33.195   7.736  24.804  0.00  0.00     0.241 C 
ATOM      5  O4  non d ame     -34.252   7.934  24.302  0.00  0.00    -0.271 OA
ATOM      6  H19 non d ame     -31.524   8.721  25.868  0.00  0.00     0.163 HD
BRANCH   4   7
ATOM      7  C9  non d ame     -32.616   6.345  24.815  0.00  0.00     0.092 C 
ATOM      8  H11 non d ame     -31.543   6.405  25.000  0.00  0.00     0.088 H 
BRANCH   7   9
ATOM      9  N3  non d ame     -33.204   5.579  25.917  0.00  0.00    -0.346 N 
ATOM     10  C7  non d ame     -32.698   5.741  27.258  0.00  0.00     0.240 C 
ATOM     11  O3  non d ame     -31.817   6.483  27.468  0.00  0.00    -0.271 OA
ATOM     12  H10 non d ame     -33.963   4.934  25.752  0.00  0.00     0.163 HD
BRANCH  10  13
ATOM     13  C6  non d ame     -33.326   4.920  28.427  0.00  0.00     0.086 C 
ATOM     14  H6  non d ame     -32.683   4.880  29.307  0.00  0.00     0.086 H 
BRANCH  13  15
ATOM     15  N2  non d ame     -34.561   5.563  28.844  0.00  0.00    -0.343 N 
ATOM     16  C5  non d ame     -34.945   5.540  30.258  0.00  0.00     0.273 C 
ATOM     17  O2  non d ame     -34.255   4.999  31.050  0.00  0.00    -0.266 OA
ATOM     18  H5  non d ame     -35.147   6.019  28.159  0.00  0.00     0.163 HD
BRANCH  16  19
ATOM     19  C4  non d ame     -36.247   6.216  30.712  0.00  0.00     0.154 A 
ATOM     20  C1  non d ame     -36.535   7.618  30.724  0.00  0.00    -0.017 A 
ATOM     21  C2  non d ame     -37.852   7.715  31.226  0.00  0.00     0.077 A 
ATOM     22  H1  non d ame     -35.887   8.439  30.418  0.00  0.00     0.091 H 
ATOM     23  O1  non d ame     -38.265   6.504  31.467  0.00  0.00    -0.218 OA
ATOM     24  N1  non d ame     -37.345   5.613  31.176  0.00  0.00    -0.123 NA
BRANCH  21  25
ATOM     25  C3  non d ame     -38.643   8.998  31.441  0.00  0.00    -0.029 C 
ATOM     26  H2  non d ame     -38.601   9.607  30.538  0.00  0.00     0.036 H 
ATOM     27  H3  non d ame     -39.681   8.752  31.665  0.00  0.00     0.036 H 
ATOM     28  H4  non d ame     -38.214   9.554  32.274  0.00  0.00     0.036 H 
ENDBRANCH  21  25
ENDBRANCH  16  19
ENDBRANCH  13  15
BRANCH  13  29
ATOM     29  C8  non d ame     -33.607   3.513  27.963  0.00  0.00    -0.049 C 
ATOM     30  H7  non d ame     -33.041   2.809  28.572  0.00  0.00     0.030 H 
ATOM     31  H8  non d ame     -34.673   3.305  28.062  0.00  0.00     0.030 H 
ATOM     32  H9  non d ame     -33.312   3.410  26.919  0.00  0.00     0.030 H 
ENDBRANCH  13  29
ENDBRANCH  10  13
ENDBRANCH   7   9
BRANCH   7  33
ATOM     33  C11 non d ame     -32.938   5.640  23.466  0.00  0.00    -0.033 C 
ATOM     34  H12 non d ame     -33.842   6.098  23.063  0.00  0.00     0.042 H 
BRANCH  33  35
ATOM     35  C12 non d ame     -31.797   5.855  22.423  0.00  0.00    -0.071 C 
ATOM     36  H13 non d ame     -31.223   6.743  22.691  0.00  0.00     0.028 H 
ATOM     37  H14 non d ame     -31.140   4.986  22.420  0.00  0.00     0.028 H 
ATOM     38  H15 non d ame     -32.230   5.989  21.432  0.00  0.00     0.028 H 
ENDBRANCH  33  35
BRANCH  33  39
ATOM     39  C13 non d ame     -33.225   4.119  23.684  0.00  0.00    -0.071 C 
ATOM     40  H16 non d ame     -33.792   3.731  22.838  0.00  0.00     0.028 H 
ATOM     41  H17 non d ame     -32.282   3.579  23.769  0.00  0.00     0.028 H 
ATOM     42  H18 non d ame     -33.802   3.986  24.599  0.00  0.00     0.028 H 
ENDBRANCH  33  39
ENDBRANCH   7  33
ENDBRANCH   4   7
ENDBRANCH   1   3
BRANCH   1  43
ATOM     43  C15 non d ame     -31.788  11.226  25.290  0.00  0.00     0.240 C 
ATOM     44  O5  non d ame     -30.689  10.894  25.598  0.00  0.00    -0.271 OA
ATOM     45  N6  non d ame     -32.028  12.600  24.764  0.00  0.00    -0.355 N 
ATOM     46  H46 non d ame     -32.956  12.891  24.494  0.00  0.00     0.162 HD
BRANCH  45  47
ATOM     47  C20 non d ame     -30.897  13.545  24.637  0.00  0.00     0.013 C 
ATOM     48  H30 non d ame     -30.052  13.133  25.191  0.00  0.00     0.072 H 
BRANCH  47  49
ATOM     49  C21 non d ame     -31.294  14.881  25.221  0.00  0.00    -0.038 C 
ATOM     50  H31 non d ame     -30.410  15.249  25.745  0.00  0.00     0.036 H 
ATOM     51  H32 non d ame     -31.713  15.451  24.393  0.00  0.00     0.036 H 
BRANCH  49  52
ATOM     52  C22 non d ame     -32.411  14.765  26.281  0.00  0.00     0.018 C 
ATOM     53  H33 non d ame     -33.087  15.597  26.090  0.00  0.00     0.048 H 
ATOM     54  H34 non d ame     -32.777  13.739  26.212  0.00  0.00     0.048 H 
BRANCH  52  55
ATOM     55  C23 non d ame     -31.911  14.944  27.740  0.00  0.00     0.259 C 
ATOM     56  O7  non d ame     -30.924  14.396  28.112  0.00  0.00    -0.265 OA
BRANCH  55  57
ATOM     57  O8  non d ame     -32.655  15.761  28.637  0.00  0.00    -0.317 OA
BRANCH  57  58
ATOM     58  C29 non d ame     -33.908  16.210  28.111  0.00  0.00     0.052 C 
ATOM     59  H47 non d ame     -34.090  15.602  27.225  0.00  0.00     0.082 H 
ATOM     60  H48 non d ame     -34.607  16.180  28.946  0.00  0.00     0.082 H 
BRANCH  58  61
ATOM     61  C35 non d ame     -33.738  17.688  27.666  0.00  0.00    -0.034 A 
ATOM     62  C30 non d ame     -34.668  18.268  26.809  0.00  0.00    -0.075 A 
ATOM     63  C31 non d ame     -34.515  19.595  26.409  0.00  0.00    -0.082 A 
ATOM     64  H49 non d ame     -35.515  17.684  26.450  0.00  0.00     0.084 H 
ATOM     65  C32 non d ame     -33.426  20.341  26.867  0.00  0.00    -0.083 A 
ATOM     66  H50 non d ame     -35.247  20.048  25.738  0.00  0.00     0.083 H 
ATOM     67  C33 non d ame     -32.500  19.757  27.719  0.00  0.00    -0.082 A 
ATOM     68  H51 non d ame     -33.301  21.380  26.560  0.00  0.00     0.083 H 
ATOM     69  C34 non d ame     -32.649  18.432  28.123  0.00  0.00    -0.075 A 
ATOM     70  H52 non d ame     -31.650  20.341  28.074  0.00  0.00     0.083 H 
ATOM     71  H53 non d ame     -31.917  17.980  28.794  0.00  0.00     0.084 H 
ENDBRANCH  58  61
ENDBRANCH  57  58
ENDBRANCH  55  57
ENDBRANCH  52  55
ENDBRANCH  49  52
ENDBRANCH  47  49
BRANCH  47  72
ATOM     72  C24 non d ame     -30.531  13.719  23.165  0.00  0.00    -0.039 C 
ATOM     73  H35 non d ame     -29.650  13.095  23.010  0.00  0.00     0.036 H 
ATOM     74  H36 non d ame     -31.448  13.513  22.613  0.00  0.00     0.036 H 
BRANCH  72  75
ATOM     75  C25 non d ame     -30.107  15.228  22.834  0.00  0.00    -0.001 C 
ATOM     76  C26 non d ame     -31.276  15.951  21.931  0.00  0.00    -0.035 C 
ATOM     77  C27 non d ame     -30.701  16.508  20.838  0.00  0.00     0.085 C 
ATOM     78  H38 non d ame     -31.944  15.199  21.513  0.00  0.00     0.036 H 
ATOM     79  H39 non d ame     -31.685  16.807  22.467  0.00  0.00     0.036 H 
ATOM     80  N5  non d ame     -29.301  15.951  20.744  0.00  0.00    -0.049 N 
ATOM     81  H40 non d ame     -31.283  16.151  19.989  0.00  0.00     0.075 H 
ATOM     82  H41 non d ame     -30.644  17.575  21.050  0.00  0.00     0.075 H 
ATOM     83  C28 non d ame     -28.997  15.268  22.175  0.00  0.00     0.193 C 
ATOM     84  H42 non d ame     -29.327  15.226  20.041  0.00  0.00     0.280 HD
ATOM     85  H43 non d ame     -28.685  16.744  20.628  0.00  0.00     0.280 HD
ATOM     86  H44 non d ame     -28.354  15.765  22.900  0.00  0.00     0.129 H 
ATOM     87  H37 non d ame     -29.761  15.763  23.717  0.00  0.00     0.046 H 
BRANCH  83  88
ATOM     88  O6  non d ame     -28.432  13.968  21.991  0.00  0.00    -0.369 OA
ATOM     89  H45 non d ame     -29.136  13.318  21.935  0.00  0.00     0.212 HD
ENDBRANCH  83  88
ENDBRANCH  72  75
ENDBRANCH  47  72
ENDBRANCH  45  47
ENDBRANCH   1  43
BRANCH   1  90
ATOM     90  C16 non d ame     -33.699  10.466  26.736  0.00  0.00    -0.035 C 
ATOM     91  H21 non d ame     -33.823  11.547  26.799  0.00  0.00     0.037 H 
ATOM     92  H22 non d ame     -34.575   9.819  26.702  0.00  0.00     0.037 H 
BRANCH  90  93
ATOM     93  C17 non d ame     -32.885  10.042  28.000  0.00  0.00    -0.059 C 
ATOM     94  H23 non d ame     -31.992   9.520  27.659  0.00  0.00     0.038 H 
BRANCH  93  95
ATOM     95  C18 non d ame     -32.426  11.273  28.845  0.00  0.00    -0.073 C 
ATOM     96  H24 non d ame     -32.798  11.174  29.864  0.00  0.00     0.028 H 
ATOM     97  H25 non d ame     -31.336  11.318  28.859  0.00  0.00     0.028 H 
ATOM     98  H26 non d ame     -32.820  12.187  28.401  0.00  0.00     0.028 H 
ENDBRANCH  93  95
BRANCH  93  99
ATOM     99  C19 non d ame     -33.685   9.060  28.860  0.00  0.00    -0.073 C 
ATOM    100  H27 non d ame     -33.858   9.496  29.845  0.00  0.00     0.028 H 
ATOM    101  H28 non d ame     -34.642   8.853  28.382  0.00  0.00     0.028 H 
ATOM    102  H29 non d ame     -33.125   8.131  28.967  0.00  0.00     0.028 H 
ENDBRANCH  93  99
ENDBRANCH  90  93
ENDBRANCH   1  90
TORSDOF 26
ENDMDL
MODEL 7
REMARK VINA RESULT:      -7.1      1.860      3.655
REMARK  26 active torsions:
REMARK  status: ('A' for Active; 'I' for Inactive)
REMARK    1  A    between atoms: C2_2  and  C3_3 
REMARK    2  A    between atoms: C4_6  and  C5_7 
REMARK       I    between atoms: C5_7  and  N2_9 
REMARK    3  A    between atoms: N2_9  and  C6_10 
REMARK    4  A    between atoms: C6_10  and  C7_11 
REMARK    5  A    between atoms: C6_10  and  C8_13 
REMARK       I    between atoms: C7_11  and  N3_14 
REMARK    6  A    between atoms: N3_14  and  C9_15 
REMARK    7  A    between atoms: C9_15  and  C10_16 
REMARK    8  A    between atoms: C9_15  and  C11_18 
REMARK       I    between atoms: C10_16  and  N4_21 
REMARK    9  A    between atoms: C11_18  and  C12_19 
REMARK   10  A    between atoms: C11_18  and  C13_20 
REMARK   11  A    between atoms: N4_21  and  C14_22 
REMARK   12  A    between atoms: C14_22  and  C15_23 
REMARK   13  A    between atoms: C14_22  and  C16_25 
REMARK       I    between atoms: C15_23  and  N6_40 
REMARK   14  A    between atoms: C16_25  and  C17_26 
REMARK   15  A    between atoms: C17_26  and  C18_27 
REMARK   16  A    between atoms: C17_26  and  C19_28 
REMARK   17  A    between atoms: C20_29  and  C21_30 
REMARK   18  A    between atoms: C20_29  and  C24_33 
REMARK   19  A    between atoms: C20_29  and  N6_40 
REMARK   20  A    between atoms: C21_30  and  C22_31 
REMARK   21  A    between atoms: C22_31  and  C23_32 
REMARK   22  A    between atoms: C23_32  and  O8_43 
REMARK   23  A    between atoms: C24_33  and  C25_34 
REMARK   24  A    between atoms: C28_38  and  O6_39 
REMARK   25  A    between atoms: C29_42  and  O8_43 
REMARK   26  A    between atoms: C29_42  and  C35_49 
ROOT
ATOM      1  C14 non d ame     -30.697  14.108  23.841  0.00  0.00     0.089 C 
ATOM      2  H20 non d ame     -29.618  13.959  23.782  0.00  0.00     0.087 H 
ENDROOT
BRANCH   1   3
ATOM      3  N4  non d ame     -31.300  12.820  24.151  0.00  0.00    -0.346 N 
ATOM      4  C10 non d ame     -30.776  11.559  23.510  0.00  0.00     0.241 C 
ATOM      5  O4  non d ame     -29.871  11.606  22.745  0.00  0.00    -0.271 OA
ATOM      6  H19 non d ame     -32.070  12.802  24.804  0.00  0.00     0.163 HD
BRANCH   4   7
ATOM      7  C9  non d ame     -31.408  10.235  23.849  0.00  0.00     0.092 C 
ATOM      8  H11 non d ame     -30.853   9.770  24.664  0.00  0.00     0.088 H 
BRANCH   7   9
ATOM      9  N3  non d ame     -32.776  10.453  24.325  0.00  0.00    -0.346 N 
ATOM     10  C7  non d ame     -33.023  10.690  25.726  0.00  0.00     0.240 C 
ATOM     11  O3  non d ame     -32.131  10.708  26.484  0.00  0.00    -0.271 OA
ATOM     12  H10 non d ame     -33.556  10.439  23.683  0.00  0.00     0.163 HD
BRANCH  10  13
ATOM     13  C6  non d ame     -34.483  10.919  26.227  0.00  0.00     0.086 C 
ATOM     14  H6  non d ame     -35.221  10.830  25.431  0.00  0.00     0.086 H 
BRANCH  13  15
ATOM     15  N2  non d ame     -34.807   9.900  27.212  0.00  0.00    -0.343 N 
ATOM     16  C5  non d ame     -35.399   8.634  26.771  0.00  0.00     0.273 C 
ATOM     17  O2  non d ame     -35.611   8.447  25.623  0.00  0.00    -0.266 OA
ATOM     18  H5  non d ame     -34.626  10.070  28.190  0.00  0.00     0.163 HD
BRANCH  16  19
ATOM     19  C4  non d ame     -35.745   7.547  27.800  0.00  0.00     0.154 A 
ATOM     20  C1  non d ame     -36.944   7.439  28.573  0.00  0.00    -0.017 A 
ATOM     21  C2  non d ame     -36.768   6.278  29.358  0.00  0.00     0.077 A 
ATOM     22  H1  non d ame     -37.809   8.103  28.568  0.00  0.00     0.091 H 
ATOM     23  O1  non d ame     -35.602   5.782  29.060  0.00  0.00    -0.218 OA
ATOM     24  N1  non d ame     -34.987   6.506  28.154  0.00  0.00    -0.123 NA
BRANCH  21  25
ATOM     25  C3  non d ame     -37.760   5.711  30.364  0.00  0.00    -0.029 C 
ATOM     26  H2  non d ame     -37.377   4.771  30.763  0.00  0.00     0.036 H 
ATOM     27  H3  non d ame     -37.898   6.421  31.179  0.00  0.00     0.036 H 
ATOM     28  H4  non d ame     -38.716   5.533  29.872  0.00  0.00     0.036 H 
ENDBRANCH  21  25
ENDBRANCH  16  19
ENDBRANCH  13  15
BRANCH  13  29
ATOM     29  C8  non d ame     -34.595  12.289  26.847  0.00  0.00    -0.049 C 
ATOM     30  H7  non d ame     -35.647  12.554  26.954  0.00  0.00     0.030 H 
ATOM     31  H8  non d ame     -34.120  12.284  27.828  0.00  0.00     0.030 H 
ATOM     32  H9  non d ame     -34.100  13.019  26.207  0.00  0.00     0.030 H 
ENDBRANCH  13  29
ENDBRANCH  10  13
ENDBRANCH   7   9
BRANCH   7  33
ATOM     33  C11 non d ame     -31.440   9.336  22.578  0.00  0.00    -0.033 C 
ATOM     34  H12 non d ame     -31.176   9.963  21.726  0.00  0.00     0.042 H 
BRANCH  33  35
ATOM     35  C12 non d ame     -30.383   8.191  22.663  0.00  0.00    -0.071 C 
ATOM     36  H13 non d ame     -29.389   8.622  22.779  0.00  0.00     0.028 H 
ATOM     37  H14 non d ame     -30.606   7.555  23.519  0.00  0.00     0.028 H 
ATOM     38  H15 non d ame     -30.417   7.597  21.750  0.00  0.00     0.028 H 
ENDBRANCH  33  35
BRANCH  33  39
ATOM     39  C13 non d ame     -32.874   8.766  22.332  0.00  0.00    -0.071 C 
ATOM     40  H16 non d ame     -33.245   9.117  21.368  0.00  0.00     0.028 H 
ATOM     41  H17 non d ame     -32.838   7.676  22.333  0.00  0.00     0.028 H 
ATOM     42  H18 non d ame     -33.541   9.106  23.124  0.00  0.00     0.028 H 
ENDBRANCH  33  39
ENDBRANCH   7  33
ENDBRANCH   4   7
ENDBRANCH   1   3
BRANCH   1  43
ATOM     43  C15 non d ame     -31.091  15.121  24.953  0.00  0.00     0.240 C 
ATOM     44  O5  non d ame     -30.731  16.251  24.877  0.00  0.00    -0.271 OA
ATOM     45  N6  non d ame     -31.927  14.685  26.107  0.00  0.00    -0.355 N 
ATOM     46  H46 non d ame     -32.244  13.728  26.179  0.00  0.00     0.162 HD
BRANCH  45  47
ATOM     47  C20 non d ame     -32.295  15.660  27.157  0.00  0.00     0.013 C 
ATOM     48  H30 non d ame     -31.438  16.312  27.323  0.00  0.00     0.072 H 
BRANCH  47  49
ATOM     49  C21 non d ame     -32.637  14.920  28.430  0.00  0.00    -0.038 C 
ATOM     50  H31 non d ame     -33.167  15.639  29.056  0.00  0.00     0.036 H 
ATOM     51  H32 non d ame     -33.133  14.003  28.113  0.00  0.00     0.036 H 
BRANCH  49  52
ATOM     52  C22 non d ame     -31.387  14.488  29.226  0.00  0.00     0.018 C 
ATOM     53  H33 non d ame     -30.536  14.706  28.582  0.00  0.00     0.048 H 
ATOM     54  H34 non d ame     -31.473  14.977  30.198  0.00  0.00     0.048 H 
BRANCH  52  55
ATOM     55  C23 non d ame     -31.325  12.963  29.517  0.00  0.00     0.259 C 
ATOM     56  O7  non d ame     -30.423  12.307  29.109  0.00  0.00    -0.265 OA
BRANCH  55  57
ATOM     57  O8  non d ame     -32.370  12.354  30.267  0.00  0.00    -0.317 OA
BRANCH  57  58
ATOM     58  C29 non d ame     -32.669  11.014  29.865  0.00  0.00     0.052 C 
ATOM     59  H47 non d ame     -33.134  11.098  28.883  0.00  0.00     0.082 H 
ATOM     60  H48 non d ame     -31.741  10.456  29.983  0.00  0.00     0.082 H 
BRANCH  58  61
ATOM     61  C35 non d ame     -33.716  10.439  30.856  0.00  0.00    -0.034 A 
ATOM     62  C30 non d ame     -34.216  11.236  31.881  0.00  0.00    -0.075 A 
ATOM     63  C31 non d ame     -35.156  10.719  32.772  0.00  0.00    -0.082 A 
ATOM     64  H49 non d ame     -33.871  12.264  31.988  0.00  0.00     0.084 H 
ATOM     65  C32 non d ame     -35.595   9.399  32.635  0.00  0.00    -0.083 A 
ATOM     66  H50 non d ame     -35.547  11.347  33.574  0.00  0.00     0.083 H 
ATOM     67  C33 non d ame     -35.091   8.607  31.613  0.00  0.00    -0.082 A 
ATOM     68  H51 non d ame     -36.330   8.988  33.327  0.00  0.00     0.083 H 
ATOM     69  C34 non d ame     -34.153   9.120  30.719  0.00  0.00    -0.075 A 
ATOM     70  H52 non d ame     -35.434   7.577  31.510  0.00  0.00     0.083 H 
ATOM     71  H53 non d ame     -33.763   8.492  29.918  0.00  0.00     0.084 H 
ENDBRANCH  58  61
ENDBRANCH  57  58
ENDBRANCH  55  57
ENDBRANCH  52  55
ENDBRANCH  49  52
ENDBRANCH  47  49
BRANCH  47  72
ATOM     72  C24 non d ame     -33.503  16.477  26.702  0.00  0.00    -0.039 C 
ATOM     73  H35 non d ame     -33.802  16.044  25.747  0.00  0.00     0.036 H 
ATOM     74  H36 non d ame     -34.193  16.468  27.545  0.00  0.00     0.036 H 
BRANCH  72  75
ATOM     75  C25 non d ame     -33.114  18.007  26.426  0.00  0.00    -0.001 C 
ATOM     76  C26 non d ame     -32.667  18.732  27.832  0.00  0.00    -0.035 C 
ATOM     77  C27 non d ame     -33.369  19.882  27.973  0.00  0.00     0.085 C 
ATOM     78  H38 non d ame     -32.988  18.131  28.682  0.00  0.00     0.036 H 
ATOM     79  H39 non d ame     -31.633  19.072  27.765  0.00  0.00     0.036 H 
ATOM     80  N5  non d ame     -34.488  19.842  26.960  0.00  0.00    -0.049 N 
ATOM     81  H40 non d ame     -33.797  19.841  28.976  0.00  0.00     0.075 H 
ATOM     82  H41 non d ame     -32.678  20.681  27.707  0.00  0.00     0.075 H 
ATOM     83  C28 non d ame     -34.110  18.660  25.927  0.00  0.00     0.193 C 
ATOM     84  H42 non d ame     -35.322  19.574  27.463  0.00  0.00     0.280 HD
ATOM     85  H43 non d ame     -34.458  20.723  26.466  0.00  0.00     0.280 HD
ATOM     86  H44 non d ame     -33.718  18.893  24.938  0.00  0.00     0.129 H 
ATOM     87  H37 non d ame     -32.441  18.115  25.576  0.00  0.00     0.046 H 
BRANCH  83  88
ATOM     88  O6  non d ame     -35.245  17.822  25.700  0.00  0.00    -0.369 OA
ATOM     89  H45 non d ame     -35.204  17.460  24.812  0.00  0.00     0.212 HD
ENDBRANCH  83  88
ENDBRANCH  72  75
ENDBRANCH  47  72
ENDBRANCH  45  47
ENDBRANCH   1  43
BRANCH   1  90
ATOM     90  C16 non d ame     -31.224  14.591  22.499  0.00  0.00    -0.035 C 
ATOM     91  H21 non d ame     -31.874  13.793  22.139  0.00  0.00     0.037 H 
ATOM     92  H22 non d ame     -31.634  15.582  22.690  0.00  0.00     0.037 H 
BRANCH  90  93
ATOM     93  C17 non d ame     -30.112  14.773  21.417  0.00  0.00    -0.059 C 
ATOM     94  H23 non d ame     -29.928  13.799  20.964  0.00  0.00     0.038 H 
BRANCH  93  95
ATOM     95  C18 non d ame     -30.551  15.752  20.281  0.00  0.00    -0.073 C 
ATOM     96  H24 non d ame     -31.534  16.161  20.513  0.00  0.00     0.028 H 
ATOM     97  H25 non d ame     -29.829  16.566  20.204  0.00  0.00     0.028 H 
ATOM     98  H26 non d ame     -30.594  15.215  19.335  0.00  0.00     0.028 H 
ENDBRANCH  93  95
BRANCH  93  99
ATOM     99  C19 non d ame     -28.799  15.234  22.056  0.00  0.00    -0.073 C 
ATOM    100  H27 non d ame     -27.967  14.683  21.615  0.00  0.00     0.028 H 
ATOM    101  H28 non d ame     -28.662  16.300  21.877  0.00  0.00     0.028 H 
ATOM    102  H29 non d ame     -28.832  15.047  23.129  0.00  0.00     0.028 H 
ENDBRANCH  93  99
ENDBRANCH  90  93
ENDBRANCH   1  90
TORSDOF 26
ENDMDL
MODEL 8
REMARK VINA RESULT:      -7.0      2.221      8.556
REMARK  26 active torsions:
REMARK  status: ('A' for Active; 'I' for Inactive)
REMARK    1  A    between atoms: C2_2  and  C3_3 
REMARK    2  A    between atoms: C4_6  and  C5_7 
REMARK       I    between atoms: C5_7  and  N2_9 
REMARK    3  A    between atoms: N2_9  and  C6_10 
REMARK    4  A    between atoms: C6_10  and  C7_11 
REMARK    5  A    between atoms: C6_10  and  C8_13 
REMARK       I    between atoms: C7_11  and  N3_14 
REMARK    6  A    between atoms: N3_14  and  C9_15 
REMARK    7  A    between atoms: C9_15  and  C10_16 
REMARK    8  A    between atoms: C9_15  and  C11_18 
REMARK       I    between atoms: C10_16  and  N4_21 
REMARK    9  A    between atoms: C11_18  and  C12_19 
REMARK   10  A    between atoms: C11_18  and  C13_20 
REMARK   11  A    between atoms: N4_21  and  C14_22 
REMARK   12  A    between atoms: C14_22  and  C15_23 
REMARK   13  A    between atoms: C14_22  and  C16_25 
REMARK       I    between atoms: C15_23  and  N6_40 
REMARK   14  A    between atoms: C16_25  and  C17_26 
REMARK   15  A    between atoms: C17_26  and  C18_27 
REMARK   16  A    between atoms: C17_26  and  C19_28 
REMARK   17  A    between atoms: C20_29  and  C21_30 
REMARK   18  A    between atoms: C20_29  and  C24_33 
REMARK   19  A    between atoms: C20_29  and  N6_40 
REMARK   20  A    between atoms: C21_30  and  C22_31 
REMARK   21  A    between atoms: C22_31  and  C23_32 
REMARK   22  A    between atoms: C23_32  and  O8_43 
REMARK   23  A    between atoms: C24_33  and  C25_34 
REMARK   24  A    between atoms: C28_38  and  O6_39 
REMARK   25  A    between atoms: C29_42  and  O8_43 
REMARK   26  A    between atoms: C29_42  and  C35_49 
ROOT
ATOM      1  C14 non d ame     -37.105  13.934  25.040  0.00  0.00     0.089 C 
ATOM      2  H20 non d ame     -38.129  13.966  25.414  0.00  0.00     0.087 H 
ENDROOT
BRANCH   1   3
ATOM      3  N4  non d ame     -36.520  15.249  25.256  0.00  0.00    -0.346 N 
ATOM      4  C10 non d ame     -37.266  16.294  26.049  0.00  0.00     0.241 C 
ATOM      5  O4  non d ame     -38.337  16.054  26.500  0.00  0.00    -0.271 OA
ATOM      6  H19 non d ame     -35.609  15.434  24.863  0.00  0.00     0.163 HD
BRANCH   4   7
ATOM      7  C9  non d ame     -36.642  17.647  26.268  0.00  0.00     0.092 C 
ATOM      8  H11 non d ame     -37.107  18.121  27.133  0.00  0.00     0.088 H 
BRANCH   7   9
ATOM      9  N3  non d ame     -35.219  17.486  26.575  0.00  0.00    -0.346 N 
ATOM     10  C7  non d ame     -34.645  18.163  27.712  0.00  0.00     0.240 C 
ATOM     11  O3  non d ame     -35.315  18.844  28.389  0.00  0.00    -0.271 OA
ATOM     12  H10 non d ame     -34.628  16.904  26.000  0.00  0.00     0.163 HD
BRANCH  10  13
ATOM     13  C6  non d ame     -33.128  17.991  28.033  0.00  0.00     0.086 C 
ATOM     14  H6  non d ame     -32.852  18.406  29.002  0.00  0.00     0.086 H 
BRANCH  13  15
ATOM     15  N2  non d ame     -32.817  16.572  28.085  0.00  0.00    -0.343 N 
ATOM     16  C5  non d ame     -32.073  16.038  29.229  0.00  0.00     0.273 C 
ATOM     17  O2  non d ame     -31.729  16.759  30.100  0.00  0.00    -0.266 OA
ATOM     18  H5  non d ame     -33.112  15.964  27.335  0.00  0.00     0.163 HD
BRANCH  16  19
ATOM     19  C4  non d ame     -31.739  14.540  29.299  0.00  0.00     0.154 A 
ATOM     20  C1  non d ame     -32.595  13.482  29.740  0.00  0.00    -0.017 A 
ATOM     21  C2  non d ame     -31.819  12.308  29.610  0.00  0.00     0.077 A 
ATOM     22  H1  non d ame     -33.621  13.555  30.101  0.00  0.00     0.091 H 
ATOM     23  O1  non d ame     -30.657  12.662  29.144  0.00  0.00    -0.218 OA
ATOM     24  N1  non d ame     -30.586  13.959  28.956  0.00  0.00    -0.123 NA
BRANCH  21  25
ATOM     25  C3  non d ame     -32.264  10.892  29.949  0.00  0.00    -0.029 C 
ATOM     26  H2  non d ame     -31.404  10.312  30.285  0.00  0.00     0.036 H 
ATOM     27  H3  non d ame     -33.010  10.926  30.743  0.00  0.00     0.036 H 
ATOM     28  H4  non d ame     -32.694  10.424  29.065  0.00  0.00     0.036 H 
ENDBRANCH  21  25
ENDBRANCH  16  19
ENDBRANCH  13  15
BRANCH  13  29
ATOM     29  C8  non d ame     -32.305  18.660  26.961  0.00  0.00    -0.049 C 
ATOM     30  H7  non d ame     -31.417  18.064  26.759  0.00  0.00     0.030 H 
ATOM     31  H8  non d ame     -32.899  18.748  26.051  0.00  0.00     0.030 H 
ATOM     32  H9  non d ame     -32.008  19.653  27.299  0.00  0.00     0.030 H 
ENDBRANCH  13  29
ENDBRANCH  10  13
ENDBRANCH   7   9
BRANCH   7  33
ATOM     33  C11 non d ame     -36.798  18.504  24.978  0.00  0.00    -0.033 C 
ATOM     34  H12 non d ame     -35.939  18.297  24.340  0.00  0.00     0.042 H 
BRANCH  33  35
ATOM     35  C12 non d ame     -38.080  18.107  24.182  0.00  0.00    -0.071 C 
ATOM     36  H13 non d ame     -37.796  17.542  23.294  0.00  0.00     0.028 H 
ATOM     37  H14 non d ame     -38.723  17.494  24.812  0.00  0.00     0.028 H 
ATOM     38  H15 non d ame     -38.616  19.008  23.882  0.00  0.00     0.028 H 
ENDBRANCH  33  35
BRANCH  33  39
ATOM     39  C13 non d ame     -36.792  20.030  25.316  0.00  0.00    -0.071 C 
ATOM     40  H16 non d ame     -36.221  20.198  26.230  0.00  0.00     0.028 H 
ATOM     41  H17 non d ame     -36.334  20.582  24.495  0.00  0.00     0.028 H 
ATOM     42  H18 non d ame     -37.815  20.375  25.458  0.00  0.00     0.028 H 
ENDBRANCH  33  39
ENDBRANCH   7  33
ENDBRANCH   4   7
ENDBRANCH   1   3
BRANCH   1  43
ATOM     43  C15 non d ame     -36.240  12.878  25.784  0.00  0.00     0.240 C 
ATOM     44  O5  non d ame     -36.402  12.695  26.947  0.00  0.00    -0.271 OA
ATOM     45  N6  non d ame     -35.214  12.088  25.045  0.00  0.00    -0.355 N 
ATOM     46  H46 non d ame     -35.071  12.232  24.056  0.00  0.00     0.162 HD
BRANCH  45  47
ATOM     47  C20 non d ame     -34.400  11.086  25.767  0.00  0.00     0.013 C 
ATOM     48  H30 non d ame     -35.042  10.599  26.501  0.00  0.00     0.072 H 
BRANCH  47  49
ATOM     49  C21 non d ame     -33.253  11.782  26.463  0.00  0.00    -0.038 C 
ATOM     50  H31 non d ame     -33.713  12.516  27.127  0.00  0.00     0.036 H 
ATOM     51  H32 non d ame     -32.633  10.986  26.876  0.00  0.00     0.036 H 
BRANCH  49  52
ATOM     52  C22 non d ame     -32.354  12.576  25.491  0.00  0.00     0.018 C 
ATOM     53  H33 non d ame     -31.332  12.280  25.726  0.00  0.00     0.048 H 
ATOM     54  H34 non d ame     -32.760  12.389  24.496  0.00  0.00     0.048 H 
BRANCH  52  55
ATOM     55  C23 non d ame     -32.414  14.114  25.697  0.00  0.00     0.259 C 
ATOM     56  O7  non d ame     -33.460  14.671  25.784  0.00  0.00    -0.265 OA
BRANCH  55  57
ATOM     57  O8  non d ame     -31.202  14.856  25.767  0.00  0.00    -0.317 OA
BRANCH  57  58
ATOM     58  C29 non d ame     -31.187  16.024  24.940  0.00  0.00     0.052 C 
ATOM     59  H47 non d ame     -32.224  16.350  24.872  0.00  0.00     0.082 H 
ATOM     60  H48 non d ame     -30.434  16.682  25.372  0.00  0.00     0.082 H 
BRANCH  58  61
ATOM     61  C35 non d ame     -30.713  15.601  23.523  0.00  0.00    -0.034 A 
ATOM     62  C30 non d ame     -31.422  16.015  22.399  0.00  0.00    -0.075 A 
ATOM     63  C31 non d ame     -30.997  15.635  21.127  0.00  0.00    -0.082 A 
ATOM     64  H49 non d ame     -32.310  16.635  22.515  0.00  0.00     0.084 H 
ATOM     65  C32 non d ame     -29.859  14.836  20.981  0.00  0.00    -0.083 A 
ATOM     66  H50 non d ame     -31.554  15.962  20.248  0.00  0.00     0.083 H 
ATOM     67  C33 non d ame     -29.157  14.423  22.105  0.00  0.00    -0.082 A 
ATOM     68  H51 non d ame     -29.520  14.536  19.989  0.00  0.00     0.083 H 
ATOM     69  C34 non d ame     -29.577  14.802  23.378  0.00  0.00    -0.075 A 
ATOM     70  H52 non d ame     -28.271  13.799  21.988  0.00  0.00     0.083 H 
ATOM     71  H53 non d ame     -29.020  14.475  24.256  0.00  0.00     0.084 H 
ENDBRANCH  58  61
ENDBRANCH  57  58
ENDBRANCH  55  57
ENDBRANCH  52  55
ENDBRANCH  49  52
ENDBRANCH  47  49
BRANCH  47  72
ATOM     72  C24 non d ame     -33.850  10.059  24.779  0.00  0.00    -0.039 C 
ATOM     73  H35 non d ame     -34.568  10.035  23.958  0.00  0.00     0.036 H 
ATOM     74  H36 non d ame     -32.819  10.358  24.593  0.00  0.00     0.036 H 
BRANCH  72  75
ATOM     75  C25 non d ame     -33.809   8.589  25.414  0.00  0.00    -0.001 C 
ATOM     76  C26 non d ame     -34.383   8.629  26.954  0.00  0.00    -0.035 C 
ATOM     77  C27 non d ame     -33.487   8.023  27.770  0.00  0.00     0.085 C 
ATOM     78  H38 non d ame     -34.406   9.655  27.318  0.00  0.00     0.036 H 
ATOM     79  H39 non d ame     -35.270   8.000  27.039  0.00  0.00     0.036 H 
ATOM     80  N5  non d ame     -32.209   7.867  26.983  0.00  0.00    -0.049 N 
ATOM     81  H40 non d ame     -33.317   8.724  28.588  0.00  0.00     0.075 H 
ATOM     82  H41 non d ame     -33.900   7.036  27.976  0.00  0.00     0.075 H 
ATOM     83  C28 non d ame     -32.603   8.124  25.439  0.00  0.00     0.193 C 
ATOM     84  H42 non d ame     -31.593   8.608  27.285  0.00  0.00     0.280 HD
ATOM     85  H43 non d ame     -31.926   6.902  27.086  0.00  0.00     0.280 HD
ATOM     86  H44 non d ame     -32.699   7.290  24.745  0.00  0.00     0.129 H 
ATOM     87  H37 non d ame     -34.230   7.838  24.747  0.00  0.00     0.046 H 
BRANCH  83  88
ATOM     88  O6  non d ame     -31.668   9.019  24.833  0.00  0.00    -0.369 OA
ATOM     89  H45 non d ame     -31.212   8.570  24.119  0.00  0.00     0.212 HD
ENDBRANCH  83  88
ENDBRANCH  72  75
ENDBRANCH  47  72
ENDBRANCH  45  47
ENDBRANCH   1  43
BRANCH   1  90
ATOM     90  C16 non d ame     -37.110  13.633  23.550  0.00  0.00    -0.035 C 
ATOM     91  H21 non d ame     -36.087  13.804  23.217  0.00  0.00     0.037 H 
ATOM     92  H22 non d ame     -37.555  12.643  23.457  0.00  0.00     0.037 H 
BRANCH  90  93
ATOM     93  C17 non d ame     -38.010  14.601  22.717  0.00  0.00    -0.059 C 
ATOM     94  H23 non d ame     -37.599  15.605  22.819  0.00  0.00     0.038 H 
BRANCH  93  95
ATOM     95  C18 non d ame     -38.017  14.239  21.198  0.00  0.00    -0.073 C 
ATOM     96  H24 non d ame     -37.237  14.802  20.686  0.00  0.00     0.028 H 
ATOM     97  H25 non d ame     -37.831  13.171  21.078  0.00  0.00     0.028 H 
ATOM     98  H26 non d ame     -38.987  14.489  20.769  0.00  0.00     0.028 H 
ENDBRANCH  93  95
BRANCH  93  99
ATOM     99  C19 non d ame     -39.436  14.636  23.275  0.00  0.00    -0.073 C 
ATOM    100  H27 non d ame     -39.993  15.443  22.798  0.00  0.00     0.028 H 
ATOM    101  H28 non d ame     -39.930  13.686  23.071  0.00  0.00     0.028 H 
ATOM    102  H29 non d ame     -39.402  14.804  24.351  0.00  0.00     0.028 H 
ENDBRANCH  93  99
ENDBRANCH  90  93
ENDBRANCH   1  90
TORSDOF 26
ENDMDL
MODEL 9
REMARK VINA RESULT:      -7.0      3.296      7.563
REMARK  26 active torsions:
REMARK  status: ('A' for Active; 'I' for Inactive)
REMARK    1  A    between atoms: C2_2  and  C3_3 
REMARK    2  A    between atoms: C4_6  and  C5_7 
REMARK       I    between atoms: C5_7  and  N2_9 
REMARK    3  A    between atoms: N2_9  and  C6_10 
REMARK    4  A    between atoms: C6_10  and  C7_11 
REMARK    5  A    between atoms: C6_10  and  C8_13 
REMARK       I    between atoms: C7_11  and  N3_14 
REMARK    6  A    between atoms: N3_14  and  C9_15 
REMARK    7  A    between atoms: C9_15  and  C10_16 
REMARK    8  A    between atoms: C9_15  and  C11_18 
REMARK       I    between atoms: C10_16  and  N4_21 
REMARK    9  A    between atoms: C11_18  and  C12_19 
REMARK   10  A    between atoms: C11_18  and  C13_20 
REMARK   11  A    between atoms: N4_21  and  C14_22 
REMARK   12  A    between atoms: C14_22  and  C15_23 
REMARK   13  A    between atoms: C14_22  and  C16_25 
REMARK       I    between atoms: C15_23  and  N6_40 
REMARK   14  A    between atoms: C16_25  and  C17_26 
REMARK   15  A    between atoms: C17_26  and  C18_27 
REMARK   16  A    between atoms: C17_26  and  C19_28 
REMARK   17  A    between atoms: C20_29  and  C21_30 
REMARK   18  A    between atoms: C20_29  and  C24_33 
REMARK   19  A    between atoms: C20_29  and  N6_40 
REMARK   20  A    between atoms: C21_30  and  C22_31 
REMARK   21  A    between atoms: C22_31  and  C23_32 
REMARK   22  A    between atoms: C23_32  and  O8_43 
REMARK   23  A    between atoms: C24_33  and  C25_34 
REMARK   24  A    between atoms: C28_38  and  O6_39 
REMARK   25  A    between atoms: C29_42  and  O8_43 
REMARK   26  A    between atoms: C29_42  and  C35_49 
ROOT
ATOM      1  C14 non d ame     -31.211  13.852  24.594  0.00  0.00     0.089 C 
ATOM      2  H20 non d ame     -30.239  13.796  25.084  0.00  0.00     0.087 H 
ENDROOT
BRANCH   1   3
ATOM      3  N4  non d ame     -31.648  12.488  24.332  0.00  0.00    -0.346 N 
ATOM      4  C10 non d ame     -31.477  11.418  25.381  0.00  0.00     0.241 C 
ATOM      5  O4  non d ame     -30.981  11.678  26.427  0.00  0.00    -0.271 OA
ATOM      6  H19 non d ame     -32.066  12.288  23.434  0.00  0.00     0.163 HD
BRANCH   4   7
ATOM      7  C9  non d ame     -31.940  10.014  25.095  0.00  0.00     0.092 C 
ATOM      8  H11 non d ame     -31.196   9.308  25.463  0.00  0.00     0.088 H 
BRANCH   7   9
ATOM      9  N3  non d ame     -33.185   9.752  25.823  0.00  0.00    -0.346 N 
ATOM     10  C7  non d ame     -33.209   8.769  26.878  0.00  0.00     0.240 C 
ATOM     11  O3  non d ame     -32.236   8.180  27.154  0.00  0.00    -0.271 OA
ATOM     12  H10 non d ame     -34.032  10.251  25.595  0.00  0.00     0.163 HD
BRANCH  10  13
ATOM     13  C6  non d ame     -34.537   8.492  27.648  0.00  0.00     0.086 C 
ATOM     14  H6  non d ame     -35.241   7.892  27.071  0.00  0.00     0.086 H 
BRANCH  13  15
ATOM     15  N2  non d ame     -34.235   7.735  28.851  0.00  0.00    -0.343 N 
ATOM     16  C5  non d ame     -34.771   6.380  29.005  0.00  0.00     0.273 C 
ATOM     17  O2  non d ame     -35.445   5.910  28.156  0.00  0.00    -0.266 OA
ATOM     18  H5  non d ame     -33.661   8.146  29.573  0.00  0.00     0.163 HD
BRANCH  16  19
ATOM     19  C4  non d ame     -34.458   5.568  30.271  0.00  0.00     0.154 A 
ATOM     20  C1  non d ame     -33.414   4.605  30.445  0.00  0.00    -0.017 A 
ATOM     21  C2  non d ame     -33.555   4.152  31.776  0.00  0.00     0.077 A 
ATOM     22  H1  non d ame     -32.669   4.284  29.718  0.00  0.00     0.091 H 
ATOM     23  O1  non d ame     -34.564   4.788  32.297  0.00  0.00    -0.218 OA
ATOM     24  N1  non d ame     -35.107   5.619  31.437  0.00  0.00    -0.123 NA
BRANCH  21  25
ATOM     25  C3  non d ame     -32.687   3.112  32.471  0.00  0.00    -0.029 C 
ATOM     26  H2  non d ame     -32.454   3.449  33.481  0.00  0.00     0.036 H 
ATOM     27  H3  non d ame     -33.223   2.164  32.520  0.00  0.00     0.036 H 
ATOM     28  H4  non d ame     -31.762   2.978  31.912  0.00  0.00     0.036 H 
ENDBRANCH  21  25
ENDBRANCH  16  19
ENDBRANCH  13  15
BRANCH  13  29
ATOM     29  C8  non d ame     -35.193   9.800  28.012  0.00  0.00    -0.049 C 
ATOM     30  H7  non d ame     -36.221   9.804  27.651  0.00  0.00     0.030 H 
ATOM     31  H8  non d ame     -35.188   9.919  29.096  0.00  0.00     0.030 H 
ATOM     32  H9  non d ame     -34.644  10.622  27.553  0.00  0.00     0.030 H 
ENDBRANCH  13  29
ENDBRANCH  10  13
ENDBRANCH   7   9
BRANCH   7  33
ATOM     33  C11 non d ame     -32.192   9.853  23.567  0.00  0.00    -0.033 C 
ATOM     34  H12 non d ame     -32.342  10.851  23.152  0.00  0.00     0.042 H 
BRANCH  33  35
ATOM     35  C12 non d ame     -30.956   9.227  22.849  0.00  0.00    -0.071 C 
ATOM     36  H13 non d ame     -30.041   9.642  23.272  0.00  0.00     0.028 H 
ATOM     37  H14 non d ame     -30.963   8.147  22.990  0.00  0.00     0.028 H 
ATOM     38  H15 non d ame     -30.999   9.456  21.784  0.00  0.00     0.028 H 
ENDBRANCH  33  35
BRANCH  33  39
ATOM     39  C13 non d ame     -33.485   9.020  23.298  0.00  0.00    -0.071 C 
ATOM     40  H16 non d ame     -33.756   8.466  24.198  0.00  0.00     0.028 H 
ATOM     41  H17 non d ame     -34.301   9.691  23.025  0.00  0.00     0.028 H 
ATOM     42  H18 non d ame     -33.304   8.321  22.482  0.00  0.00     0.028 H 
ENDBRANCH  33  39
ENDBRANCH   7  33
ENDBRANCH   4   7
ENDBRANCH   1   3
BRANCH   1  43
ATOM     43  C15 non d ame     -32.278  14.552  25.482  0.00  0.00     0.240 C 
ATOM     44  O5  non d ame     -33.434  14.377  25.267  0.00  0.00    -0.271 OA
ATOM     45  N6  non d ame     -31.860  15.433  26.609  0.00  0.00    -0.355 N 
ATOM     46  H46 non d ame     -30.880  15.585  26.805  0.00  0.00     0.162 HD
BRANCH  45  47
ATOM     47  C20 non d ame     -32.886  16.091  27.447  0.00  0.00     0.013 C 
ATOM     48  H30 non d ame     -33.866  15.786  27.078  0.00  0.00     0.072 H 
BRANCH  47  49
ATOM     49  C21 non d ame     -32.736  17.592  27.335  0.00  0.00    -0.038 C 
ATOM     50  H31 non d ame     -33.471  18.013  28.022  0.00  0.00     0.036 H 
ATOM     51  H32 non d ame     -31.676  17.793  27.480  0.00  0.00     0.036 H 
BRANCH  49  52
ATOM     52  C22 non d ame     -33.095  18.127  25.932  0.00  0.00     0.018 C 
ATOM     53  H33 non d ame     -32.651  19.120  25.873  0.00  0.00     0.048 H 
ATOM     54  H34 non d ame     -32.785  17.349  25.232  0.00  0.00     0.048 H 
BRANCH  52  55
ATOM     55  C23 non d ame     -34.619  18.323  25.706  0.00  0.00     0.259 C 
ATOM     56  O7  non d ame     -35.359  17.394  25.739  0.00  0.00    -0.265 OA
BRANCH  55  57
ATOM     57  O8  non d ame     -35.122  19.628  25.445  0.00  0.00    -0.317 OA
BRANCH  57  58
ATOM     58  C29 non d ame     -36.419  19.873  25.998  0.00  0.00     0.052 C 
ATOM     59  H47 non d ame     -36.735  18.927  26.437  0.00  0.00     0.082 H 
ATOM     60  H48 non d ame     -36.310  20.757  26.626  0.00  0.00     0.082 H 
BRANCH  58  61
ATOM     61  C35 non d ame     -37.381  20.217  24.829  0.00  0.00    -0.034 A 
ATOM     62  C30 non d ame     -36.984  20.000  23.514  0.00  0.00    -0.075 A 
ATOM     63  C31 non d ame     -37.848  20.310  22.464  0.00  0.00    -0.082 A 
ATOM     64  H49 non d ame     -35.997  19.588  23.305  0.00  0.00     0.084 H 
ATOM     65  C32 non d ame     -39.112  20.841  22.734  0.00  0.00    -0.083 A 
ATOM     66  H50 non d ame     -37.535  20.137  21.434  0.00  0.00     0.083 H 
ATOM     67  C33 non d ame     -39.502  21.059  24.048  0.00  0.00    -0.082 A 
ATOM     68  H51 non d ame     -39.794  21.084  21.919  0.00  0.00     0.083 H 
ATOM     69  C34 non d ame     -38.643  20.749  25.100  0.00  0.00    -0.075 A 
ATOM     70  H52 non d ame     -40.489  21.475  24.256  0.00  0.00     0.083 H 
ATOM     71  H53 non d ame     -38.958  20.922  26.130  0.00  0.00     0.084 H 
ENDBRANCH  58  61
ENDBRANCH  57  58
ENDBRANCH  55  57
ENDBRANCH  52  55
ENDBRANCH  49  52
ENDBRANCH  47  49
BRANCH  47  72
ATOM     72  C24 non d ame     -32.713  15.668  28.904  0.00  0.00    -0.039 C 
ATOM     73  H35 non d ame     -32.272  16.531  29.405  0.00  0.00     0.036 H 
ATOM     74  H36 non d ame     -33.689  15.297  29.216  0.00  0.00     0.036 H 
BRANCH  72  75
ATOM     75  C25 non d ame     -31.677  14.455  29.050  0.00  0.00    -0.001 C 
ATOM     76  C26 non d ame     -32.480  13.082  29.465  0.00  0.00    -0.035 C 
ATOM     77  C27 non d ame     -31.878  12.535  30.549  0.00  0.00     0.085 C 
ATOM     78  H38 non d ame     -33.479  13.326  29.825  0.00  0.00     0.036 H 
ATOM     79  H39 non d ame     -32.349  12.324  28.692  0.00  0.00     0.036 H 
ATOM     80  N5  non d ame     -30.943  13.579  31.108  0.00  0.00    -0.049 N 
ATOM     81  H40 non d ame     -32.678  12.354  31.267  0.00  0.00     0.075 H 
ATOM     82  H41 non d ame     -31.290  11.701  30.166  0.00  0.00     0.075 H 
ATOM     83  C28 non d ame     -30.792  14.703  29.958  0.00  0.00     0.193 C 
ATOM     84  H42 non d ame     -31.414  13.991  31.901  0.00  0.00     0.280 HD
ATOM     85  H43 non d ame     -30.048  13.125  31.233  0.00  0.00     0.280 HD
ATOM     86  H44 non d ame     -29.892  14.754  29.348  0.00  0.00     0.129 H 
ATOM     87  H37 non d ame     -30.992  14.393  28.206  0.00  0.00     0.046 H 
BRANCH  83  88
ATOM     88  O6  non d ame     -30.947  16.007  30.521  0.00  0.00    -0.369 OA
ATOM     89  H45 non d ame     -30.123  16.280  30.930  0.00  0.00     0.212 HD
ENDBRANCH  83  88
ENDBRANCH  72  75
ENDBRANCH  47  72
ENDBRANCH  45  47
ENDBRANCH   1  43
BRANCH   1  90
ATOM     90  C16 non d ame     -31.080  14.592  23.273  0.00  0.00    -0.035 C 
ATOM     91  H21 non d ame     -31.742  14.072  22.582  0.00  0.00     0.037 H 
ATOM     92  H22 non d ame     -31.257  15.641  23.511  0.00  0.00     0.037 H 
BRANCH  90  93
ATOM     93  C17 non d ame     -29.649  14.516  22.651  0.00  0.00    -0.059 C 
ATOM     94  H23 non d ame     -28.929  14.626  23.462  0.00  0.00     0.038 H 
BRANCH  93  95
ATOM     95  C18 non d ame     -29.381  13.143  21.957  0.00  0.00    -0.073 C 
ATOM     96  H24 non d ame     -30.330  12.655  21.737  0.00  0.00     0.028 H 
ATOM     97  H25 non d ame     -28.834  13.306  21.027  0.00  0.00     0.028 H 
ATOM     98  H26 non d ame     -28.791  12.510  22.618  0.00  0.00     0.028 H 
ENDBRANCH  93  95
BRANCH  93  99
ATOM     99  C19 non d ame     -29.415  15.674  21.676  0.00  0.00    -0.073 C 
ATOM    100  H27 non d ame     -30.346  16.224  21.534  0.00  0.00     0.028 H 
ATOM    101  H28 non d ame     -28.657  16.344  22.082  0.00  0.00     0.028 H 
ATOM    102  H29 non d ame     -29.075  15.280  20.719  0.00  0.00     0.028 H 
ENDBRANCH  93  99
ENDBRANCH  90  93
ENDBRANCH   1  90
TORSDOF 26
ENDMDL
MODEL 10
REMARK VINA RESULT:      -7.0      1.923      5.676
REMARK  26 active torsions:
REMARK  status: ('A' for Active; 'I' for Inactive)
REMARK    1  A    between atoms: C2_2  and  C3_3 
REMARK    2  A    between atoms: C4_6  and  C5_7 
REMARK       I    between atoms: C5_7  and  N2_9 
REMARK    3  A    between atoms: N2_9  and  C6_10 
REMARK    4  A    between atoms: C6_10  and  C7_11 
REMARK    5  A    between atoms: C6_10  and  C8_13 
REMARK       I    between atoms: C7_11  and  N3_14 
REMARK    6  A    between atoms: N3_14  and  C9_15 
REMARK    7  A    between atoms: C9_15  and  C10_16 
REMARK    8  A    between atoms: C9_15  and  C11_18 
REMARK       I    between atoms: C10_16  and  N4_21 
REMARK    9  A    between atoms: C11_18  and  C12_19 
REMARK   10  A    between atoms: C11_18  and  C13_20 
REMARK   11  A    between atoms: N4_21  and  C14_22 
REMARK   12  A    between atoms: C14_22  and  C15_23 
REMARK   13  A    between atoms: C14_22  and  C16_25 
REMARK       I    between atoms: C15_23  and  N6_40 
REMARK   14  A    between atoms: C16_25  and  C17_26 
REMARK   15  A    between atoms: C17_26  and  C18_27 
REMARK   16  A    between atoms: C17_26  and  C19_28 
REMARK   17  A    between atoms: C20_29  and  C21_30 
REMARK   18  A    between atoms: C20_29  and  C24_33 
REMARK   19  A    between atoms: C20_29  and  N6_40 
REMARK   20  A    between atoms: C21_30  and  C22_31 
REMARK   21  A    between atoms: C22_31  and  C23_32 
REMARK   22  A    between atoms: C23_32  and  O8_43 
REMARK   23  A    between atoms: C24_33  and  C25_34 
REMARK   24  A    between atoms: C28_38  and  O6_39 
REMARK   25  A    between atoms: C29_42  and  O8_43 
REMARK   26  A    between atoms: C29_42  and  C35_49 
ROOT
ATOM      1  C14 non d ame     -30.864  14.019  24.691  0.00  0.00     0.089 C 
ATOM      2  H20 non d ame     -29.906  13.793  25.162  0.00  0.00     0.087 H 
ENDROOT
BRANCH   1   3
ATOM      3  N4  non d ame     -31.389  12.775  24.149  0.00  0.00    -0.346 N 
ATOM      4  C10 non d ame     -31.349  11.509  24.969  0.00  0.00     0.241 C 
ATOM      5  O4  non d ame     -30.887  11.516  26.061  0.00  0.00    -0.271 OA
ATOM      6  H19 non d ame     -31.776  12.790  23.216  0.00  0.00     0.163 HD
BRANCH   4   7
ATOM      7  C9  non d ame     -31.903  10.232  24.393  0.00  0.00     0.092 C 
ATOM      8  H11 non d ame     -31.728   9.417  25.096  0.00  0.00     0.088 H 
BRANCH   7   9
ATOM      9  N3  non d ame     -33.353  10.359  24.227  0.00  0.00    -0.346 N 
ATOM     10  C7  non d ame     -34.234  10.058  25.329  0.00  0.00     0.240 C 
ATOM     11  O3  non d ame     -33.792   9.711  26.356  0.00  0.00    -0.271 OA
ATOM     12  H10 non d ame     -33.749  10.655  23.347  0.00  0.00     0.163 HD
BRANCH  10  13
ATOM     13  C6  non d ame     -35.777  10.191  25.145  0.00  0.00     0.086 C 
ATOM     14  H6  non d ame     -36.326  10.057  26.077  0.00  0.00     0.086 H 
BRANCH  13  15
ATOM     15  N2  non d ame     -36.081  11.532  24.673  0.00  0.00    -0.343 N 
ATOM     16  C5  non d ame     -36.955  12.397  25.470  0.00  0.00     0.273 C 
ATOM     17  O2  non d ame     -37.409  12.004  26.487  0.00  0.00    -0.266 OA
ATOM     18  H5  non d ame     -35.692  11.858  23.800  0.00  0.00     0.163 HD
BRANCH  16  19
ATOM     19  C4  non d ame     -37.283  13.817  24.984  0.00  0.00     0.154 A 
ATOM     20  C1  non d ame     -38.350  14.659  25.430  0.00  0.00    -0.017 A 
ATOM     21  C2  non d ame     -38.215  15.847  24.678  0.00  0.00     0.077 A 
ATOM     22  H1  non d ame     -39.108  14.441  26.183  0.00  0.00     0.091 H 
ATOM     23  O1  non d ame     -37.186  15.696  23.896  0.00  0.00    -0.218 OA
ATOM     24  N1  non d ame     -36.626  14.519  24.056  0.00  0.00    -0.123 NA
BRANCH  21  25
ATOM     25  C3  non d ame     -39.108  17.077  24.767  0.00  0.00    -0.029 C 
ATOM     26  H2  non d ame     -39.922  16.989  24.047  0.00  0.00     0.036 H 
ATOM     27  H3  non d ame     -39.521  17.154  25.773  0.00  0.00     0.036 H 
ATOM     28  H4  non d ame     -38.523  17.969  24.546  0.00  0.00     0.036 H 
ENDBRANCH  21  25
ENDBRANCH  16  19
ENDBRANCH  13  15
BRANCH  13  29
ATOM     29  C8  non d ame     -36.257   9.170  24.144  0.00  0.00    -0.049 C 
ATOM     30  H7  non d ame     -36.480   9.664  23.199  0.00  0.00     0.030 H 
ATOM     31  H8  non d ame     -35.480   8.422  23.988  0.00  0.00     0.030 H 
ATOM     32  H9  non d ame     -37.158   8.686  24.523  0.00  0.00     0.030 H 
ENDBRANCH  13  29
ENDBRANCH  10  13
ENDBRANCH   7   9
BRANCH   7  33
ATOM     33  C11 non d ame     -31.246   9.961  23.008  0.00  0.00    -0.033 C 
ATOM     34  H12 non d ame     -31.444  10.826  22.375  0.00  0.00     0.042 H 
BRANCH  33  35
ATOM     35  C12 non d ame     -29.697   9.815  23.132  0.00  0.00    -0.071 C 
ATOM     36  H13 non d ame     -29.320   9.223  22.297  0.00  0.00     0.028 H 
ATOM     37  H14 non d ame     -29.237  10.802  23.113  0.00  0.00     0.028 H 
ATOM     38  H15 non d ame     -29.452   9.316  24.070  0.00  0.00     0.028 H 
ENDBRANCH  33  35
BRANCH  33  39
ATOM     39  C13 non d ame     -31.880   8.707  22.324  0.00  0.00    -0.071 C 
ATOM     40  H16 non d ame     -32.497   9.025  21.483  0.00  0.00     0.028 H 
ATOM     41  H17 non d ame     -31.088   8.048  21.967  0.00  0.00     0.028 H 
ATOM     42  H18 non d ame     -32.497   8.173  23.046  0.00  0.00     0.028 H 
ENDBRANCH  33  39
ENDBRANCH   7  33
ENDBRANCH   4   7
ENDBRANCH   1   3
BRANCH   1  43
ATOM     43  C15 non d ame     -31.895  14.593  25.704  0.00  0.00     0.240 C 
ATOM     44  O5  non d ame     -32.906  15.077  25.307  0.00  0.00    -0.271 OA
ATOM     45  N6  non d ame     -31.629  14.529  27.169  0.00  0.00    -0.355 N 
ATOM     46  H46 non d ame     -30.776  14.114  27.517  0.00  0.00     0.162 HD
BRANCH  45  47
ATOM     47  C20 non d ame     -32.621  15.077  28.120  0.00  0.00     0.013 C 
ATOM     48  H30 non d ame     -33.606  14.993  27.661  0.00  0.00     0.072 H 
BRANCH  47  49
ATOM     49  C21 non d ame     -32.301  16.529  28.395  0.00  0.00    -0.038 C 
ATOM     50  H31 non d ame     -32.277  16.624  29.482  0.00  0.00     0.036 H 
ATOM     51  H32 non d ame     -31.409  16.749  27.809  0.00  0.00     0.036 H 
BRANCH  49  52
ATOM     52  C22 non d ame     -33.400  17.490  27.896  0.00  0.00     0.018 C 
ATOM     53  H33 non d ame     -34.197  16.855  27.512  0.00  0.00     0.048 H 
ATOM     54  H34 non d ame     -33.598  18.169  28.727  0.00  0.00     0.048 H 
BRANCH  52  55
ATOM     55  C23 non d ame     -32.956  18.387  26.708  0.00  0.00     0.259 C 
ATOM     56  O7  non d ame     -31.997  19.082  26.802  0.00  0.00    -0.265 OA
BRANCH  55  57
ATOM     57  O8  non d ame     -33.719  18.381  25.507  0.00  0.00    -0.317 OA
BRANCH  57  58
ATOM     58  C29 non d ame     -35.015  17.791  25.644  0.00  0.00     0.052 C 
ATOM     59  H47 non d ame     -35.205  17.275  24.704  0.00  0.00     0.082 H 
ATOM     60  H48 non d ame     -34.987  17.231  26.579  0.00  0.00     0.082 H 
BRANCH  58  61
ATOM     61  C35 non d ame     -36.051  18.938  25.792  0.00  0.00    -0.034 A 
ATOM     62  C30 non d ame     -36.430  19.682  24.678  0.00  0.00    -0.075 A 
ATOM     63  C31 non d ame     -37.359  20.713  24.811  0.00  0.00    -0.082 A 
ATOM     64  H49 non d ame     -35.998  19.458  23.703  0.00  0.00     0.084 H 
ATOM     65  C32 non d ame     -37.909  21.000  26.063  0.00  0.00    -0.083 A 
ATOM     66  H50 non d ame     -37.655  21.292  23.936  0.00  0.00     0.083 H 
ATOM     67  C33 non d ame     -37.525  20.258  27.171  0.00  0.00    -0.082 A 
ATOM     68  H51 non d ame     -38.637  21.804  26.174  0.00  0.00     0.083 H 
ATOM     69  C34 non d ame     -36.598  19.225  27.043  0.00  0.00    -0.075 A 
ATOM     70  H52 non d ame     -37.954  20.486  28.148  0.00  0.00     0.083 H 
ATOM     71  H53 non d ame     -36.303  18.646  27.919  0.00  0.00     0.084 H 
ENDBRANCH  58  61
ENDBRANCH  57  58
ENDBRANCH  55  57
ENDBRANCH  52  55
ENDBRANCH  49  52
ENDBRANCH  47  49
BRANCH  47  72
ATOM     72  C24 non d ame     -32.576  14.288  29.426  0.00  0.00    -0.039 C 
ATOM     73  H35 non d ame     -31.948  14.875  30.097  0.00  0.00     0.036 H 
ATOM     74  H36 non d ame     -33.617  14.094  29.684  0.00  0.00     0.036 H 
BRANCH  72  75
ATOM     75  C25 non d ame     -31.864  12.865  29.235  0.00  0.00    -0.001 C 
ATOM     76  C26 non d ame     -32.995  11.673  29.208  0.00  0.00    -0.035 C 
ATOM     77  C27 non d ame     -32.641  10.714  30.097  0.00  0.00     0.085 C 
ATOM     78  H38 non d ame     -33.942  12.046  29.599  0.00  0.00     0.036 H 
ATOM     79  H39 non d ame     -32.968  11.154  28.250  0.00  0.00     0.036 H 
ATOM     80  N5  non d ame     -31.550  11.297  30.962  0.00  0.00    -0.049 N 
ATOM     81  H40 non d ame     -33.527  10.543  30.710  0.00  0.00     0.075 H 
ATOM     82  H41 non d ame     -32.226   9.902  29.501  0.00  0.00     0.075 H 
ATOM     83  C28 non d ame     -31.037  12.623  30.198  0.00  0.00     0.193 C 
ATOM     84  H42 non d ame     -31.988  11.574  31.829  0.00  0.00     0.280 HD
ATOM     85  H43 non d ame     -30.800  10.620  30.970  0.00  0.00     0.280 HD
ATOM     86  H44 non d ame     -30.094  12.619  29.653  0.00  0.00     0.129 H 
ATOM     87  H37 non d ame     -31.133  12.874  28.427  0.00  0.00     0.046 H 
BRANCH  83  88
ATOM     88  O6  non d ame     -30.943  13.715  31.115  0.00  0.00    -0.369 OA
ATOM     89  H45 non d ame     -30.568  14.477  30.668  0.00  0.00     0.212 HD
ENDBRANCH  83  88
ENDBRANCH  72  75
ENDBRANCH  47  72
ENDBRANCH  45  47
ENDBRANCH   1  43
BRANCH   1  90
ATOM     90  C16 non d ame     -30.659  15.008  23.555  0.00  0.00    -0.035 C 
ATOM     91  H21 non d ame     -31.651  15.180  23.139  0.00  0.00     0.037 H 
ATOM     92  H22 non d ame     -30.100  15.836  23.990  0.00  0.00     0.037 H 
BRANCH  90  93
ATOM     93  C17 non d ame     -29.784  14.449  22.388  0.00  0.00    -0.059 C 
ATOM     94  H23 non d ame     -29.863  13.362  22.405  0.00  0.00     0.038 H 
BRANCH  93  95
ATOM     95  C18 non d ame     -30.280  14.942  20.991  0.00  0.00    -0.073 C 
ATOM     96  H24 non d ame     -29.635  15.748  20.640  0.00  0.00     0.028 H 
ATOM     97  H25 non d ame     -30.246  14.116  20.281  0.00  0.00     0.028 H 
ATOM     98  H26 non d ame     -31.303  15.306  21.076  0.00  0.00     0.028 H 
ENDBRANCH  93  95
BRANCH  93  99
ATOM     99  C19 non d ame     -28.308  14.799  22.596  0.00  0.00    -0.073 C 
ATOM    100  H27 non d ame     -28.228  15.654  23.268  0.00  0.00     0.028 H 
ATOM    101  H28 non d ame     -27.789  13.946  23.032  0.00  0.00     0.028 H 
ATOM    102  H29 non d ame     -27.854  15.047  21.637  0.00  0.00     0.028 H 
ENDBRANCH  93  99
ENDBRANCH  90  93
ENDBRANCH   1  90
TORSDOF 26
ENDMDL
MODEL 11
REMARK VINA RESULT:      -6.9      2.852      5.152
REMARK  26 active torsions:
REMARK  status: ('A' for Active; 'I' for Inactive)
REMARK    1  A    between atoms: C2_2  and  C3_3 
REMARK    2  A    between atoms: C4_6  and  C5_7 
REMARK       I    between atoms: C5_7  and  N2_9 
REMARK    3  A    between atoms: N2_9  and  C6_10 
REMARK    4  A    between atoms: C6_10  and  C7_11 
REMARK    5  A    between atoms: C6_10  and  C8_13 
REMARK       I    between atoms: C7_11  and  N3_14 
REMARK    6  A    between atoms: N3_14  and  C9_15 
REMARK    7  A    between atoms: C9_15  and  C10_16 
REMARK    8  A    between atoms: C9_15  and  C11_18 
REMARK       I    between atoms: C10_16  and  N4_21 
REMARK    9  A    between atoms: C11_18  and  C12_19 
REMARK   10  A    between atoms: C11_18  and  C13_20 
REMARK   11  A    between atoms: N4_21  and  C14_22 
REMARK   12  A    between atoms: C14_22  and  C15_23 
REMARK   13  A    between atoms: C14_22  and  C16_25 
REMARK       I    between atoms: C15_23  and  N6_40 
REMARK   14  A    between atoms: C16_25  and  C17_26 
REMARK   15  A    between atoms: C17_26  and  C18_27 
REMARK   16  A    between atoms: C17_26  and  C19_28 
REMARK   17  A    between atoms: C20_29  and  C21_30 
REMARK   18  A    between atoms: C20_29  and  C24_33 
REMARK   19  A    between atoms: C20_29  and  N6_40 
REMARK   20  A    between atoms: C21_30  and  C22_31 
REMARK   21  A    between atoms: C22_31  and  C23_32 
REMARK   22  A    between atoms: C23_32  and  O8_43 
REMARK   23  A    between atoms: C24_33  and  C25_34 
REMARK   24  A    between atoms: C28_38  and  O6_39 
REMARK   25  A    between atoms: C29_42  and  O8_43 
REMARK   26  A    between atoms: C29_42  and  C35_49 
ROOT
ATOM      1  C14 non d ame     -31.074  14.060  24.343  0.00  0.00     0.089 C 
ATOM      2  H20 non d ame     -30.074  13.627  24.385  0.00  0.00     0.087 H 
ENDROOT
BRANCH   1   3
ATOM      3  N4  non d ame     -32.027  12.976  24.530  0.00  0.00    -0.346 N 
ATOM      4  C10 non d ame     -31.549  11.597  24.908  0.00  0.00     0.241 C 
ATOM      5  O4  non d ame     -30.391  11.382  25.053  0.00  0.00    -0.271 OA
ATOM      6  H19 non d ame     -33.008  13.180  24.400  0.00  0.00     0.163 HD
BRANCH   4   7
ATOM      7  C9  non d ame     -32.551  10.489  25.103  0.00  0.00     0.092 C 
ATOM      8  H11 non d ame     -33.466  10.735  24.564  0.00  0.00     0.088 H 
BRANCH   7   9
ATOM      9  N3  non d ame     -32.027   9.248  24.527  0.00  0.00    -0.346 N 
ATOM     10  C7  non d ame     -32.594   8.724  23.309  0.00  0.00     0.240 C 
ATOM     11  O3  non d ame     -33.474   9.287  22.781  0.00  0.00    -0.271 OA
ATOM     12  H10 non d ame     -31.270   8.750  24.971  0.00  0.00     0.163 HD
BRANCH  10  13
ATOM     13  C6  non d ame     -32.035   7.400  22.701  0.00  0.00     0.086 C 
ATOM     14  H6  non d ame     -30.991   7.226  22.960  0.00  0.00     0.086 H 
BRANCH  13  15
ATOM     15  N2  non d ame     -32.789   6.280  23.238  0.00  0.00    -0.343 N 
ATOM     16  C5  non d ame     -32.399   5.698  24.525  0.00  0.00     0.273 C 
ATOM     17  O2  non d ame     -31.477   6.137  25.118  0.00  0.00    -0.266 OA
ATOM     18  H5  non d ame     -33.574   5.908  22.722  0.00  0.00     0.163 HD
BRANCH  16  19
ATOM     19  C4  non d ame     -33.188   4.514  25.104  0.00  0.00     0.154 A 
ATOM     20  C1  non d ame     -33.803   3.446  24.378  0.00  0.00    -0.017 A 
ATOM     21  C2  non d ame     -34.395   2.627  25.366  0.00  0.00     0.077 A 
ATOM     22  H1  non d ame     -33.818   3.288  23.300  0.00  0.00     0.091 H 
ATOM     23  O1  non d ame     -34.141   3.170  26.521  0.00  0.00    -0.218 OA
ATOM     24  N1  non d ame     -33.439   4.272  26.394  0.00  0.00    -0.123 NA
BRANCH  21  25
ATOM     25  C3  non d ame     -35.181   1.346  25.123  0.00  0.00    -0.029 C 
ATOM     26  H2  non d ame     -34.491   0.533  24.897  0.00  0.00     0.036 H 
ATOM     27  H3  non d ame     -35.755   1.097  26.016  0.00  0.00     0.036 H 
ATOM     28  H4  non d ame     -35.860   1.490  24.283  0.00  0.00     0.036 H 
ENDBRANCH  21  25
ENDBRANCH  16  19
ENDBRANCH  13  15
BRANCH  13  29
ATOM     29  C8  non d ame     -32.166   7.439  21.199  0.00  0.00    -0.049 C 
ATOM     30  H7  non d ame     -32.620   8.382  20.898  0.00  0.00     0.030 H 
ATOM     31  H8  non d ame     -31.178   7.351  20.747  0.00  0.00     0.030 H 
ATOM     32  H9  non d ame     -32.792   6.611  20.868  0.00  0.00     0.030 H 
ENDBRANCH  13  29
ENDBRANCH  10  13
ENDBRANCH   7   9
BRANCH   7  33
ATOM     33  C11 non d ame     -32.806  10.284  26.625  0.00  0.00    -0.033 C 
ATOM     34  H12 non d ame     -32.006  10.793  27.164  0.00  0.00     0.042 H 
BRANCH  33  35
ATOM     35  C12 non d ame     -34.156  10.931  27.068  0.00  0.00    -0.071 C 
ATOM     36  H13 non d ame     -34.940  10.173  27.066  0.00  0.00     0.028 H 
ATOM     37  H14 non d ame     -34.049  11.341  28.072  0.00  0.00     0.028 H 
ATOM     38  H15 non d ame     -34.421  11.729  26.375  0.00  0.00     0.028 H 
ENDBRANCH  33  35
BRANCH  33  39
ATOM     39  C13 non d ame     -32.754   8.769  27.002  0.00  0.00    -0.071 C 
ATOM     40  H16 non d ame     -31.796   8.350  26.692  0.00  0.00     0.028 H 
ATOM     41  H17 non d ame     -32.868   8.657  28.081  0.00  0.00     0.028 H 
ATOM     42  H18 non d ame     -33.562   8.241  26.497  0.00  0.00     0.028 H 
ENDBRANCH  33  39
ENDBRANCH   7  33
ENDBRANCH   4   7
ENDBRANCH   1   3
BRANCH   1  43
ATOM     43  C15 non d ame     -31.303  15.119  25.458  0.00  0.00     0.240 C 
ATOM     44  O5  non d ame     -30.909  16.231  25.306  0.00  0.00    -0.271 OA
ATOM     45  N6  non d ame     -32.022  14.752  26.710  0.00  0.00    -0.355 N 
ATOM     46  H46 non d ame     -32.366  13.812  26.848  0.00  0.00     0.162 HD
BRANCH  45  47
ATOM     47  C20 non d ame     -32.234  15.772  27.761  0.00  0.00     0.013 C 
ATOM     48  H30 non d ame     -31.560  16.604  27.561  0.00  0.00     0.072 H 
BRANCH  47  49
ATOM     49  C21 non d ame     -31.924  15.169  29.112  0.00  0.00    -0.038 C 
ATOM     50  H31 non d ame     -30.864  14.910  29.083  0.00  0.00     0.036 H 
ATOM     51  H32 non d ame     -32.289  15.887  29.846  0.00  0.00     0.036 H 
BRANCH  49  52
ATOM     52  C22 non d ame     -32.688  13.853  29.372  0.00  0.00     0.018 C 
ATOM     53  H33 non d ame     -33.048  13.917  30.397  0.00  0.00     0.048 H 
ATOM     54  H34 non d ame     -33.399  13.758  28.549  0.00  0.00     0.048 H 
BRANCH  52  55
ATOM     55  C23 non d ame     -31.791  12.586  29.310  0.00  0.00     0.259 C 
ATOM     56  O7  non d ame     -30.852  12.545  28.583  0.00  0.00    -0.265 OA
BRANCH  55  57
ATOM     57  O8  non d ame     -32.114  11.464  30.124  0.00  0.00    -0.317 OA
BRANCH  57  58
ATOM     58  C29 non d ame     -33.044  11.753  31.172  0.00  0.00     0.052 C 
ATOM     59  H47 non d ame     -32.450  11.814  32.083  0.00  0.00     0.082 H 
ATOM     60  H48 non d ame     -33.612  12.619  30.831  0.00  0.00     0.082 H 
BRANCH  58  61
ATOM     61  C35 non d ame     -34.015  10.548  31.297  0.00  0.00    -0.034 A 
ATOM     62  C30 non d ame     -34.971  10.528  32.307  0.00  0.00    -0.075 A 
ATOM     63  C31 non d ame     -35.844   9.445  32.420  0.00  0.00    -0.082 A 
ATOM     64  H49 non d ame     -35.038  11.358  33.010  0.00  0.00     0.084 H 
ATOM     65  C32 non d ame     -35.754   8.380  31.520  0.00  0.00    -0.083 A 
ATOM     66  H50 non d ame     -36.593   9.432  33.212  0.00  0.00     0.083 H 
ATOM     67  C33 non d ame     -34.796   8.404  30.516  0.00  0.00    -0.082 A 
ATOM     68  H51 non d ame     -36.433   7.531  31.601  0.00  0.00     0.083 H 
ATOM     69  C34 non d ame     -33.924   9.485  30.398  0.00  0.00    -0.075 A 
ATOM     70  H52 non d ame     -34.727   7.571  29.816  0.00  0.00     0.083 H 
ATOM     71  H53 non d ame     -33.174   9.496  29.606  0.00  0.00     0.084 H 
ENDBRANCH  58  61
ENDBRANCH  57  58
ENDBRANCH  55  57
ENDBRANCH  52  55
ENDBRANCH  49  52
ENDBRANCH  47  49
BRANCH  47  72
ATOM     72  C24 non d ame     -33.685  16.247  27.735  0.00  0.00    -0.039 C 
ATOM     73  H35 non d ame     -34.210  15.538  27.093  0.00  0.00     0.036 H 
ATOM     74  H36 non d ame     -33.974  16.353  28.780  0.00  0.00     0.036 H 
BRANCH  72  75
ATOM     75  C25 non d ame     -33.824  17.692  27.057  0.00  0.00    -0.001 C 
ATOM     76  C26 non d ame     -32.435  18.545  27.270  0.00  0.00    -0.035 C 
ATOM     77  C27 non d ame     -32.743  19.758  27.787  0.00  0.00     0.085 C 
ATOM     78  H38 non d ame     -31.827  18.083  28.048  0.00  0.00     0.036 H 
ATOM     79  H39 non d ame     -31.992  18.785  26.303  0.00  0.00     0.036 H 
ATOM     80  N5  non d ame     -34.177  19.689  28.252  0.00  0.00    -0.049 N 
ATOM     81  H40 non d ame     -32.093  19.879  28.655  0.00  0.00     0.075 H 
ATOM     82  H41 non d ame     -32.673  20.457  26.954  0.00  0.00     0.075 H 
ATOM     83  C28 non d ame     -34.799  18.361  27.577  0.00  0.00     0.193 C 
ATOM     84  H42 non d ame     -34.148  19.558  29.253  0.00  0.00     0.280 HD
ATOM     85  H43 non d ame     -34.643  20.496  27.862  0.00  0.00     0.280 HD
ATOM     86  H44 non d ame     -35.467  18.435  26.720  0.00  0.00     0.129 H 
ATOM     87  H37 non d ame     -34.222  17.637  26.044  0.00  0.00     0.046 H 
BRANCH  83  88
ATOM     88  O6  non d ame     -35.514  17.600  28.554  0.00  0.00    -0.369 OA
ATOM     89  H45 non d ame     -35.592  18.111  29.362  0.00  0.00     0.212 HD
ENDBRANCH  83  88
ENDBRANCH  72  75
ENDBRANCH  47  72
ENDBRANCH  45  47
ENDBRANCH   1  43
BRANCH   1  90
ATOM     90  C16 non d ame     -31.303  14.693  22.980  0.00  0.00    -0.035 C 
ATOM     91  H21 non d ame     -32.050  14.066  22.493  0.00  0.00     0.037 H 
ATOM     92  H22 non d ame     -31.521  15.741  23.182  0.00  0.00     0.037 H 
BRANCH  90  93
ATOM     93  C17 non d ame     -30.043  14.673  22.059  0.00  0.00    -0.059 C 
ATOM     94  H23 non d ame     -29.307  15.352  22.489  0.00  0.00     0.038 H 
BRANCH  93  95
ATOM     95  C18 non d ame     -29.393  13.255  21.980  0.00  0.00    -0.073 C 
ATOM     96  H24 non d ame     -29.801  12.715  21.126  0.00  0.00     0.028 H 
ATOM     97  H25 non d ame     -28.314  13.355  21.862  0.00  0.00     0.028 H 
ATOM     98  H26 non d ame     -29.609  12.704  22.895  0.00  0.00     0.028 H 
ENDBRANCH  93  95
BRANCH  93  99
ATOM     99  C19 non d ame     -30.380  15.196  20.660  0.00  0.00    -0.073 C 
ATOM    100  H27 non d ame     -30.618  16.259  20.716  0.00  0.00     0.028 H 
ATOM    101  H28 non d ame     -29.524  15.050  20.001  0.00  0.00     0.028 H 
ATOM    102  H29 non d ame     -31.237  14.651  20.265  0.00  0.00     0.028 H 
ENDBRANCH  93  99
ENDBRANCH  90  93
ENDBRANCH   1  90
TORSDOF 26
ENDMDL
MODEL 12
REMARK VINA RESULT:      -6.9      2.421      7.983
REMARK  26 active torsions:
REMARK  status: ('A' for Active; 'I' for Inactive)
REMARK    1  A    between atoms: C2_2  and  C3_3 
REMARK    2  A    between atoms: C4_6  and  C5_7 
REMARK       I    between atoms: C5_7  and  N2_9 
REMARK    3  A    between atoms: N2_9  and  C6_10 
REMARK    4  A    between atoms: C6_10  and  C7_11 
REMARK    5  A    between atoms: C6_10  and  C8_13 
REMARK       I    between atoms: C7_11  and  N3_14 
REMARK    6  A    between atoms: N3_14  and  C9_15 
REMARK    7  A    between atoms: C9_15  and  C10_16 
REMARK    8  A    between atoms: C9_15  and  C11_18 
REMARK       I    between atoms: C10_16  and  N4_21 
REMARK    9  A    between atoms: C11_18  and  C12_19 
REMARK   10  A    between atoms: C11_18  and  C13_20 
REMARK   11  A    between atoms: N4_21  and  C14_22 
REMARK   12  A    between atoms: C14_22  and  C15_23 
REMARK   13  A    between atoms: C14_22  and  C16_25 
REMARK       I    between atoms: C15_23  and  N6_40 
REMARK   14  A    between atoms: C16_25  and  C17_26 
REMARK   15  A    between atoms: C17_26  and  C18_27 
REMARK   16  A    between atoms: C17_26  and  C19_28 
REMARK   17  A    between atoms: C20_29  and  C21_30 
REMARK   18  A    between atoms: C20_29  and  C24_33 
REMARK   19  A    between atoms: C20_29  and  N6_40 
REMARK   20  A    between atoms: C21_30  and  C22_31 
REMARK   21  A    between atoms: C22_31  and  C23_32 
REMARK   22  A    between atoms: C23_32  and  O8_43 
REMARK   23  A    between atoms: C24_33  and  C25_34 
REMARK   24  A    between atoms: C28_38  and  O6_39 
REMARK   25  A    between atoms: C29_42  and  O8_43 
REMARK   26  A    between atoms: C29_42  and  C35_49 
ROOT
ATOM      1  C14 non d ame     -36.526  16.163  26.482  0.00  0.00     0.089 C 
ATOM      2  H20 non d ame     -37.103  16.727  27.215  0.00  0.00     0.087 H 
ENDROOT
BRANCH   1   3
ATOM      3  N4  non d ame     -35.120  16.313  26.822  0.00  0.00    -0.346 N 
ATOM      4  C10 non d ame     -34.697  17.266  27.912  0.00  0.00     0.241 C 
ATOM      5  O4  non d ame     -35.507  17.904  28.498  0.00  0.00    -0.271 OA
ATOM      6  H19 non d ame     -34.446  15.762  26.310  0.00  0.00     0.163 HD
BRANCH   4   7
ATOM      7  C9  non d ame     -33.237  17.404  28.255  0.00  0.00     0.092 C 
ATOM      8  H11 non d ame     -33.140  17.900  29.221  0.00  0.00     0.088 H 
BRANCH   7   9
ATOM      9  N3  non d ame     -32.638  16.074  28.388  0.00  0.00    -0.346 N 
ATOM     10  C7  non d ame     -31.767  15.783  29.501  0.00  0.00     0.240 C 
ATOM     11  O3  non d ame     -31.537  16.610  30.298  0.00  0.00    -0.271 OA
ATOM     12  H10 non d ame     -32.825  15.351  27.708  0.00  0.00     0.163 HD
BRANCH  10  13
ATOM     13  C6  non d ame     -31.130  14.366  29.636  0.00  0.00     0.086 C 
ATOM     14  H6  non d ame     -30.437  14.293  30.475  0.00  0.00     0.086 H 
BRANCH  13  15
ATOM     15  N2  non d ame     -32.185  13.396  29.883  0.00  0.00    -0.343 N 
ATOM     16  C5  non d ame     -31.876  12.165  30.614  0.00  0.00     0.273 C 
ATOM     17  O2  non d ame     -30.776  11.962  30.996  0.00  0.00    -0.266 OA
ATOM     18  H5  non d ame     -33.121  13.576  29.549  0.00  0.00     0.163 HD
BRANCH  16  19
ATOM     19  C4  non d ame     -32.981  11.132  30.883  0.00  0.00     0.154 A 
ATOM     20  C1  non d ame     -33.392  10.062  30.027  0.00  0.00    -0.017 A 
ATOM     21  C2  non d ame     -34.433   9.413  30.729  0.00  0.00     0.077 A 
ATOM     22  H1  non d ame     -32.997   9.797  29.046  0.00  0.00     0.091 H 
ATOM     23  O1  non d ame     -34.591  10.044  31.857  0.00  0.00    -0.218 OA
ATOM     24  N1  non d ame     -33.756  11.051  31.968  0.00  0.00    -0.123 NA
BRANCH  21  25
ATOM     25  C3  non d ame     -35.221   8.200  30.255  0.00  0.00    -0.029 C 
ATOM     26  H2  non d ame     -35.911   7.886  31.037  0.00  0.00     0.036 H 
ATOM     27  H3  non d ame     -35.783   8.460  29.358  0.00  0.00     0.036 H 
ATOM     28  H4  non d ame     -34.534   7.385  30.029  0.00  0.00     0.036 H 
ENDBRANCH  21  25
ENDBRANCH  16  19
ENDBRANCH  13  15
BRANCH  13  29
ATOM     29  C8  non d ame     -30.396  14.018  28.365  0.00  0.00    -0.049 C 
ATOM     30  H7  non d ame     -30.388  14.883  27.702  0.00  0.00     0.030 H 
ATOM     31  H8  non d ame     -29.371  13.734  28.605  0.00  0.00     0.030 H 
ATOM     32  H9  non d ame     -30.898  13.186  27.872  0.00  0.00     0.030 H 
ENDBRANCH  13  29
ENDBRANCH  10  13
ENDBRANCH   7   9
BRANCH   7  33
ATOM     33  C11 non d ame     -32.510  18.187  27.122  0.00  0.00    -0.033 C 
ATOM     34  H12 non d ame     -31.455  18.248  27.390  0.00  0.00     0.042 H 
BRANCH  33  35
ATOM     35  C12 non d ame     -32.605  17.434  25.758  0.00  0.00    -0.071 C 
ATOM     36  H13 non d ame     -33.652  17.330  25.473  0.00  0.00     0.028 H 
ATOM     37  H14 non d ame     -32.075  18.000  24.994  0.00  0.00     0.028 H 
ATOM     38  H15 non d ame     -32.156  16.446  25.857  0.00  0.00     0.028 H 
ENDBRANCH  33  35
BRANCH  33  39
ATOM     39  C13 non d ame     -33.064  19.643  27.005  0.00  0.00    -0.071 C 
ATOM     40  H16 non d ame     -34.153  19.624  27.054  0.00  0.00     0.028 H 
ATOM     41  H17 non d ame     -32.674  20.248  27.825  0.00  0.00     0.028 H 
ATOM     42  H18 non d ame     -32.750  20.076  26.055  0.00  0.00     0.028 H 
ENDBRANCH  33  39
ENDBRANCH   7  33
ENDBRANCH   4   7
ENDBRANCH   1   3
BRANCH   1  43
ATOM     43  C15 non d ame     -36.880  14.648  26.494  0.00  0.00     0.240 C 
ATOM     44  O5  non d ame     -37.992  14.303  26.732  0.00  0.00    -0.271 OA
ATOM     45  N6  non d ame     -35.835  13.628  26.198  0.00  0.00    -0.355 N 
ATOM     46  H46 non d ame     -34.887  13.910  25.989  0.00  0.00     0.162 HD
BRANCH  45  47
ATOM     47  C20 non d ame     -36.187  12.191  26.211  0.00  0.00     0.013 C 
ATOM     48  H30 non d ame     -37.129  12.082  26.750  0.00  0.00     0.072 H 
BRANCH  47  49
ATOM     49  C21 non d ame     -35.096  11.416  26.915  0.00  0.00    -0.038 C 
ATOM     50  H31 non d ame     -34.603  12.133  27.574  0.00  0.00     0.036 H 
ATOM     51  H32 non d ame     -35.584  10.537  27.335  0.00  0.00     0.036 H 
BRANCH  49  52
ATOM     52  C22 non d ame     -34.012  10.894  25.949  0.00  0.00     0.018 C 
ATOM     53  H33 non d ame     -33.944   9.823  26.131  0.00  0.00     0.048 H 
ATOM     54  H34 non d ame     -34.296  11.262  24.961  0.00  0.00     0.048 H 
BRANCH  52  55
ATOM     55  C23 non d ame     -32.595  11.468  26.228  0.00  0.00     0.259 C 
ATOM     56  O7  non d ame     -31.957  11.076  27.150  0.00  0.00    -0.265 OA
BRANCH  55  57
ATOM     57  O8  non d ame     -32.073  12.480  25.375  0.00  0.00    -0.317 OA
BRANCH  57  58
ATOM     58  C29 non d ame     -31.225  11.984  24.335  0.00  0.00     0.052 C 
ATOM     59  H47 non d ame     -30.423  11.446  24.840  0.00  0.00     0.082 H 
ATOM     60  H48 non d ame     -31.884  11.459  23.643  0.00  0.00     0.082 H 
BRANCH  58  61
ATOM     61  C35 non d ame     -30.610  13.203  23.596  0.00  0.00    -0.034 A 
ATOM     62  C30 non d ame     -30.844  14.492  24.065  0.00  0.00    -0.075 A 
ATOM     63  C31 non d ame     -30.291  15.587  23.401  0.00  0.00    -0.082 A 
ATOM     64  H49 non d ame     -31.460  14.645  24.950  0.00  0.00     0.084 H 
ATOM     65  C32 non d ame     -29.504  15.389  22.263  0.00  0.00    -0.083 A 
ATOM     66  H50 non d ame     -30.475  16.596  23.771  0.00  0.00     0.083 H 
ATOM     67  C33 non d ame     -29.277  14.101  21.798  0.00  0.00    -0.082 A 
ATOM     68  H51 non d ame     -29.068  16.239  21.739  0.00  0.00     0.083 H 
ATOM     69  C34 non d ame     -29.825  13.004  22.459  0.00  0.00    -0.075 A 
ATOM     70  H52 non d ame     -28.664  13.949  20.908  0.00  0.00     0.083 H 
ATOM     71  H53 non d ame     -29.640  11.995  22.088  0.00  0.00     0.084 H 
ENDBRANCH  58  61
ENDBRANCH  57  58
ENDBRANCH  55  57
ENDBRANCH  52  55
ENDBRANCH  49  52
ENDBRANCH  47  49
BRANCH  47  72
ATOM     72  C24 non d ame     -36.333  11.681  24.779  0.00  0.00    -0.039 C 
ATOM     73  H35 non d ame     -35.754  12.373  24.166  0.00  0.00     0.036 H 
ATOM     74  H36 non d ame     -36.059  10.627  24.818  0.00  0.00     0.036 H 
BRANCH  72  75
ATOM     75  C25 non d ame     -37.851  11.758  24.275  0.00  0.00    -0.001 C 
ATOM     76  C26 non d ame     -38.290  10.323  23.604  0.00  0.00    -0.035 C 
ATOM     77  C27 non d ame     -38.824  10.558  22.381  0.00  0.00     0.085 C 
ATOM     78  H38 non d ame     -37.405   9.726  23.385  0.00  0.00     0.036 H 
ATOM     79  H39 non d ame     -39.118   9.886  24.163  0.00  0.00     0.036 H 
ATOM     80  N5  non d ame     -38.490  11.985  22.020  0.00  0.00    -0.049 N 
ATOM     81  H40 non d ame     -38.299   9.887  21.700  0.00  0.00     0.075 H 
ATOM     82  H41 non d ame     -39.902  10.468  22.511  0.00  0.00     0.075 H 
ATOM     83  C28 non d ame     -38.004  12.687  23.390  0.00  0.00     0.193 C 
ATOM     84  H42 non d ame     -37.706  11.944  21.384  0.00  0.00     0.280 HD
ATOM     85  H43 non d ame     -39.355  12.416  21.727  0.00  0.00     0.280 HD
ATOM     86  H44 non d ame     -38.663  13.366  23.929  0.00  0.00     0.129 H 
ATOM     87  H37 non d ame     -38.517  12.177  25.029  0.00  0.00     0.046 H 
BRANCH  83  88
ATOM     88  O6  non d ame     -36.799  13.422  23.167  0.00  0.00    -0.369 OA
ATOM     89  H45 non d ame     -36.439  13.711  24.009  0.00  0.00     0.212 HD
ENDBRANCH  83  88
ENDBRANCH  72  75
ENDBRANCH  47  72
ENDBRANCH  45  47
ENDBRANCH   1  43
BRANCH   1  90
ATOM     90  C16 non d ame     -36.764  16.732  25.092  0.00  0.00    -0.035 C 
ATOM     91  H21 non d ame     -35.776  16.815  24.641  0.00  0.00     0.037 H 
ATOM     92  H22 non d ame     -37.516  16.087  24.640  0.00  0.00     0.037 H 
BRANCH  90  93
ATOM     93  C17 non d ame     -37.365  18.174  25.100  0.00  0.00    -0.059 C 
ATOM     94  H23 non d ame     -37.957  18.291  24.192  0.00  0.00     0.038 H 
BRANCH  93  95
ATOM     95  C18 non d ame     -38.312  18.411  26.320  0.00  0.00    -0.073 C 
ATOM     96  H24 non d ame     -37.955  17.836  27.174  0.00  0.00     0.028 H 
ATOM     97  H25 non d ame     -38.318  19.471  26.574  0.00  0.00     0.028 H 
ATOM     98  H26 non d ame     -39.322  18.093  26.064  0.00  0.00     0.028 H 
ENDBRANCH  93  95
BRANCH  93  99
ATOM     99  C19 non d ame     -36.256  19.229  25.058  0.00  0.00    -0.073 C 
ATOM    100  H27 non d ame     -36.575  20.067  24.438  0.00  0.00     0.028 H 
ATOM    101  H28 non d ame     -36.053  19.583  26.069  0.00  0.00     0.028 H 
ATOM    102  H29 non d ame     -35.352  18.789  24.640  0.00  0.00     0.028 H 
ENDBRANCH  93  99
ENDBRANCH  90  93
ENDBRANCH   1  90
TORSDOF 26
ENDMDL
MODEL 13
REMARK VINA RESULT:      -6.9      3.161      7.720
REMARK  26 active torsions:
REMARK  status: ('A' for Active; 'I' for Inactive)
REMARK    1  A    between atoms: C2_2  and  C3_3 
REMARK    2  A    between atoms: C4_6  and  C5_7 
REMARK       I    between atoms: C5_7  and  N2_9 
REMARK    3  A    between atoms: N2_9  and  C6_10 
REMARK    4  A    between atoms: C6_10  and  C7_11 
REMARK    5  A    between atoms: C6_10  and  C8_13 
REMARK       I    between atoms: C7_11  and  N3_14 
REMARK    6  A    between atoms: N3_14  and  C9_15 
REMARK    7  A    between atoms: C9_15  and  C10_16 
REMARK    8  A    between atoms: C9_15  and  C11_18 
REMARK       I    between atoms: C10_16  and  N4_21 
REMARK    9  A    between atoms: C11_18  and  C12_19 
REMARK   10  A    between atoms: C11_18  and  C13_20 
REMARK   11  A    between atoms: N4_21  and  C14_22 
REMARK   12  A    between atoms: C14_22  and  C15_23 
REMARK   13  A    between atoms: C14_22  and  C16_25 
REMARK       I    between atoms: C15_23  and  N6_40 
REMARK   14  A    between atoms: C16_25  and  C17_26 
REMARK   15  A    between atoms: C17_26  and  C18_27 
REMARK   16  A    between atoms: C17_26  and  C19_28 
REMARK   17  A    between atoms: C20_29  and  C21_30 
REMARK   18  A    between atoms: C20_29  and  C24_33 
REMARK   19  A    between atoms: C20_29  and  N6_40 
REMARK   20  A    between atoms: C21_30  and  C22_31 
REMARK   21  A    between atoms: C22_31  and  C23_32 
REMARK   22  A    between atoms: C23_32  and  O8_43 
REMARK   23  A    between atoms: C24_33  and  C25_34 
REMARK   24  A    between atoms: C28_38  and  O6_39 
REMARK   25  A    between atoms: C29_42  and  O8_43 
REMARK   26  A    between atoms: C29_42  and  C35_49 
ROOT
ATOM      1  C14 non d ame     -32.879  13.224  27.999  0.00  0.00     0.089 C 
ATOM      2  H20 non d ame     -33.954  13.305  27.833  0.00  0.00     0.087 H 
ENDROOT
BRANCH   1   3
ATOM      3  N4  non d ame     -32.455  11.926  27.495  0.00  0.00    -0.346 N 
ATOM      4  C10 non d ame     -33.119  11.327  26.280  0.00  0.00     0.241 C 
ATOM      5  O4  non d ame     -33.994  11.906  25.727  0.00  0.00    -0.271 OA
ATOM      6  H19 non d ame     -31.710  11.448  27.981  0.00  0.00     0.163 HD
BRANCH   4   7
ATOM      7  C9  non d ame     -32.663   9.986  25.768  0.00  0.00     0.092 C 
ATOM      8  H11 non d ame     -31.710   9.730  26.233  0.00  0.00     0.088 H 
BRANCH   7   9
ATOM      9  N3  non d ame     -33.628   8.957  26.164  0.00  0.00    -0.346 N 
ATOM     10  C7  non d ame     -33.654   8.478  27.524  0.00  0.00     0.240 C 
ATOM     11  O3  non d ame     -32.904   8.909  28.313  0.00  0.00    -0.271 OA
ATOM     12  H10 non d ame     -34.281   8.575  25.495  0.00  0.00     0.163 HD
BRANCH  10  13
ATOM     13  C6  non d ame     -34.683   7.380  27.940  0.00  0.00     0.086 C 
ATOM     14  H6  non d ame     -34.809   6.611  27.178  0.00  0.00     0.086 H 
BRANCH  13  15
ATOM     15  N2  non d ame     -34.197   6.708  29.133  0.00  0.00    -0.343 N 
ATOM     16  C5  non d ame     -34.085   5.247  29.143  0.00  0.00     0.273 C 
ATOM     17  O2  non d ame     -34.389   4.623  28.186  0.00  0.00    -0.266 OA
ATOM     18  H5  non d ame     -33.943   7.249  29.947  0.00  0.00     0.163 HD
BRANCH  16  19
ATOM     19  C4  non d ame     -33.572   4.523  30.397  0.00  0.00     0.154 A 
ATOM     20  C1  non d ame     -32.506   3.571  30.471  0.00  0.00    -0.017 A 
ATOM     21  C2  non d ame     -32.434   3.211  31.836  0.00  0.00     0.077 A 
ATOM     22  H1  non d ame     -31.881   3.198  29.660  0.00  0.00     0.091 H 
ATOM     23  O1  non d ame     -33.354   3.885  32.463  0.00  0.00    -0.218 OA
ATOM     24  N1  non d ame     -34.031   4.657  31.644  0.00  0.00    -0.123 NA
BRANCH  21  25
ATOM     25  C3  non d ame     -31.460   2.219  32.456  0.00  0.00    -0.029 C 
ATOM     26  H2  non d ame     -32.012   1.483  33.041  0.00  0.00     0.036 H 
ATOM     27  H3  non d ame     -30.906   1.712  31.666  0.00  0.00     0.036 H 
ATOM     28  H4  non d ame     -30.764   2.750  33.105  0.00  0.00     0.036 H 
ENDBRANCH  21  25
ENDBRANCH  16  19
ENDBRANCH  13  15
BRANCH  13  29
ATOM     29  C8  non d ame     -36.021   8.019  28.215  0.00  0.00    -0.049 C 
ATOM     30  H7  non d ame     -35.932   9.101  28.125  0.00  0.00     0.030 H 
ATOM     31  H8  non d ame     -36.752   7.654  27.494  0.00  0.00     0.030 H 
ATOM     32  H9  non d ame     -36.345   7.763  29.224  0.00  0.00     0.030 H 
ENDBRANCH  13  29
ENDBRANCH  10  13
ENDBRANCH   7   9
BRANCH   7  33
ATOM     33  C11 non d ame     -32.563  10.030  24.216  0.00  0.00    -0.033 C 
ATOM     34  H12 non d ame     -33.032  10.956  23.883  0.00  0.00     0.042 H 
BRANCH  33  35
ATOM     35  C12 non d ame     -31.076  10.060  23.741  0.00  0.00    -0.071 C 
ATOM     36  H13 non d ame     -30.451  10.472  24.533  0.00  0.00     0.028 H 
ATOM     37  H14 non d ame     -30.749   9.046  23.511  0.00  0.00     0.028 H 
ATOM     38  H15 non d ame     -30.991  10.681  22.850  0.00  0.00     0.028 H 
ENDBRANCH  33  35
BRANCH  33  39
ATOM     39  C13 non d ame     -33.339   8.837  23.571  0.00  0.00    -0.071 C 
ATOM     40  H16 non d ame     -34.027   8.413  24.303  0.00  0.00     0.028 H 
ATOM     41  H17 non d ame     -33.902   9.193  22.707  0.00  0.00     0.028 H 
ATOM     42  H18 non d ame     -32.631   8.073  23.251  0.00  0.00     0.028 H 
ENDBRANCH  33  39
ENDBRANCH   7  33
ENDBRANCH   4   7
ENDBRANCH   1   3
BRANCH   1  43
ATOM     43  C15 non d ame     -32.083  14.330  27.251  0.00  0.00     0.240 C 
ATOM     44  O5  non d ame     -30.918  14.456  27.450  0.00  0.00    -0.271 OA
ATOM     45  N6  non d ame     -32.770  15.227  26.279  0.00  0.00    -0.355 N 
ATOM     46  H46 non d ame     -33.759  15.125  26.098  0.00  0.00     0.162 HD
BRANCH  45  47
ATOM     47  C20 non d ame     -31.999  16.274  25.574  0.00  0.00     0.013 C 
ATOM     48  H30 non d ame     -31.023  16.351  26.053  0.00  0.00     0.072 H 
BRANCH  47  49
ATOM     49  C21 non d ame     -32.733  17.591  25.679  0.00  0.00    -0.038 C 
ATOM     50  H31 non d ame     -32.358  18.204  24.857  0.00  0.00     0.036 H 
ATOM     51  H32 non d ame     -33.791  17.336  25.730  0.00  0.00     0.036 H 
BRANCH  49  52
ATOM     52  C22 non d ame     -32.405  18.358  26.978  0.00  0.00     0.018 C 
ATOM     53  H33 non d ame     -32.415  17.612  27.771  0.00  0.00     0.048 H 
ATOM     54  H34 non d ame     -31.493  18.918  26.768  0.00  0.00     0.048 H 
BRANCH  52  55
ATOM     55  C23 non d ame     -33.475  19.414  27.369  0.00  0.00     0.259 C 
ATOM     56  O7  non d ame     -33.467  20.494  26.873  0.00  0.00    -0.265 OA
BRANCH  55  57
ATOM     57  O8  non d ame     -34.460  19.082  28.341  0.00  0.00    -0.317 OA
BRANCH  57  58
ATOM     58  C29 non d ame     -35.803  19.145  27.853  0.00  0.00     0.052 C 
ATOM     59  H47 non d ame     -36.440  19.108  28.737  0.00  0.00     0.082 H 
ATOM     60  H48 non d ame     -35.837  20.010  27.191  0.00  0.00     0.082 H 
BRANCH  58  61
ATOM     61  C35 non d ame     -36.065  17.869  27.007  0.00  0.00    -0.034 A 
ATOM     62  C30 non d ame     -36.411  17.984  25.664  0.00  0.00    -0.075 A 
ATOM     63  C31 non d ame     -36.646  16.838  24.904  0.00  0.00    -0.082 A 
ATOM     64  H49 non d ame     -36.498  18.969  25.207  0.00  0.00     0.084 H 
ATOM     65  C32 non d ame     -36.537  15.576  25.493  0.00  0.00    -0.083 A 
ATOM     66  H50 non d ame     -36.916  16.931  23.852  0.00  0.00     0.083 H 
ATOM     67  C33 non d ame     -36.194  15.467  26.834  0.00  0.00    -0.082 A 
ATOM     68  H51 non d ame     -36.718  14.676  24.905  0.00  0.00     0.083 H 
ATOM     69  C34 non d ame     -35.956  16.609  27.596  0.00  0.00    -0.075 A 
ATOM     70  H52 non d ame     -36.112  14.481  27.291  0.00  0.00     0.083 H 
ATOM     71  H53 non d ame     -35.687  16.515  28.649  0.00  0.00     0.084 H 
ENDBRANCH  58  61
ENDBRANCH  57  58
ENDBRANCH  55  57
ENDBRANCH  52  55
ENDBRANCH  49  52
ENDBRANCH  47  49
BRANCH  47  72
ATOM     72  C24 non d ame     -31.838  15.895  24.103  0.00  0.00    -0.039 C 
ATOM     73  H35 non d ame     -32.608  15.146  23.911  0.00  0.00     0.036 H 
ATOM     74  H36 non d ame     -31.849  16.838  23.558  0.00  0.00     0.036 H 
BRANCH  72  75
ATOM     75  C25 non d ame     -30.422  15.202  23.821  0.00  0.00    -0.001 C 
ATOM     76  C26 non d ame     -29.816  15.733  22.388  0.00  0.00    -0.035 C 
ATOM     77  C27 non d ame     -29.469  14.660  21.636  0.00  0.00     0.085 C 
ATOM     78  H38 non d ame     -30.601  16.211  21.803  0.00  0.00     0.036 H 
ATOM     79  H39 non d ame     -28.868  16.246  22.550  0.00  0.00     0.036 H 
ATOM     80  N5  non d ame     -30.086  13.447  22.289  0.00  0.00    -0.049 N 
ATOM     81  H40 non d ame     -29.941  14.820  20.666  0.00  0.00     0.075 H 
ATOM     82  H41 non d ame     -28.384  14.590  21.710  0.00  0.00     0.075 H 
ATOM     83  C28 non d ame     -30.533  13.916  23.767  0.00  0.00     0.193 C 
ATOM     84  H42 non d ame     -30.916  13.225  21.757  0.00  0.00     0.280 HD
ATOM     85  H43 non d ame     -29.347  12.763  22.378  0.00  0.00     0.280 HD
ATOM     86  H44 non d ame     -29.947  13.630  24.640  0.00  0.00     0.129 H 
ATOM     87  H37 non d ame     -29.761  15.245  24.686  0.00  0.00     0.046 H 
BRANCH  83  88
ATOM     88  O6  non d ame     -31.865  13.478  24.042  0.00  0.00    -0.369 OA
ATOM     89  H45 non d ame     -32.469  13.873  23.409  0.00  0.00     0.212 HD
ENDBRANCH  83  88
ENDBRANCH  72  75
ENDBRANCH  47  72
ENDBRANCH  45  47
ENDBRANCH   1  43
BRANCH   1  90
ATOM     90  C16 non d ame     -32.582  13.298  29.488  0.00  0.00    -0.035 C 
ATOM     91  H21 non d ame     -31.729  13.969  29.580  0.00  0.00     0.037 H 
ATOM     92  H22 non d ame     -33.530  13.555  29.959  0.00  0.00     0.037 H 
BRANCH  90  93
ATOM     93  C17 non d ame     -32.136  11.935  30.107  0.00  0.00    -0.059 C 
ATOM     94  H23 non d ame     -32.038  11.217  29.293  0.00  0.00     0.038 H 
BRANCH  93  95
ATOM     95  C18 non d ame     -30.751  12.037  30.823  0.00  0.00    -0.073 C 
ATOM     96  H24 non d ame     -30.181  11.126  30.644  0.00  0.00     0.028 H 
ATOM     97  H25 non d ame     -30.201  12.892  30.429  0.00  0.00     0.028 H 
ATOM     98  H26 non d ame     -30.904  12.167  31.894  0.00  0.00     0.028 H 
ENDBRANCH  93  95
BRANCH  93  99
ATOM     99  C19 non d ame     -33.203  11.394  31.063  0.00  0.00    -0.073 C 
ATOM    100  H27 non d ame     -32.720  10.894  31.903  0.00  0.00     0.028 H 
ATOM    101  H28 non d ame     -33.811  12.219  31.434  0.00  0.00     0.028 H 
ATOM    102  H29 non d ame     -33.839  10.684  30.534  0.00  0.00     0.028 H 
ENDBRANCH  93  99
ENDBRANCH  90  93
ENDBRANCH   1  90
TORSDOF 26
ENDMDL
MODEL 14
REMARK VINA RESULT:      -6.9      2.385      6.331
REMARK  26 active torsions:
REMARK  status: ('A' for Active; 'I' for Inactive)
REMARK    1  A    between atoms: C2_2  and  C3_3 
REMARK    2  A    between atoms: C4_6  and  C5_7 
REMARK       I    between atoms: C5_7  and  N2_9 
REMARK    3  A    between atoms: N2_9  and  C6_10 
REMARK    4  A    between atoms: C6_10  and  C7_11 
REMARK    5  A    between atoms: C6_10  and  C8_13 
REMARK       I    between atoms: C7_11  and  N3_14 
REMARK    6  A    between atoms: N3_14  and  C9_15 
REMARK    7  A    between atoms: C9_15  and  C10_16 
REMARK    8  A    between atoms: C9_15  and  C11_18 
REMARK       I    between atoms: C10_16  and  N4_21 
REMARK    9  A    between atoms: C11_18  and  C12_19 
REMARK   10  A    between atoms: C11_18  and  C13_20 
REMARK   11  A    between atoms: N4_21  and  C14_22 
REMARK   12  A    between atoms: C14_22  and  C15_23 
REMARK   13  A    between atoms: C14_22  and  C16_25 
REMARK       I    between atoms: C15_23  and  N6_40 
REMARK   14  A    between atoms: C16_25  and  C17_26 
REMARK   15  A    between atoms: C17_26  and  C18_27 
REMARK   16  A    between atoms: C17_26  and  C19_28 
REMARK   17  A    between atoms: C20_29  and  C21_30 
REMARK   18  A    between atoms: C20_29  and  C24_33 
REMARK   19  A    between atoms: C20_29  and  N6_40 
REMARK   20  A    between atoms: C21_30  and  C22_31 
REMARK   21  A    between atoms: C22_31  and  C23_32 
REMARK   22  A    between atoms: C23_32  and  O8_43 
REMARK   23  A    between atoms: C24_33  and  C25_34 
REMARK   24  A    between atoms: C28_38  and  O6_39 
REMARK   25  A    between atoms: C29_42  and  O8_43 
REMARK   26  A    between atoms: C29_42  and  C35_49 
ROOT
ATOM      1  C14 non d ame     -31.182  14.052  24.148  0.00  0.00     0.089 C 
ATOM      2  H20 non d ame     -30.199  14.104  24.618  0.00  0.00     0.087 H 
ENDROOT
BRANCH   1   3
ATOM      3  N4  non d ame     -31.453  12.653  23.855  0.00  0.00    -0.346 N 
ATOM      4  C10 non d ame     -31.284  11.604  24.925  0.00  0.00     0.241 C 
ATOM      5  O4  non d ame     -30.924  11.909  26.013  0.00  0.00    -0.271 OA
ATOM      6  H19 non d ame     -31.756  12.414  22.921  0.00  0.00     0.163 HD
BRANCH   4   7
ATOM      7  C9  non d ame     -31.575  10.161  24.605  0.00  0.00     0.092 C 
ATOM      8  H11 non d ame     -30.881   9.524  25.154  0.00  0.00     0.088 H 
BRANCH   7   9
ATOM      9  N3  non d ame     -32.927   9.823  25.058  0.00  0.00    -0.346 N 
ATOM     10  C7  non d ame     -33.130   8.708  25.951  0.00  0.00     0.240 C 
ATOM     11  O3  non d ame     -32.216   8.072  26.313  0.00  0.00    -0.271 OA
ATOM     12  H10 non d ame     -33.725  10.361  24.754  0.00  0.00     0.163 HD
BRANCH  10  13
ATOM     13  C6  non d ame     -34.572   8.350  26.428  0.00  0.00     0.086 C 
ATOM     14  H6  non d ame     -34.737   7.276  26.501  0.00  0.00     0.086 H 
BRANCH  13  15
ATOM     15  N2  non d ame     -34.774   8.893  27.762  0.00  0.00    -0.343 N 
ATOM     16  C5  non d ame     -34.616   8.020  28.927  0.00  0.00     0.273 C 
ATOM     17  O2  non d ame     -34.329   6.883  28.782  0.00  0.00    -0.266 OA
ATOM     18  H5  non d ame     -35.024   9.865  27.876  0.00  0.00     0.163 HD
BRANCH  16  19
ATOM     19  C4  non d ame     -34.826   8.581  30.342  0.00  0.00     0.154 A 
ATOM     20  C1  non d ame     -35.130   9.932  30.701  0.00  0.00    -0.017 A 
ATOM     21  C2  non d ame     -35.222   9.923  32.111  0.00  0.00     0.077 A 
ATOM     22  H1  non d ame     -35.263  10.789  30.040  0.00  0.00     0.091 H 
ATOM     23  O1  non d ame     -34.998   8.703  32.505  0.00  0.00    -0.218 OA
ATOM     24  N1  non d ame     -34.764   7.903  31.491  0.00  0.00    -0.123 NA
BRANCH  21  25
ATOM     25  C3  non d ame     -35.528  11.119  33.002  0.00  0.00    -0.029 C 
ATOM     26  H2  non d ame     -36.103  10.790  33.867  0.00  0.00     0.036 H 
ATOM     27  H3  non d ame     -34.594  11.570  33.338  0.00  0.00     0.036 H 
ATOM     28  H4  non d ame     -36.104  11.853  32.441  0.00  0.00     0.036 H 
ENDBRANCH  21  25
ENDBRANCH  16  19
ENDBRANCH  13  15
BRANCH  13  29
ATOM     29  C8  non d ame     -35.580   8.937  25.473  0.00  0.00    -0.049 C 
ATOM     30  H7  non d ame     -36.585   8.661  25.791  0.00  0.00     0.030 H 
ATOM     31  H8  non d ame     -35.486  10.023  25.468  0.00  0.00     0.030 H 
ATOM     32  H9  non d ame     -35.398   8.551  24.470  0.00  0.00     0.030 H 
ENDBRANCH  13  29
ENDBRANCH  10  13
ENDBRANCH   7   9
BRANCH   7  33
ATOM     33  C11 non d ame     -31.477   9.941  23.067  0.00  0.00    -0.033 C 
ATOM     34  H12 non d ame     -31.732  10.885  22.583  0.00  0.00     0.042 H 
BRANCH  33  35
ATOM     35  C12 non d ame     -30.022   9.572  22.637  0.00  0.00    -0.071 C 
ATOM     36  H13 non d ame     -30.055   8.779  21.890  0.00  0.00     0.028 H 
ATOM     37  H14 non d ame     -29.536  10.450  22.212  0.00  0.00     0.028 H 
ATOM     38  H15 non d ame     -29.462   9.230  23.506  0.00  0.00     0.028 H 
ENDBRANCH  33  35
BRANCH  33  39
ATOM     39  C13 non d ame     -32.500   8.861  22.589  0.00  0.00    -0.071 C 
ATOM     40  H16 non d ame     -33.511   9.262  22.660  0.00  0.00     0.028 H 
ATOM     41  H17 non d ame     -32.287   8.591  21.555  0.00  0.00     0.028 H 
ATOM     42  H18 non d ame     -32.415   7.976  23.219  0.00  0.00     0.028 H 
ENDBRANCH  33  39
ENDBRANCH   7  33
ENDBRANCH   4   7
ENDBRANCH   1   3
BRANCH   1  43
ATOM     43  C15 non d ame     -32.307  14.592  25.076  0.00  0.00     0.240 C 
ATOM     44  O5  non d ame     -33.372  14.858  24.620  0.00  0.00    -0.271 OA
ATOM     45  N6  non d ame     -32.061  14.768  26.535  0.00  0.00    -0.355 N 
ATOM     46  H46 non d ame     -31.161  14.541  26.934  0.00  0.00     0.162 HD
BRANCH  45  47
ATOM     47  C20 non d ame     -33.141  15.281  27.405  0.00  0.00     0.013 C 
ATOM     48  H30 non d ame     -34.052  14.731  27.167  0.00  0.00     0.072 H 
BRANCH  47  49
ATOM     49  C21 non d ame     -33.342  16.755  27.138  0.00  0.00    -0.038 C 
ATOM     50  H31 non d ame     -32.803  16.962  26.212  0.00  0.00     0.036 H 
ATOM     51  H32 non d ame     -34.418  16.920  27.190  0.00  0.00     0.036 H 
BRANCH  49  52
ATOM     52  C22 non d ame     -32.708  17.653  28.221  0.00  0.00     0.018 C 
ATOM     53  H33 non d ame     -33.243  17.427  29.142  0.00  0.00     0.048 H 
ATOM     54  H34 non d ame     -31.633  17.477  28.159  0.00  0.00     0.048 H 
BRANCH  52  55
ATOM     55  C23 non d ame     -32.908  19.173  27.971  0.00  0.00     0.259 C 
ATOM     56  O7  non d ame     -32.334  19.975  28.635  0.00  0.00    -0.265 OA
BRANCH  55  57
ATOM     57  O8  non d ame     -33.798  19.600  26.947  0.00  0.00    -0.317 OA
BRANCH  57  58
ATOM     58  C29 non d ame     -35.017  20.168  27.435  0.00  0.00     0.052 C 
ATOM     59  H47 non d ame     -35.324  19.536  28.268  0.00  0.00     0.082 H 
ATOM     60  H48 non d ame     -34.805  21.224  27.601  0.00  0.00     0.082 H 
BRANCH  58  61
ATOM     61  C35 non d ame     -36.084  20.052  26.313  0.00  0.00    -0.034 A 
ATOM     62  C30 non d ame     -37.141  20.955  26.261  0.00  0.00    -0.075 A 
ATOM     63  C31 non d ame     -38.099  20.850  25.253  0.00  0.00    -0.082 A 
ATOM     64  H49 non d ame     -37.220  21.743  27.009  0.00  0.00     0.084 H 
ATOM     65  C32 non d ame     -37.998  19.836  24.297  0.00  0.00    -0.083 A 
ATOM     66  H50 non d ame     -38.926  21.560  25.214  0.00  0.00     0.083 H 
ATOM     67  C33 non d ame     -36.944  18.936  24.355  0.00  0.00    -0.082 A 
ATOM     68  H51 non d ame     -38.743  19.748  23.506  0.00  0.00     0.083 H 
ATOM     69  C34 non d ame     -35.983  19.038  25.359  0.00  0.00    -0.075 A 
ATOM     70  H52 non d ame     -36.868  18.144  23.609  0.00  0.00     0.083 H 
ATOM     71  H53 non d ame     -35.156  18.327  25.397  0.00  0.00     0.084 H 
ENDBRANCH  58  61
ENDBRANCH  57  58
ENDBRANCH  55  57
ENDBRANCH  52  55
ENDBRANCH  49  52
ENDBRANCH  47  49
BRANCH  47  72
ATOM     72  C24 non d ame     -32.767  15.074  28.871  0.00  0.00    -0.039 C 
ATOM     73  H35 non d ame     -32.190  15.958  29.150  0.00  0.00     0.036 H 
ATOM     74  H36 non d ame     -33.704  14.852  29.381  0.00  0.00     0.036 H 
BRANCH  72  75
ATOM     75  C25 non d ame     -31.810  13.804  29.065  0.00  0.00    -0.001 C 
ATOM     76  C26 non d ame     -32.688  12.519  29.594  0.00  0.00    -0.035 C 
ATOM     77  C27 non d ame     -32.086  12.001  30.692  0.00  0.00     0.085 C 
ATOM     78  H38 non d ame     -33.655  12.854  29.968  0.00  0.00     0.036 H 
ATOM     79  H39 non d ame     -32.635  11.707  28.869  0.00  0.00     0.036 H 
ATOM     80  N5  non d ame     -31.065  13.012  31.153  0.00  0.00    -0.049 N 
ATOM     81  H40 non d ame     -32.872  11.922  31.445  0.00  0.00     0.075 H 
ATOM     82  H41 non d ame     -31.570  11.106  30.347  0.00  0.00     0.075 H 
ATOM     83  C28 non d ame     -30.879  14.047  29.928  0.00  0.00     0.193 C 
ATOM     84  H42 non d ame     -31.479  13.505  31.931  0.00  0.00     0.280 HD
ATOM     85  H43 non d ame     -30.199  12.506  31.280  0.00  0.00     0.280 HD
ATOM     86  H44 non d ame     -29.999  13.997  29.289  0.00  0.00     0.129 H 
ATOM     87  H37 non d ame     -31.160  13.641  28.206  0.00  0.00     0.046 H 
BRANCH  83  88
ATOM     88  O6  non d ame     -30.927  15.392  30.408  0.00  0.00    -0.369 OA
ATOM     89  H45 non d ame     -31.440  15.931  29.801  0.00  0.00     0.212 HD
ENDBRANCH  83  88
ENDBRANCH  72  75
ENDBRANCH  47  72
ENDBRANCH  45  47
ENDBRANCH   1  43
BRANCH   1  90
ATOM     90  C16 non d ame     -31.171  14.838  22.846  0.00  0.00    -0.035 C 
ATOM     91  H21 non d ame     -31.550  14.151  22.091  0.00  0.00     0.037 H 
ATOM     92  H22 non d ame     -31.709  15.761  23.062  0.00  0.00     0.037 H 
BRANCH  90  93
ATOM     93  C17 non d ame     -29.741  15.260  22.380  0.00  0.00    -0.059 C 
ATOM     94  H23 non d ame     -29.346  15.960  23.115  0.00  0.00     0.038 H 
BRANCH  93  95
ATOM     95  C18 non d ame     -28.764  14.043  22.305  0.00  0.00    -0.073 C 
ATOM     96  H24 non d ame     -29.282  13.187  21.874  0.00  0.00     0.028 H 
ATOM     97  H25 non d ame     -27.909  14.302  21.680  0.00  0.00     0.028 H 
ATOM     98  H26 non d ame     -28.418  13.793  23.307  0.00  0.00     0.028 H 
ENDBRANCH  93  95
BRANCH  93  99
ATOM     99  C19 non d ame     -29.799  15.994  21.038  0.00  0.00    -0.073 C 
ATOM    100  H27 non d ame     -30.764  16.492  20.937  0.00  0.00     0.028 H 
ATOM    101  H28 non d ame     -29.002  16.737  20.995  0.00  0.00     0.028 H 
ATOM    102  H29 non d ame     -29.672  15.279  20.226  0.00  0.00     0.028 H 
ENDBRANCH  93  99
ENDBRANCH  90  93
ENDBRANCH   1  90
TORSDOF 26
ENDMDL
MODEL 15
REMARK VINA RESULT:      -6.9      3.294      7.023
REMARK  26 active torsions:
REMARK  status: ('A' for Active; 'I' for Inactive)
REMARK    1  A    between atoms: C2_2  and  C3_3 
REMARK    2  A    between atoms: C4_6  and  C5_7 
REMARK       I    between atoms: C5_7  and  N2_9 
REMARK    3  A    between atoms: N2_9  and  C6_10 
REMARK    4  A    between atoms: C6_10  and  C7_11 
REMARK    5  A    between atoms: C6_10  and  C8_13 
REMARK       I    between atoms: C7_11  and  N3_14 
REMARK    6  A    between atoms: N3_14  and  C9_15 
REMARK    7  A    between atoms: C9_15  and  C10_16 
REMARK    8  A    between atoms: C9_15  and  C11_18 
REMARK       I    between atoms: C10_16  and  N4_21 
REMARK    9  A    between atoms: C11_18  and  C12_19 
REMARK   10  A    between atoms: C11_18  and  C13_20 
REMARK   11  A    between atoms: N4_21  and  C14_22 
REMARK   12  A    between atoms: C14_22  and  C15_23 
REMARK   13  A    between atoms: C14_22  and  C16_25 
REMARK       I    between atoms: C15_23  and  N6_40 
REMARK   14  A    between atoms: C16_25  and  C17_26 
REMARK   15  A    between atoms: C17_26  and  C18_27 
REMARK   16  A    between atoms: C17_26  and  C19_28 
REMARK   17  A    between atoms: C20_29  and  C21_30 
REMARK   18  A    between atoms: C20_29  and  C24_33 
REMARK   19  A    between atoms: C20_29  and  N6_40 
REMARK   20  A    between atoms: C21_30  and  C22_31 
REMARK   21  A    between atoms: C22_31  and  C23_32 
REMARK   22  A    between atoms: C23_32  and  O8_43 
REMARK   23  A    between atoms: C24_33  and  C25_34 
REMARK   24  A    between atoms: C28_38  and  O6_39 
REMARK   25  A    between atoms: C29_42  and  O8_43 
REMARK   26  A    between atoms: C29_42  and  C35_49 
ROOT
ATOM      1  C14 non d ame     -32.496   8.691  24.844  0.00  0.00     0.089 C 
ATOM      2  H20 non d ame     -31.422   8.521  24.771  0.00  0.00     0.087 H 
ENDROOT
BRANCH   1   3
ATOM      3  N4  non d ame     -33.120   7.416  25.165  0.00  0.00    -0.346 N 
ATOM      4  C10 non d ame     -32.385   6.123  24.914  0.00  0.00     0.241 C 
ATOM      5  O4  non d ame     -31.294   6.134  24.449  0.00  0.00    -0.271 OA
ATOM      6  H19 non d ame     -34.050   7.429  25.559  0.00  0.00     0.163 HD
BRANCH   4   7
ATOM      7  C9  non d ame     -33.044   4.813  25.259  0.00  0.00     0.092 C 
ATOM      8  H11 non d ame     -32.358   4.213  25.857  0.00  0.00     0.088 H 
BRANCH   7   9
ATOM      9  N3  non d ame     -34.230   5.064  26.083  0.00  0.00    -0.346 N 
ATOM     10  C7  non d ame     -34.359   4.432  27.373  0.00  0.00     0.240 C 
ATOM     11  O3  non d ame     -33.518   3.717  27.763  0.00  0.00    -0.271 OA
ATOM     12  H10 non d ame     -34.964   5.677  25.759  0.00  0.00     0.163 HD
BRANCH  10  13
ATOM     13  C6  non d ame     -35.625   4.701  28.244  0.00  0.00     0.086 C 
ATOM     14  H6  non d ame     -35.641   4.108  29.158  0.00  0.00     0.086 H 
BRANCH  13  15
ATOM     15  N2  non d ame     -35.629   6.096  28.652  0.00  0.00    -0.343 N 
ATOM     16  C5  non d ame     -35.390   6.436  30.057  0.00  0.00     0.273 C 
ATOM     17  O2  non d ame     -35.198   5.581  30.850  0.00  0.00    -0.266 OA
ATOM     18  H5  non d ame     -35.797   6.820  27.969  0.00  0.00     0.163 HD
BRANCH  16  19
ATOM     19  C4  non d ame     -35.389   7.907  30.502  0.00  0.00     0.154 A 
ATOM     20  C1  non d ame     -35.205   8.408  31.830  0.00  0.00    -0.017 A 
ATOM     21  C2  non d ame     -35.291   9.813  31.703  0.00  0.00     0.077 A 
ATOM     22  H1  non d ame     -35.037   7.841  32.745  0.00  0.00     0.091 H 
ATOM     23  O1  non d ame     -35.497  10.076  30.446  0.00  0.00    -0.218 OA
ATOM     24  N1  non d ame     -35.559   8.980  29.726  0.00  0.00    -0.123 NA
BRANCH  21  25
ATOM     25  C3  non d ame     -35.164  10.829  32.830  0.00  0.00    -0.029 C 
ATOM     26  H2  non d ame     -35.955  10.663  33.561  0.00  0.00     0.036 H 
ATOM     27  H3  non d ame     -34.194  10.715  33.315  0.00  0.00     0.036 H 
ATOM     28  H4  non d ame     -35.251  11.836  32.424  0.00  0.00     0.036 H 
ENDBRANCH  21  25
ENDBRANCH  16  19
ENDBRANCH  13  15
BRANCH  13  29
ATOM     29  C8  non d ame     -36.865   4.395  27.441  0.00  0.00    -0.049 C 
ATOM     30  H7  non d ame     -37.584   3.870  28.069  0.00  0.00     0.030 H 
ATOM     31  H8  non d ame     -37.305   5.326  27.085  0.00  0.00     0.030 H 
ATOM     32  H9  non d ame     -36.600   3.768  26.589  0.00  0.00     0.030 H 
ENDBRANCH  13  29
ENDBRANCH  10  13
ENDBRANCH   7   9
BRANCH   7  33
ATOM     33  C11 non d ame     -33.468   4.086  23.950  0.00  0.00    -0.033 C 
ATOM     34  H12 non d ame     -32.631   4.148  23.254  0.00  0.00     0.042 H 
BRANCH  33  35
ATOM     35  C12 non d ame     -33.755   2.573  24.206  0.00  0.00    -0.071 C 
ATOM     36  H13 non d ame     -34.107   2.438  25.229  0.00  0.00     0.028 H 
ATOM     37  H14 non d ame     -34.518   2.226  23.510  0.00  0.00     0.028 H 
ATOM     38  H15 non d ame     -32.840   2.000  24.059  0.00  0.00     0.028 H 
ENDBRANCH  33  35
BRANCH  33  39
ATOM     39  C13 non d ame     -34.697   4.792  23.292  0.00  0.00    -0.071 C 
ATOM     40  H16 non d ame     -34.366   5.696  22.780  0.00  0.00     0.028 H 
ATOM     41  H17 non d ame     -35.162   4.116  22.572  0.00  0.00     0.028 H 
ATOM     42  H18 non d ame     -35.421   5.054  24.062  0.00  0.00     0.028 H 
ENDBRANCH  33  39
ENDBRANCH   7  33
ENDBRANCH   4   7
ENDBRANCH   1   3
BRANCH   1  43
ATOM     43  C15 non d ame     -32.856   9.714  25.958  0.00  0.00     0.240 C 
ATOM     44  O5  non d ame     -33.229   9.326  27.018  0.00  0.00    -0.271 OA
ATOM     45  N6  non d ame     -32.724  11.177  25.709  0.00  0.00    -0.355 N 
ATOM     46  H46 non d ame     -32.402  11.518  24.814  0.00  0.00     0.162 HD
BRANCH  45  47
ATOM     47  C20 non d ame     -33.068  12.138  26.780  0.00  0.00     0.013 C 
ATOM     48  H30 non d ame     -33.570  11.587  27.576  0.00  0.00     0.072 H 
BRANCH  47  49
ATOM     49  C21 non d ame     -33.991  13.198  26.223  0.00  0.00    -0.038 C 
ATOM     50  H31 non d ame     -34.038  13.013  25.149  0.00  0.00     0.036 H 
ATOM     51  H32 non d ame     -34.897  13.145  26.825  0.00  0.00     0.036 H 
BRANCH  49  52
ATOM     52  C22 non d ame     -33.435  14.628  26.395  0.00  0.00     0.018 C 
ATOM     53  H33 non d ame     -33.997  15.066  27.218  0.00  0.00     0.048 H 
ATOM     54  H34 non d ame     -32.353  14.516  26.474  0.00  0.00     0.048 H 
BRANCH  52  55
ATOM     55  C23 non d ame     -33.682  15.548  25.168  0.00  0.00     0.259 C 
ATOM     56  O7  non d ame     -34.783  15.719  24.754  0.00  0.00    -0.265 OA
BRANCH  55  57
ATOM     57  O8  non d ame     -32.574  16.176  24.533  0.00  0.00    -0.317 OA
BRANCH  57  58
ATOM     58  C29 non d ame     -31.302  15.741  25.021  0.00  0.00     0.052 C 
ATOM     59  H47 non d ame     -30.719  16.649  25.174  0.00  0.00     0.082 H 
ATOM     60  H48 non d ame     -31.517  15.082  25.862  0.00  0.00     0.082 H 
BRANCH  58  61
ATOM     61  C35 non d ame     -30.621  14.903  23.905  0.00  0.00    -0.034 A 
ATOM     62  C30 non d ame     -29.802  15.526  22.969  0.00  0.00    -0.075 A 
ATOM     63  C31 non d ame     -29.191  14.773  21.966  0.00  0.00    -0.082 A 
ATOM     64  H49 non d ame     -29.639  16.602  23.020  0.00  0.00     0.084 H 
ATOM     65  C32 non d ame     -29.404  13.394  21.900  0.00  0.00    -0.083 A 
ATOM     66  H50 non d ame     -28.548  15.264  21.234  0.00  0.00     0.083 H 
ATOM     67  C33 non d ame     -30.225  12.778  22.835  0.00  0.00    -0.082 A 
ATOM     68  H51 non d ame     -28.930  12.799  21.120  0.00  0.00     0.083 H 
ATOM     69  C34 non d ame     -30.836  13.525  23.840  0.00  0.00    -0.075 A 
ATOM     70  H52 non d ame     -30.392  11.702  22.780  0.00  0.00     0.083 H 
ATOM     71  H53 non d ame     -31.479  13.034  24.571  0.00  0.00     0.084 H 
ENDBRANCH  58  61
ENDBRANCH  57  58
ENDBRANCH  55  57
ENDBRANCH  52  55
ENDBRANCH  49  52
ENDBRANCH  47  49
BRANCH  47  72
ATOM     72  C24 non d ame     -31.796  12.796  27.311  0.00  0.00    -0.039 C 
ATOM     73  H35 non d ame     -31.042  12.632  26.541  0.00  0.00     0.036 H 
ATOM     74  H36 non d ame     -32.087  13.811  27.582  0.00  0.00     0.036 H 
BRANCH  72  75
ATOM     75  C25 non d ame     -31.273  12.083  28.646  0.00  0.00    -0.001 C 
ATOM     76  C26 non d ame     -32.550  11.652  29.588  0.00  0.00    -0.035 C 
ATOM     77  C27 non d ame     -32.346  12.122  30.842  0.00  0.00     0.085 C 
ATOM     78  H38 non d ame     -33.448  12.176  29.262  0.00  0.00     0.036 H 
ATOM     79  H39 non d ame     -32.567  10.570  29.721  0.00  0.00     0.036 H 
ATOM     80  N5  non d ame     -31.209  13.112  30.763  0.00  0.00    -0.049 N 
ATOM     81  H40 non d ame     -33.261  12.652  31.107  0.00  0.00     0.075 H 
ATOM     82  H41 non d ame     -32.026  11.260  31.428  0.00  0.00     0.075 H 
ATOM     83  C28 non d ame     -30.508  12.870  29.328  0.00  0.00     0.193 C 
ATOM     84  H42 non d ame     -31.628  14.030  30.765  0.00  0.00     0.280 HD
ATOM     85  H43 non d ame     -30.554  12.853  31.488  0.00  0.00     0.280 HD
ATOM     86  H44 non d ame     -29.561  12.337  29.257  0.00  0.00     0.129 H 
ATOM     87  H37 non d ame     -30.527  11.315  28.440  0.00  0.00     0.046 H 
BRANCH  83  88
ATOM     88  O6  non d ame     -30.294  14.119  28.668  0.00  0.00    -0.369 OA
ATOM     89  H45 non d ame     -31.006  14.723  28.887  0.00  0.00     0.212 HD
ENDBRANCH  83  88
ENDBRANCH  72  75
ENDBRANCH  47  72
ENDBRANCH  45  47
ENDBRANCH   1  43
BRANCH   1  90
ATOM     90  C16 non d ame     -33.032   9.181  23.508  0.00  0.00    -0.035 C 
ATOM     91  H21 non d ame     -33.851   8.508  23.260  0.00  0.00     0.037 H 
ATOM     92  H22 non d ame     -33.224  10.245  23.647  0.00  0.00     0.037 H 
BRANCH  90  93
ATOM     93  C17 non d ame     -32.001   9.068  22.339  0.00  0.00    -0.059 C 
ATOM     94  H23 non d ame     -32.157   9.918  21.677  0.00  0.00     0.038 H 
BRANCH  93  95
ATOM     95  C18 non d ame     -30.525   9.123  22.848  0.00  0.00    -0.073 C 
ATOM     96  H24 non d ame     -30.296  10.133  23.189  0.00  0.00     0.028 H 
ATOM     97  H25 non d ame     -30.400   8.425  23.676  0.00  0.00     0.028 H 
ATOM     98  H26 non d ame     -29.850   8.851  22.038  0.00  0.00     0.028 H 
ENDBRANCH  93  95
BRANCH  93  99
ATOM     99  C19 non d ame     -32.245   7.800  21.517  0.00  0.00    -0.073 C 
ATOM    100  H27 non d ame     -33.203   7.879  21.001  0.00  0.00     0.028 H 
ATOM    101  H28 non d ame     -31.448   7.684  20.782  0.00  0.00     0.028 H 
ATOM    102  H29 non d ame     -32.258   6.934  22.178  0.00  0.00     0.028 H 
ENDBRANCH  93  99
ENDBRANCH  90  93
ENDBRANCH   1  90
TORSDOF 26
ENDMDL
MODEL 16
REMARK VINA RESULT:      -6.8      2.848      8.093
REMARK  26 active torsions:
REMARK  status: ('A' for Active; 'I' for Inactive)
REMARK    1  A    between atoms: C2_2  and  C3_3 
REMARK    2  A    between atoms: C4_6  and  C5_7 
REMARK       I    between atoms: C5_7  and  N2_9 
REMARK    3  A    between atoms: N2_9  and  C6_10 
REMARK    4  A    between atoms: C6_10  and  C7_11 
REMARK    5  A    between atoms: C6_10  and  C8_13 
REMARK       I    between atoms: C7_11  and  N3_14 
REMARK    6  A    between atoms: N3_14  and  C9_15 
REMARK    7  A    between atoms: C9_15  and  C10_16 
REMARK    8  A    between atoms: C9_15  and  C11_18 
REMARK       I    between atoms: C10_16  and  N4_21 
REMARK    9  A    between atoms: C11_18  and  C12_19 
REMARK   10  A    between atoms: C11_18  and  C13_20 
REMARK   11  A    between atoms: N4_21  and  C14_22 
REMARK   12  A    between atoms: C14_22  and  C15_23 
REMARK   13  A    between atoms: C14_22  and  C16_25 
REMARK       I    between atoms: C15_23  and  N6_40 
REMARK   14  A    between atoms: C16_25  and  C17_26 
REMARK   15  A    between atoms: C17_26  and  C18_27 
REMARK   16  A    between atoms: C17_26  and  C19_28 
REMARK   17  A    between atoms: C20_29  and  C21_30 
REMARK   18  A    between atoms: C20_29  and  C24_33 
REMARK   19  A    between atoms: C20_29  and  N6_40 
REMARK   20  A    between atoms: C21_30  and  C22_31 
REMARK   21  A    between atoms: C22_31  and  C23_32 
REMARK   22  A    between atoms: C23_32  and  O8_43 
REMARK   23  A    between atoms: C24_33  and  C25_34 
REMARK   24  A    between atoms: C28_38  and  O6_39 
REMARK   25  A    between atoms: C29_42  and  O8_43 
REMARK   26  A    between atoms: C29_42  and  C35_49 
ROOT
ATOM      1  C14 non d ame     -35.254   8.926  27.031  0.00  0.00     0.089 C 
ATOM      2  H20 non d ame     -35.359   8.308  27.923  0.00  0.00     0.087 H 
ENDROOT
BRANCH   1   3
ATOM      3  N4  non d ame     -34.224   9.917  27.305  0.00  0.00    -0.346 N 
ATOM      4  C10 non d ame     -33.430   9.857  28.586  0.00  0.00     0.241 C 
ATOM      5  O4  non d ame     -33.641   9.005  29.384  0.00  0.00    -0.271 OA
ATOM      6  H19 non d ame     -34.061  10.636  26.614  0.00  0.00     0.163 HD
BRANCH   4   7
ATOM      7  C9  non d ame     -32.364  10.887  28.850  0.00  0.00     0.092 C 
ATOM      8  H11 non d ame     -31.433  10.569  28.379  0.00  0.00     0.088 H 
BRANCH   7   9
ATOM      9  N3  non d ame     -32.749  12.159  28.233  0.00  0.00    -0.346 N 
ATOM     10  C7  non d ame     -31.953  12.713  27.165  0.00  0.00     0.240 C 
ATOM     11  O3  non d ame     -30.997  12.149  26.792  0.00  0.00    -0.271 OA
ATOM     12  H10 non d ame     -33.569  12.659  28.545  0.00  0.00     0.163 HD
BRANCH  10  13
ATOM     13  C6  non d ame     -32.366  14.070  26.514  0.00  0.00     0.086 C 
ATOM     14  H6  non d ame     -31.972  14.933  27.051  0.00  0.00     0.086 H 
BRANCH  13  15
ATOM     15  N2  non d ame     -31.820  14.132  25.169  0.00  0.00    -0.343 N 
ATOM     16  C5  non d ame     -31.158  15.358  24.715  0.00  0.00     0.273 C 
ATOM     17  O2  non d ame     -31.073  16.288  25.438  0.00  0.00    -0.266 OA
ATOM     18  H5  non d ame     -31.901  13.333  24.556  0.00  0.00     0.163 HD
BRANCH  16  19
ATOM     19  C4  non d ame     -30.575  15.437  23.295  0.00  0.00     0.154 A 
ATOM     20  C1  non d ame     -31.302  15.526  22.066  0.00  0.00    -0.017 A 
ATOM     21  C2  non d ame     -30.310  15.572  21.060  0.00  0.00     0.077 A 
ATOM     22  H1  non d ame     -32.382  15.552  21.924  0.00  0.00     0.091 H 
ATOM     23  O1  non d ame     -29.154  15.518  21.654  0.00  0.00    -0.218 OA
ATOM     24  N1  non d ame     -29.283  15.438  22.958  0.00  0.00    -0.123 NA
BRANCH  21  25
ATOM     25  C3  non d ame     -30.552  15.669  19.560  0.00  0.00    -0.029 C 
ATOM     26  H2  non d ame     -31.329  16.408  19.363  0.00  0.00     0.036 H 
ATOM     27  H3  non d ame     -29.630  15.971  19.062  0.00  0.00     0.036 H 
ATOM     28  H4  non d ame     -30.870  14.699  19.179  0.00  0.00     0.036 H 
ENDBRANCH  21  25
ENDBRANCH  16  19
ENDBRANCH  13  15
BRANCH  13  29
ATOM     29  C8  non d ame     -33.870  14.170  26.467  0.00  0.00    -0.049 C 
ATOM     30  H7  non d ame     -34.248  13.567  25.642  0.00  0.00     0.030 H 
ATOM     31  H8  non d ame     -34.288  13.805  27.405  0.00  0.00     0.030 H 
ATOM     32  H9  non d ame     -34.160  15.210  26.320  0.00  0.00     0.030 H 
ENDBRANCH  13  29
ENDBRANCH  10  13
ENDBRANCH   7   9
BRANCH   7  33
ATOM     33  C11 non d ame     -32.203  11.086  30.385  0.00  0.00    -0.033 C 
ATOM     34  H12 non d ame     -32.140  10.096  30.839  0.00  0.00     0.042 H 
BRANCH  33  35
ATOM     35  C12 non d ame     -30.882  11.844  30.726  0.00  0.00    -0.071 C 
ATOM     36  H13 non d ame     -30.832  12.022  31.800  0.00  0.00     0.028 H 
ATOM     37  H14 non d ame     -30.028  11.240  30.419  0.00  0.00     0.028 H 
ATOM     38  H15 non d ame     -30.863  12.797  30.199  0.00  0.00     0.028 H 
ENDBRANCH  33  35
BRANCH  33  39
ATOM     39  C13 non d ame     -33.446  11.815  30.988  0.00  0.00    -0.071 C 
ATOM     40  H16 non d ame     -33.778  12.596  30.303  0.00  0.00     0.028 H 
ATOM     41  H17 non d ame     -34.252  11.096  31.138  0.00  0.00     0.028 H 
ATOM     42  H18 non d ame     -33.177  12.262  31.945  0.00  0.00     0.028 H 
ENDBRANCH  33  39
ENDBRANCH   7  33
ENDBRANCH   4   7
ENDBRANCH   1   3
BRANCH   1  43
ATOM     43  C15 non d ame     -34.826   8.097  25.788  0.00  0.00     0.240 C 
ATOM     44  O5  non d ame     -35.597   7.344  25.285  0.00  0.00    -0.271 OA
ATOM     45  N6  non d ame     -33.458   8.247  25.216  0.00  0.00    -0.355 N 
ATOM     46  H46 non d ame     -32.796   8.887  25.632  0.00  0.00     0.162 HD
BRANCH  45  47
ATOM     47  C20 non d ame     -33.066   7.452  24.032  0.00  0.00     0.013 C 
ATOM     48  H30 non d ame     -33.954   6.937  23.665  0.00  0.00     0.072 H 
BRANCH  47  49
ATOM     49  C21 non d ame     -32.013   6.444  24.432  0.00  0.00    -0.038 C 
ATOM     50  H31 non d ame     -32.107   5.621  23.721  0.00  0.00     0.036 H 
ATOM     51  H32 non d ame     -31.080   7.003  24.498  0.00  0.00     0.036 H 
BRANCH  49  52
ATOM     52  C22 non d ame     -32.261   5.841  25.831  0.00  0.00     0.018 C 
ATOM     53  H33 non d ame     -31.305   5.427  26.149  0.00  0.00     0.048 H 
ATOM     54  H34 non d ame     -32.733   6.634  26.414  0.00  0.00     0.048 H 
BRANCH  52  55
ATOM     55  C23 non d ame     -33.264   4.654  25.834  0.00  0.00     0.259 C 
ATOM     56  O7  non d ame     -33.330   3.918  24.903  0.00  0.00    -0.265 OA
BRANCH  55  57
ATOM     57  O8  non d ame     -34.117   4.465  26.956  0.00  0.00    -0.317 OA
BRANCH  57  58
ATOM     58  C29 non d ame     -33.799   5.297  28.076  0.00  0.00     0.052 C 
ATOM     59  H47 non d ame     -33.064   4.741  28.657  0.00  0.00     0.082 H 
ATOM     60  H48 non d ame     -33.541   6.269  27.656  0.00  0.00     0.082 H 
BRANCH  58  61
ATOM     61  C35 non d ame     -35.083   5.458  28.934  0.00  0.00    -0.034 A 
ATOM     62  C30 non d ame     -34.981   5.754  30.290  0.00  0.00    -0.075 A 
ATOM     63  C31 non d ame     -36.135   5.898  31.060  0.00  0.00    -0.082 A 
ATOM     64  H49 non d ame     -34.000   5.871  30.748  0.00  0.00     0.084 H 
ATOM     65  C32 non d ame     -37.392   5.743  30.471  0.00  0.00    -0.083 A 
ATOM     66  H50 non d ame     -36.052   6.131  32.122  0.00  0.00     0.083 H 
ATOM     67  C33 non d ame     -37.488   5.446  29.118  0.00  0.00    -0.082 A 
ATOM     68  H51 non d ame     -38.298   5.856  31.066  0.00  0.00     0.083 H 
ATOM     69  C34 non d ame     -36.338   5.302  28.344  0.00  0.00    -0.075 A 
ATOM     70  H52 non d ame     -38.470   5.324  28.661  0.00  0.00     0.083 H 
ATOM     71  H53 non d ame     -36.422   5.070  27.282  0.00  0.00     0.084 H 
ENDBRANCH  58  61
ENDBRANCH  57  58
ENDBRANCH  55  57
ENDBRANCH  52  55
ENDBRANCH  49  52
ENDBRANCH  47  49
BRANCH  47  72
ATOM     72  C24 non d ame     -32.504   8.375  22.952  0.00  0.00    -0.039 C 
ATOM     73  H35 non d ame     -32.336   7.736  22.084  0.00  0.00     0.036 H 
ATOM     74  H36 non d ame     -33.206   9.206  22.888  0.00  0.00     0.036 H 
BRANCH  72  75
ATOM     75  C25 non d ame     -31.085   8.986  23.374  0.00  0.00    -0.001 C 
ATOM     76  C26 non d ame     -31.244  10.586  23.717  0.00  0.00    -0.035 C 
ATOM     77  C27 non d ame     -30.314  11.277  23.015  0.00  0.00     0.085 C 
ATOM     78  H38 non d ame     -32.190  10.960  23.325  0.00  0.00     0.036 H 
ATOM     79  H39 non d ame     -30.971  10.775  24.755  0.00  0.00     0.036 H 
ATOM     80  N5  non d ame     -29.753  10.334  21.978  0.00  0.00    -0.049 N 
ATOM     81  H40 non d ame     -30.863  12.074  22.511  0.00  0.00     0.075 H 
ATOM     82  H41 non d ame     -29.531  11.523  23.732  0.00  0.00     0.075 H 
ATOM     83  C28 non d ame     -30.218   8.854  22.425  0.00  0.00     0.193 C 
ATOM     84  H42 non d ame     -30.207  10.564  21.106  0.00  0.00     0.280 HD
ATOM     85  H43 non d ame     -28.747  10.392  22.054  0.00  0.00     0.280 HD
ATOM     86  H44 non d ame     -29.513   8.170  22.894  0.00  0.00     0.129 H 
ATOM     87  H37 non d ame     -30.573   8.369  24.112  0.00  0.00     0.046 H 
BRANCH  83  88
ATOM     88  O6  non d ame     -30.750   8.145  21.304  0.00  0.00    -0.369 OA
ATOM     89  H45 non d ame     -31.269   7.399  21.614  0.00  0.00     0.212 HD
ENDBRANCH  83  88
ENDBRANCH  72  75
ENDBRANCH  47  72
ENDBRANCH  45  47
ENDBRANCH   1  43
BRANCH   1  90
ATOM     90  C16 non d ame     -36.565   9.641  26.743  0.00  0.00    -0.035 C 
ATOM     91  H21 non d ame     -36.292  10.520  26.160  0.00  0.00     0.037 H 
ATOM     92  H22 non d ame     -37.218   8.883  26.312  0.00  0.00     0.037 H 
BRANCH  90  93
ATOM     93  C17 non d ame     -37.286  10.169  28.024  0.00  0.00    -0.059 C 
ATOM     94  H23 non d ame     -36.773  11.076  28.342  0.00  0.00     0.038 H 
BRANCH  93  95
ATOM     95  C18 non d ame     -38.779  10.536  27.750  0.00  0.00    -0.073 C 
ATOM     96  H24 non d ame     -39.012  11.489  28.224  0.00  0.00     0.028 H 
ATOM     97  H25 non d ame     -38.942  10.617  26.675  0.00  0.00     0.028 H 
ATOM     98  H26 non d ame     -39.425   9.759  28.158  0.00  0.00     0.028 H 
ENDBRANCH  93  95
BRANCH  93  99
ATOM     99  C19 non d ame     -37.175   9.159  29.169  0.00  0.00    -0.073 C 
ATOM    100  H27 non d ame     -37.390   9.657  30.116  0.00  0.00     0.028 H 
ATOM    101  H28 non d ame     -37.891   8.352  29.014  0.00  0.00     0.028 H 
ATOM    102  H29 non d ame     -36.166   8.748  29.195  0.00  0.00     0.028 H 
ENDBRANCH  93  99
ENDBRANCH  90  93
ENDBRANCH   1  90
TORSDOF 26
ENDMDL
MODEL 17
REMARK VINA RESULT:      -6.8      1.985      5.608
REMARK  26 active torsions:
REMARK  status: ('A' for Active; 'I' for Inactive)
REMARK    1  A    between atoms: C2_2  and  C3_3 
REMARK    2  A    between atoms: C4_6  and  C5_7 
REMARK       I    between atoms: C5_7  and  N2_9 
REMARK    3  A    between atoms: N2_9  and  C6_10 
REMARK    4  A    between atoms: C6_10  and  C7_11 
REMARK    5  A    between atoms: C6_10  and  C8_13 
REMARK       I    between atoms: C7_11  and  N3_14 
REMARK    6  A    between atoms: N3_14  and  C9_15 
REMARK    7  A    between atoms: C9_15  and  C10_16 
REMARK    8  A    between atoms: C9_15  and  C11_18 
REMARK       I    between atoms: C10_16  and  N4_21 
REMARK    9  A    between atoms: C11_18  and  C12_19 
REMARK   10  A    between atoms: C11_18  and  C13_20 
REMARK   11  A    between atoms: N4_21  and  C14_22 
REMARK   12  A    between atoms: C14_22  and  C15_23 
REMARK   13  A    between atoms: C14_22  and  C16_25 
REMARK       I    between atoms: C15_23  and  N6_40 
REMARK   14  A    between atoms: C16_25  and  C17_26 
REMARK   15  A    between atoms: C17_26  and  C18_27 
REMARK   16  A    between atoms: C17_26  and  C19_28 
REMARK   17  A    between atoms: C20_29  and  C21_30 
REMARK   18  A    between atoms: C20_29  and  C24_33 
REMARK   19  A    between atoms: C20_29  and  N6_40 
REMARK   20  A    between atoms: C21_30  and  C22_31 
REMARK   21  A    between atoms: C22_31  and  C23_32 
REMARK   22  A    between atoms: C23_32  and  O8_43 
REMARK   23  A    between atoms: C24_33  and  C25_34 
REMARK   24  A    between atoms: C28_38  and  O6_39 
REMARK   25  A    between atoms: C29_42  and  O8_43 
REMARK   26  A    between atoms: C29_42  and  C35_49 
ROOT
ATOM      1  C14 non d ame     -32.424   9.833  24.704  0.00  0.00     0.089 C 
ATOM      2  H20 non d ame     -32.201   9.026  25.404  0.00  0.00     0.087 H 
ENDROOT
BRANCH   1   3
ATOM      3  N4  non d ame     -33.817  10.207  24.899  0.00  0.00    -0.346 N 
ATOM      4  C10 non d ame     -34.469  10.043  26.249  0.00  0.00     0.241 C 
ATOM      5  O4  non d ame     -33.854   9.604  27.163  0.00  0.00    -0.271 OA
ATOM      6  H19 non d ame     -34.324  10.576  24.107  0.00  0.00     0.163 HD
BRANCH   4   7
ATOM      7  C9  non d ame     -35.910  10.441  26.433  0.00  0.00     0.092 C 
ATOM      8  H11 non d ame     -36.095  10.641  27.489  0.00  0.00     0.088 H 
BRANCH   7   9
ATOM      9  N3  non d ame     -36.171  11.685  25.703  0.00  0.00    -0.346 N 
ATOM     10  C7  non d ame     -37.018  12.697  26.285  0.00  0.00     0.240 C 
ATOM     11  O3  non d ame     -37.499  12.526  27.338  0.00  0.00    -0.271 OA
ATOM     12  H10 non d ame     -35.765  11.846  24.793  0.00  0.00     0.163 HD
BRANCH  10  13
ATOM     13  C6  non d ame     -37.294  14.019  25.502  0.00  0.00     0.086 C 
ATOM     14  H6  non d ame     -38.262  14.458  25.745  0.00  0.00     0.086 H 
BRANCH  13  15
ATOM     15  N2  non d ame     -36.288  15.002  25.867  0.00  0.00    -0.343 N 
ATOM     16  C5  non d ame     -36.620  16.046  26.840  0.00  0.00     0.273 C 
ATOM     17  O2  non d ame     -37.699  16.087  27.321  0.00  0.00    -0.266 OA
ATOM     18  H5  non d ame     -35.370  14.961  25.449  0.00  0.00     0.163 HD
BRANCH  16  19
ATOM     19  C4  non d ame     -35.566  17.091  27.237  0.00  0.00     0.154 A 
ATOM     20  C1  non d ame     -34.522  17.622  26.414  0.00  0.00    -0.017 A 
ATOM     21  C2  non d ame     -33.836  18.538  27.243  0.00  0.00     0.077 A 
ATOM     22  H1  non d ame     -34.296  17.379  25.376  0.00  0.00     0.091 H 
ATOM     23  O1  non d ame     -34.427  18.528  28.403  0.00  0.00    -0.218 OA
ATOM     24  N1  non d ame     -35.438  17.691  28.423  0.00  0.00    -0.123 NA
BRANCH  21  25
ATOM     25  C3  non d ame     -32.630  19.381  26.850  0.00  0.00    -0.029 C 
ATOM     26  H2  non d ame     -31.863  19.299  27.620  0.00  0.00     0.036 H 
ATOM     27  H3  non d ame     -32.231  19.023  25.901  0.00  0.00     0.036 H 
ATOM     28  H4  non d ame     -32.933  20.422  26.748  0.00  0.00     0.036 H 
ENDBRANCH  21  25
ENDBRANCH  16  19
ENDBRANCH  13  15
BRANCH  13  29
ATOM     29  C8  non d ame     -37.238  13.749  24.019  0.00  0.00    -0.049 C 
ATOM     30  H7  non d ame     -36.420  14.316  23.577  0.00  0.00     0.030 H 
ATOM     31  H8  non d ame     -37.075  12.684  23.850  0.00  0.00     0.030 H 
ATOM     32  H9  non d ame     -38.180  14.050  23.559  0.00  0.00     0.030 H 
ENDBRANCH  13  29
ENDBRANCH  10  13
ENDBRANCH   7   9
BRANCH   7  33
ATOM     33  C11 non d ame     -36.833   9.316  25.881  0.00  0.00    -0.033 C 
ATOM     34  H12 non d ame     -37.757   9.336  26.460  0.00  0.00     0.042 H 
BRANCH  33  35
ATOM     35  C12 non d ame     -37.209   9.568  24.388  0.00  0.00    -0.071 C 
ATOM     36  H13 non d ame     -37.661  10.555  24.289  0.00  0.00     0.028 H 
ATOM     37  H14 non d ame     -36.311   9.517  23.774  0.00  0.00     0.028 H 
ATOM     38  H15 non d ame     -37.919   8.810  24.059  0.00  0.00     0.028 H 
ENDBRANCH  33  35
BRANCH  33  39
ATOM     39  C13 non d ame     -36.176   7.911  26.070  0.00  0.00    -0.071 C 
ATOM     40  H16 non d ame     -35.414   7.967  26.847  0.00  0.00     0.028 H 
ATOM     41  H17 non d ame     -36.939   7.188  26.361  0.00  0.00     0.028 H 
ATOM     42  H18 non d ame     -35.717   7.595  25.133  0.00  0.00     0.028 H 
ENDBRANCH  33  39
ENDBRANCH   7  33
ENDBRANCH   4   7
ENDBRANCH   1   3
BRANCH   1  43
ATOM     43  C15 non d ame     -31.536  11.085  24.948  0.00  0.00     0.240 C 
ATOM     44  O5  non d ame     -30.851  11.145  25.917  0.00  0.00    -0.271 OA
ATOM     45  N6  non d ame     -31.531  12.208  23.968  0.00  0.00    -0.355 N 
ATOM     46  H46 non d ame     -32.105  12.166  23.137  0.00  0.00     0.162 HD
BRANCH  45  47
ATOM     47  C20 non d ame     -30.679  13.392  24.212  0.00  0.00     0.013 C 
ATOM     48  H30 non d ame     -29.992  13.149  25.023  0.00  0.00     0.072 H 
BRANCH  47  49
ATOM     49  C21 non d ame     -31.552  14.562  24.607  0.00  0.00    -0.038 C 
ATOM     50  H31 non d ame     -30.976  15.456  24.361  0.00  0.00     0.036 H 
ATOM     51  H32 non d ame     -32.515  14.386  24.130  0.00  0.00     0.036 H 
BRANCH  49  52
ATOM     52  C22 non d ame     -31.821  14.623  26.126  0.00  0.00     0.018 C 
ATOM     53  H33 non d ame     -31.070  13.982  26.585  0.00  0.00     0.048 H 
ATOM     54  H34 non d ame     -31.858  15.685  26.376  0.00  0.00     0.048 H 
BRANCH  52  55
ATOM     55  C23 non d ame     -33.198  14.037  26.542  0.00  0.00     0.259 C 
ATOM     56  O7  non d ame     -33.775  13.284  25.826  0.00  0.00    -0.265 OA
BRANCH  55  57
ATOM     57  O8  non d ame     -33.772  14.420  27.787  0.00  0.00    -0.317 OA
BRANCH  57  58
ATOM     58  C29 non d ame     -32.819  14.885  28.747  0.00  0.00     0.052 C 
ATOM     59  H47 non d ame     -31.992  15.296  28.168  0.00  0.00     0.082 H 
ATOM     60  H48 non d ame     -33.377  15.525  29.431  0.00  0.00     0.082 H 
BRANCH  58  61
ATOM     61  C35 non d ame     -32.299  13.656  29.541  0.00  0.00    -0.034 A 
ATOM     62  C30 non d ame     -30.961  13.586  29.917  0.00  0.00    -0.075 A 
ATOM     63  C31 non d ame     -30.494  12.481  30.629  0.00  0.00    -0.082 A 
ATOM     64  H49 non d ame     -30.279  14.394  29.654  0.00  0.00     0.084 H 
ATOM     65  C32 non d ame     -31.370  11.444  30.962  0.00  0.00    -0.083 A 
ATOM     66  H50 non d ame     -29.446  12.429  30.924  0.00  0.00     0.083 H 
ATOM     67  C33 non d ame     -32.703  11.518  30.581  0.00  0.00    -0.082 A 
ATOM     68  H51 non d ame     -31.013  10.578  31.520  0.00  0.00     0.083 H 
ATOM     69  C34 non d ame     -33.174  12.620  29.872  0.00  0.00    -0.075 A 
ATOM     70  H52 non d ame     -33.383  10.706  30.841  0.00  0.00     0.083 H 
ATOM     71  H53 non d ame     -34.223  12.671  29.577  0.00  0.00     0.084 H 
ENDBRANCH  58  61
ENDBRANCH  57  58
ENDBRANCH  55  57
ENDBRANCH  52  55
ENDBRANCH  49  52
ENDBRANCH  47  49
BRANCH  47  72
ATOM     72  C24 non d ame     -29.902  13.741  22.944  0.00  0.00    -0.039 C 
ATOM     73  H35 non d ame     -28.878  13.923  23.274  0.00  0.00     0.036 H 
ATOM     74  H36 non d ame     -30.113  12.933  22.244  0.00  0.00     0.036 H 
BRANCH  72  75
ATOM     75  C25 non d ame     -30.433  15.096  22.277  0.00  0.00    -0.001 C 
ATOM     76  C26 non d ame     -31.087  14.775  20.803  0.00  0.00    -0.035 C 
ATOM     77  C27 non d ame     -30.534  15.608  19.889  0.00  0.00     0.085 C 
ATOM     78  H38 non d ame     -30.780  13.786  20.465  0.00  0.00     0.036 H 
ATOM     79  H39 non d ame     -32.141  15.052  20.794  0.00  0.00     0.036 H 
ATOM     80  N5  non d ame     -29.329  16.241  20.542  0.00  0.00    -0.049 N 
ATOM     81  H40 non d ame     -30.199  14.965  19.074  0.00  0.00     0.075 H 
ATOM     82  H41 non d ame     -31.283  16.378  19.705  0.00  0.00     0.075 H 
ATOM     83  C28 non d ame     -29.474  15.948  22.123  0.00  0.00     0.193 C 
ATOM     84  H42 non d ame     -28.520  15.745  20.195  0.00  0.00     0.280 HD
ATOM     85  H43 non d ame     -29.412  17.237  20.390  0.00  0.00     0.280 HD
ATOM     86  H44 non d ame     -29.796  16.734  22.804  0.00  0.00     0.129 H 
ATOM     87  H37 non d ame     -31.032  15.690  22.967  0.00  0.00     0.046 H 
BRANCH  83  88
ATOM     88  O6  non d ame     -28.236  15.468  22.651  0.00  0.00    -0.369 OA
ATOM     89  H45 non d ame     -27.821  14.883  22.013  0.00  0.00     0.212 HD
ENDBRANCH  83  88
ENDBRANCH  72  75
ENDBRANCH  47  72
ENDBRANCH  45  47
ENDBRANCH   1  43
BRANCH   1  90
ATOM     90  C16 non d ame     -32.237   9.342  23.277  0.00  0.00    -0.035 C 
ATOM     91  H21 non d ame     -33.034   8.617  23.114  0.00  0.00     0.037 H 
ATOM     92  H22 non d ame     -32.189  10.244  22.667  0.00  0.00     0.037 H 
BRANCH  90  93
ATOM     93  C17 non d ame     -30.894   8.580  23.047  0.00  0.00    -0.059 C 
ATOM     94  H23 non d ame     -30.380   8.518  24.006  0.00  0.00     0.038 H 
BRANCH  93  95
ATOM     95  C18 non d ame     -31.124   7.123  22.534  0.00  0.00    -0.073 C 
ATOM     96  H24 non d ame     -30.193   6.561  22.605  0.00  0.00     0.028 H 
ATOM     97  H25 non d ame     -31.886   6.638  23.145  0.00  0.00     0.028 H 
ATOM     98  H26 non d ame     -31.454   7.150  21.496  0.00  0.00     0.028 H 
ENDBRANCH  93  95
BRANCH  93  99
ATOM     99  C19 non d ame     -29.982   9.356  22.092  0.00  0.00    -0.073 C 
ATOM    100  H27 non d ame     -30.026   8.904  21.101  0.00  0.00     0.028 H 
ATOM    101  H28 non d ame     -30.315  10.392  22.033  0.00  0.00     0.028 H 
ATOM    102  H29 non d ame     -28.958   9.324  22.462  0.00  0.00     0.028 H 
ENDBRANCH  93  99
ENDBRANCH  90  93
ENDBRANCH   1  90
TORSDOF 26
ENDMDL
MODEL 18
REMARK VINA RESULT:      -6.8      2.866      9.261
REMARK  26 active torsions:
REMARK  status: ('A' for Active; 'I' for Inactive)
REMARK    1  A    between atoms: C2_2  and  C3_3 
REMARK    2  A    between atoms: C4_6  and  C5_7 
REMARK       I    between atoms: C5_7  and  N2_9 
REMARK    3  A    between atoms: N2_9  and  C6_10 
REMARK    4  A    between atoms: C6_10  and  C7_11 
REMARK    5  A    between atoms: C6_10  and  C8_13 
REMARK       I    between atoms: C7_11  and  N3_14 
REMARK    6  A    between atoms: N3_14  and  C9_15 
REMARK    7  A    between atoms: C9_15  and  C10_16 
REMARK    8  A    between atoms: C9_15  and  C11_18 
REMARK       I    between atoms: C10_16  and  N4_21 
REMARK    9  A    between atoms: C11_18  and  C12_19 
REMARK   10  A    between atoms: C11_18  and  C13_20 
REMARK   11  A    between atoms: N4_21  and  C14_22 
REMARK   12  A    between atoms: C14_22  and  C15_23 
REMARK   13  A    between atoms: C14_22  and  C16_25 
REMARK       I    between atoms: C15_23  and  N6_40 
REMARK   14  A    between atoms: C16_25  and  C17_26 
REMARK   15  A    between atoms: C17_26  and  C18_27 
REMARK   16  A    between atoms: C17_26  and  C19_28 
REMARK   17  A    between atoms: C20_29  and  C21_30 
REMARK   18  A    between atoms: C20_29  and  C24_33 
REMARK   19  A    between atoms: C20_29  and  N6_40 
REMARK   20  A    between atoms: C21_30  and  C22_31 
REMARK   21  A    between atoms: C22_31  and  C23_32 
REMARK   22  A    between atoms: C23_32  and  O8_43 
REMARK   23  A    between atoms: C24_33  and  C25_34 
REMARK   24  A    between atoms: C28_38  and  O6_39 
REMARK   25  A    between atoms: C29_42  and  O8_43 
REMARK   26  A    between atoms: C29_42  and  C35_49 
ROOT
ATOM      1  C14 non d ame     -33.665   6.912  27.721  0.00  0.00     0.089 C 
ATOM      2  H20 non d ame     -33.167   6.519  28.607  0.00  0.00     0.087 H 
ENDROOT
BRANCH   1   3
ATOM      3  N4  non d ame     -34.082   8.274  28.021  0.00  0.00    -0.346 N 
ATOM      4  C10 non d ame     -34.678   8.610  29.365  0.00  0.00     0.241 C 
ATOM      5  O4  non d ame     -34.816   7.766  30.188  0.00  0.00    -0.271 OA
ATOM      6  H19 non d ame     -33.957   8.977  27.307  0.00  0.00     0.163 HD
BRANCH   4   7
ATOM      7  C9  non d ame     -35.097  10.026  29.661  0.00  0.00     0.092 C 
ATOM      8  H11 non d ame     -35.257  10.136  30.734  0.00  0.00     0.088 H 
BRANCH   7   9
ATOM      9  N3  non d ame     -34.018  10.944  29.287  0.00  0.00    -0.346 N 
ATOM     10  C7  non d ame     -32.975  11.254  30.233  0.00  0.00     0.240 C 
ATOM     11  O3  non d ame     -32.990  10.774  31.301  0.00  0.00    -0.271 OA
ATOM     12  H10 non d ame     -33.993  11.366  28.370  0.00  0.00     0.163 HD
BRANCH  10  13
ATOM     13  C6  non d ame     -31.830  12.234  29.831  0.00  0.00     0.086 C 
ATOM     14  H6  non d ame     -31.282  11.903  28.948  0.00  0.00     0.086 H 
BRANCH  13  15
ATOM     15  N2  non d ame     -32.410  13.525  29.499  0.00  0.00    -0.343 N 
ATOM     16  C5  non d ame     -31.661  14.457  28.653  0.00  0.00     0.273 C 
ATOM     17  O2  non d ame     -30.592  14.160  28.247  0.00  0.00    -0.266 OA
ATOM     18  H5  non d ame     -33.323  13.772  29.855  0.00  0.00     0.163 HD
BRANCH  16  19
ATOM     19  C4  non d ame     -32.263  15.824  28.294  0.00  0.00     0.154 A 
ATOM     20  C1  non d ame     -32.646  16.287  26.996  0.00  0.00    -0.017 A 
ATOM     21  C2  non d ame     -33.138  17.595  27.205  0.00  0.00     0.077 A 
ATOM     22  H1  non d ame     -32.576  15.757  26.046  0.00  0.00     0.091 H 
ATOM     23  O1  non d ame     -33.047  17.843  28.479  0.00  0.00    -0.218 OA
ATOM     24  N1  non d ame     -32.539  16.825  29.135  0.00  0.00    -0.123 NA
BRANCH  21  25
ATOM     25  C3  non d ame     -33.676  18.537  26.137  0.00  0.00    -0.029 C 
ATOM     26  H2  non d ame     -34.471  19.151  26.562  0.00  0.00     0.036 H 
ATOM     27  H3  non d ame     -32.872  19.181  25.782  0.00  0.00     0.036 H 
ATOM     28  H4  non d ame     -34.072  17.956  25.305  0.00  0.00     0.036 H 
ENDBRANCH  21  25
ENDBRANCH  16  19
ENDBRANCH  13  15
BRANCH  13  29
ATOM     29  C8  non d ame     -30.863  12.382  30.979  0.00  0.00    -0.049 C 
ATOM     30  H7  non d ame     -30.833  13.423  31.296  0.00  0.00     0.030 H 
ATOM     31  H8  non d ame     -31.191  11.758  31.811  0.00  0.00     0.030 H 
ATOM     32  H9  non d ame     -29.869  12.069  30.659  0.00  0.00     0.030 H 
ENDBRANCH  13  29
ENDBRANCH  10  13
ENDBRANCH   7   9
BRANCH   7  33
ATOM     33  C11 non d ame     -36.375  10.369  28.841  0.00  0.00    -0.033 C 
ATOM     34  H12 non d ame     -36.942  11.106  29.411  0.00  0.00     0.042 H 
BRANCH  33  35
ATOM     35  C12 non d ame     -36.014  11.015  27.467  0.00  0.00    -0.071 C 
ATOM     36  H13 non d ame     -35.045  11.509  27.541  0.00  0.00     0.028 H 
ATOM     37  H14 non d ame     -35.968  10.240  26.703  0.00  0.00     0.028 H 
ATOM     38  H15 non d ame     -36.775  11.747  27.198  0.00  0.00     0.028 H 
ENDBRANCH  33  35
BRANCH  33  39
ATOM     39  C13 non d ame     -37.276   9.107  28.654  0.00  0.00    -0.071 C 
ATOM     40  H16 non d ame     -37.889   8.962  29.544  0.00  0.00     0.028 H 
ATOM     41  H17 non d ame     -37.922   9.246  27.787  0.00  0.00     0.028 H 
ATOM     42  H18 non d ame     -36.647   8.231  28.500  0.00  0.00     0.028 H 
ENDBRANCH  33  39
ENDBRANCH   7  33
ENDBRANCH   4   7
ENDBRANCH   1   3
BRANCH   1  43
ATOM     43  C15 non d ame     -32.725   6.943  26.483  0.00  0.00     0.240 C 
ATOM     44  O5  non d ame     -31.789   6.213  26.434  0.00  0.00    -0.271 OA
ATOM     45  N6  non d ame     -32.996   7.877  25.353  0.00  0.00    -0.355 N 
ATOM     46  H46 non d ame     -33.792   8.499  25.382  0.00  0.00     0.162 HD
BRANCH  45  47
ATOM     47  C20 non d ame     -32.093   7.894  24.181  0.00  0.00     0.013 C 
ATOM     48  H30 non d ame     -31.156   7.420  24.474  0.00  0.00     0.072 H 
BRANCH  47  49
ATOM     49  C21 non d ame     -31.841   9.325  23.765  0.00  0.00    -0.038 C 
ATOM     50  H31 non d ame     -30.793   9.520  23.998  0.00  0.00     0.036 H 
ATOM     51  H32 non d ame     -32.193   9.398  22.736  0.00  0.00     0.036 H 
BRANCH  49  52
ATOM     52  C22 non d ame     -32.666  10.342  24.583  0.00  0.00     0.018 C 
ATOM     53  H33 non d ame     -32.822  11.194  23.923  0.00  0.00     0.048 H 
ATOM     54  H34 non d ame     -33.523   9.786  24.966  0.00  0.00     0.048 H 
BRANCH  52  55
ATOM     55  C23 non d ame     -31.922  10.894  25.830  0.00  0.00     0.259 C 
ATOM     56  O7  non d ame     -32.065  10.384  26.893  0.00  0.00    -0.265 OA
BRANCH  55  57
ATOM     57  O8  non d ame     -31.076  12.029  25.690  0.00  0.00    -0.317 OA
BRANCH  57  58
ATOM     58  C29 non d ame     -31.723  13.171  25.120  0.00  0.00     0.052 C 
ATOM     59  H47 non d ame     -32.658  12.800  24.700  0.00  0.00     0.082 H 
ATOM     60  H48 non d ame     -31.740  13.924  25.907  0.00  0.00     0.082 H 
BRANCH  58  61
ATOM     61  C35 non d ame     -30.836  13.694  23.958  0.00  0.00    -0.034 A 
ATOM     62  C30 non d ame     -30.277  12.799  23.052  0.00  0.00    -0.075 A 
ATOM     63  C31 non d ame     -29.480  13.269  22.009  0.00  0.00    -0.082 A 
ATOM     64  H49 non d ame     -30.461  11.730  23.159  0.00  0.00     0.084 H 
ATOM     65  C32 non d ame     -29.242  14.640  21.875  0.00  0.00    -0.083 A 
ATOM     66  H50 non d ame     -29.043  12.565  21.299  0.00  0.00     0.083 H 
ATOM     67  C33 non d ame     -29.800  15.528  22.784  0.00  0.00    -0.082 A 
ATOM     68  H51 non d ame     -28.621  15.015  21.062  0.00  0.00     0.083 H 
ATOM     69  C34 non d ame     -30.599  15.063  23.827  0.00  0.00    -0.075 A 
ATOM     70  H52 non d ame     -29.611  16.597  22.678  0.00  0.00     0.083 H 
ATOM     71  H53 non d ame     -31.034  15.768  24.536  0.00  0.00     0.084 H 
ENDBRANCH  58  61
ENDBRANCH  57  58
ENDBRANCH  55  57
ENDBRANCH  52  55
ENDBRANCH  49  52
ENDBRANCH  47  49
BRANCH  47  72
ATOM     72  C24 non d ame     -32.734   7.130  23.024  0.00  0.00    -0.039 C 
ATOM     73  H35 non d ame     -33.797   7.078  23.265  0.00  0.00     0.036 H 
ATOM     74  H36 non d ame     -32.405   7.644  22.121  0.00  0.00     0.036 H 
BRANCH  72  75
ATOM     75  C25 non d ame     -32.194   5.625  22.936  0.00  0.00    -0.001 C 
ATOM     76  C26 non d ame     -31.740   5.284  21.393  0.00  0.00    -0.035 C 
ATOM     77  C27 non d ame     -32.338   4.132  21.006  0.00  0.00     0.085 C 
ATOM     78  H38 non d ame     -32.150   6.026  20.709  0.00  0.00     0.036 H 
ATOM     79  H39 non d ame     -30.677   5.042  21.361  0.00  0.00     0.036 H 
ATOM     80  N5  non d ame     -33.413   3.830  22.022  0.00  0.00    -0.049 N 
ATOM     81  H40 non d ame     -32.808   4.355  20.048  0.00  0.00     0.075 H 
ATOM     82  H41 non d ame     -31.565   3.366  21.070  0.00  0.00     0.075 H 
ATOM     83  C28 non d ame     -33.104   4.780  23.291  0.00  0.00     0.193 C 
ATOM     84  H42 non d ame     -34.288   4.120  21.609  0.00  0.00     0.280 HD
ATOM     85  H43 non d ame     -33.281   2.868  22.301  0.00  0.00     0.280 HD
ATOM     86  H44 non d ame     -32.653   4.370  24.193  0.00  0.00     0.129 H 
ATOM     87  H37 non d ame     -31.480   5.395  23.726  0.00  0.00     0.046 H 
BRANCH  83  88
ATOM     88  O6  non d ame     -34.302   5.428  23.724  0.00  0.00    -0.369 OA
ATOM     89  H45 non d ame     -34.480   5.194  24.638  0.00  0.00     0.212 HD
ENDBRANCH  83  88
ENDBRANCH  72  75
ENDBRANCH  47  72
ENDBRANCH  45  47
ENDBRANCH   1  43
BRANCH   1  90
ATOM     90  C16 non d ame     -34.896   6.076  27.407  0.00  0.00    -0.035 C 
ATOM     91  H21 non d ame     -35.724   6.585  27.899  0.00  0.00     0.037 H 
ATOM     92  H22 non d ame     -34.896   5.957  26.324  0.00  0.00     0.037 H 
BRANCH  90  93
ATOM     93  C17 non d ame     -34.845   4.636  28.010  0.00  0.00    -0.059 C 
ATOM     94  H23 non d ame     -35.810   4.437  28.475  0.00  0.00     0.038 H 
BRANCH  93  95
ATOM     95  C18 non d ame     -34.609   3.547  26.915  0.00  0.00    -0.073 C 
ATOM     96  H24 non d ame     -35.435   3.562  26.204  0.00  0.00     0.028 H 
ATOM     97  H25 non d ame     -33.676   3.755  26.391  0.00  0.00     0.028 H 
ATOM     98  H26 non d ame     -34.551   2.566  27.384  0.00  0.00     0.028 H 
ENDBRANCH  93  95
BRANCH  93  99
ATOM     99  C19 non d ame     -33.783   4.541  29.109  0.00  0.00    -0.073 C 
ATOM    100  H27 non d ame     -32.831   4.239  28.670  0.00  0.00     0.028 H 
ATOM    101  H28 non d ame     -33.669   5.513  29.589  0.00  0.00     0.028 H 
ATOM    102  H29 non d ame     -34.092   3.804  29.850  0.00  0.00     0.028 H 
ENDBRANCH  93  99
ENDBRANCH  90  93
ENDBRANCH   1  90
TORSDOF 26
ENDMDL
MODEL 19
REMARK VINA RESULT:      -6.8      3.273      9.286
REMARK  26 active torsions:
REMARK  status: ('A' for Active; 'I' for Inactive)
REMARK    1  A    between atoms: C2_2  and  C3_3 
REMARK    2  A    between atoms: C4_6  and  C5_7 
REMARK       I    between atoms: C5_7  and  N2_9 
REMARK    3  A    between atoms: N2_9  and  C6_10 
REMARK    4  A    between atoms: C6_10  and  C7_11 
REMARK    5  A    between atoms: C6_10  and  C8_13 
REMARK       I    between atoms: C7_11  and  N3_14 
REMARK    6  A    between atoms: N3_14  and  C9_15 
REMARK    7  A    between atoms: C9_15  and  C10_16 
REMARK    8  A    between atoms: C9_15  and  C11_18 
REMARK       I    between atoms: C10_16  and  N4_21 
REMARK    9  A    between atoms: C11_18  and  C12_19 
REMARK   10  A    between atoms: C11_18  and  C13_20 
REMARK   11  A    between atoms: N4_21  and  C14_22 
REMARK   12  A    between atoms: C14_22  and  C15_23 
REMARK   13  A    between atoms: C14_22  and  C16_25 
REMARK       I    between atoms: C15_23  and  N6_40 
REMARK   14  A    between atoms: C16_25  and  C17_26 
REMARK   15  A    between atoms: C17_26  and  C18_27 
REMARK   16  A    between atoms: C17_26  and  C19_28 
REMARK   17  A    between atoms: C20_29  and  C21_30 
REMARK   18  A    between atoms: C20_29  and  C24_33 
REMARK   19  A    between atoms: C20_29  and  N6_40 
REMARK   20  A    between atoms: C21_30  and  C22_31 
REMARK   21  A    between atoms: C22_31  and  C23_32 
REMARK   22  A    between atoms: C23_32  and  O8_43 
REMARK   23  A    between atoms: C24_33  and  C25_34 
REMARK   24  A    between atoms: C28_38  and  O6_39 
REMARK   25  A    between atoms: C29_42  and  O8_43 
REMARK   26  A    between atoms: C29_42  and  C35_49 
ROOT
ATOM      1  C14 non d ame     -34.892   8.444  31.198  0.00  0.00     0.089 C 
ATOM      2  H20 non d ame     -34.451   8.467  32.196  0.00  0.00     0.087 H 
ENDROOT
BRANCH   1   3
ATOM      3  N4  non d ame     -34.010   9.191  30.313  0.00  0.00    -0.346 N 
ATOM      4  C10 non d ame     -33.478  10.540  30.729  0.00  0.00     0.241 C 
ATOM      5  O4  non d ame     -33.777  11.005  31.778  0.00  0.00    -0.271 OA
ATOM      6  H19 non d ame     -33.770   8.778  29.423  0.00  0.00     0.163 HD
BRANCH   4   7
ATOM      7  C9  non d ame     -32.563  11.296  29.802  0.00  0.00     0.092 C 
ATOM      8  H11 non d ame     -31.882  10.594  29.319  0.00  0.00     0.088 H 
BRANCH   7   9
ATOM      9  N3  non d ame     -33.353  11.932  28.745  0.00  0.00    -0.346 N 
ATOM     10  C7  non d ame     -33.523  11.270  27.475  0.00  0.00     0.240 C 
ATOM     11  O3  non d ame     -33.030  10.225  27.287  0.00  0.00    -0.271 OA
ATOM     12  H10 non d ame     -33.783  12.834  28.892  0.00  0.00     0.163 HD
BRANCH  10  13
ATOM     13  C6  non d ame     -34.363  11.954  26.352  0.00  0.00     0.086 C 
ATOM     14  H6  non d ame     -35.059  12.698  26.739  0.00  0.00     0.086 H 
BRANCH  13  15
ATOM     15  N2  non d ame     -33.463  12.656  25.452  0.00  0.00    -0.343 N 
ATOM     16  C5  non d ame     -33.011  14.007  25.794  0.00  0.00     0.273 C 
ATOM     17  O2  non d ame     -33.379  14.520  26.792  0.00  0.00    -0.266 OA
ATOM     18  H5  non d ame     -33.156  12.212  24.599  0.00  0.00     0.163 HD
BRANCH  16  19
ATOM     19  C4  non d ame     -32.058  14.761  24.853  0.00  0.00     0.154 A 
ATOM     20  C1  non d ame     -30.927  14.227  24.158  0.00  0.00    -0.017 A 
ATOM     21  C2  non d ame     -30.395  15.318  23.435  0.00  0.00     0.077 A 
ATOM     22  H1  non d ame     -30.548  13.205  24.177  0.00  0.00     0.091 H 
ATOM     23  O1  non d ame     -31.144  16.352  23.689  0.00  0.00    -0.218 OA
ATOM     24  N1  non d ame     -32.120  16.051  24.514  0.00  0.00    -0.123 NA
BRANCH  21  25
ATOM     25  C3  non d ame     -29.175  15.287  22.525  0.00  0.00    -0.029 C 
ATOM     26  H2  non d ame     -28.284  15.077  23.118  0.00  0.00     0.036 H 
ATOM     27  H3  non d ame     -29.301  14.509  21.773  0.00  0.00     0.036 H 
ATOM     28  H4  non d ame     -29.064  16.253  22.034  0.00  0.00     0.036 H 
ENDBRANCH  21  25
ENDBRANCH  16  19
ENDBRANCH  13  15
BRANCH  13  29
ATOM     29  C8  non d ame     -35.139  10.907  25.593  0.00  0.00    -0.049 C 
ATOM     30  H7  non d ame     -34.616  10.667  24.668  0.00  0.00     0.030 H 
ATOM     31  H8  non d ame     -35.229  10.009  26.203  0.00  0.00     0.030 H 
ATOM     32  H9  non d ame     -36.133  11.289  25.360  0.00  0.00     0.030 H 
ENDBRANCH  13  29
ENDBRANCH  10  13
ENDBRANCH   7   9
BRANCH   7  33
ATOM     33  C11 non d ame     -31.800  12.389  30.606  0.00  0.00    -0.033 C 
ATOM     34  H12 non d ame     -32.368  12.584  31.517  0.00  0.00     0.042 H 
BRANCH  33  35
ATOM     35  C12 non d ame     -30.382  11.897  31.034  0.00  0.00    -0.071 C 
ATOM     36  H13 non d ame     -30.433  11.470  32.036  0.00  0.00     0.028 H 
ATOM     37  H14 non d ame     -30.035  11.138  30.333  0.00  0.00     0.028 H 
ATOM     38  H15 non d ame     -29.689  12.738  31.033  0.00  0.00     0.028 H 
ENDBRANCH  33  35
BRANCH  33  39
ATOM     39  C13 non d ame     -31.716  13.723  29.796  0.00  0.00    -0.071 C 
ATOM     40  H16 non d ame     -32.626  14.302  29.954  0.00  0.00     0.028 H 
ATOM     41  H17 non d ame     -30.854  14.300  30.133  0.00  0.00     0.028 H 
ATOM     42  H18 non d ame     -31.607  13.497  28.736  0.00  0.00     0.028 H 
ENDBRANCH  33  39
ENDBRANCH   7  33
ENDBRANCH   4   7
ENDBRANCH   1   3
BRANCH   1  43
ATOM     43  C15 non d ame     -35.032   6.995  30.651  0.00  0.00     0.240 C 
ATOM     44  O5  non d ame     -35.641   6.185  31.272  0.00  0.00    -0.271 OA
ATOM     45  N6  non d ame     -34.415   6.620  29.347  0.00  0.00    -0.355 N 
ATOM     46  H46 non d ame     -33.900   7.301  28.808  0.00  0.00     0.162 HD
BRANCH  45  47
ATOM     47  C20 non d ame     -34.559   5.238  28.838  0.00  0.00     0.013 C 
ATOM     48  H30 non d ame     -34.900   4.611  29.663  0.00  0.00     0.072 H 
BRANCH  47  49
ATOM     49  C21 non d ame     -33.219   4.748  28.336  0.00  0.00    -0.038 C 
ATOM     50  H31 non d ame     -32.476   5.403  28.794  0.00  0.00     0.036 H 
ATOM     51  H32 non d ame     -33.202   3.678  28.541  0.00  0.00     0.036 H 
BRANCH  49  52
ATOM     52  C22 non d ame     -33.057   4.905  26.809  0.00  0.00     0.018 C 
ATOM     53  H33 non d ame     -32.501   4.028  26.480  0.00  0.00     0.048 H 
ATOM     54  H34 non d ame     -34.061   5.089  26.424  0.00  0.00     0.048 H 
BRANCH  52  55
ATOM     55  C23 non d ame     -32.206   6.135  26.392  0.00  0.00     0.259 C 
ATOM     56  O7  non d ame     -32.061   7.050  27.137  0.00  0.00    -0.265 OA
BRANCH  55  57
ATOM     57  O8  non d ame     -31.610   6.165  25.100  0.00  0.00    -0.317 OA
BRANCH  57  58
ATOM     58  C29 non d ame     -32.412   6.808  24.105  0.00  0.00     0.052 C 
ATOM     59  H47 non d ame     -32.474   6.104  23.276  0.00  0.00     0.082 H 
ATOM     60  H48 non d ame     -33.318   7.129  24.618  0.00  0.00     0.082 H 
BRANCH  58  61
ATOM     61  C35 non d ame     -31.651   8.071  23.619  0.00  0.00    -0.034 A 
ATOM     62  C30 non d ame     -31.967   9.320  24.145  0.00  0.00    -0.075 A 
ATOM     63  C31 non d ame     -31.284  10.455  23.708  0.00  0.00    -0.082 A 
ATOM     64  H49 non d ame     -32.750   9.410  24.898  0.00  0.00     0.084 H 
ATOM     65  C32 non d ame     -30.283  10.337  22.741  0.00  0.00    -0.083 A 
ATOM     66  H50 non d ame     -31.533  11.432  24.123  0.00  0.00     0.083 H 
ATOM     67  C33 non d ame     -29.973   9.089  22.217  0.00  0.00    -0.082 A 
ATOM     68  H51 non d ame     -29.743  11.218  22.395  0.00  0.00     0.083 H 
ATOM     69  C34 non d ame     -30.652   7.952  22.652  0.00  0.00    -0.075 A 
ATOM     70  H52 non d ame     -29.193   9.000  21.460  0.00  0.00     0.083 H 
ATOM     71  H53 non d ame     -30.402   6.976  22.236  0.00  0.00     0.084 H 
ENDBRANCH  58  61
ENDBRANCH  57  58
ENDBRANCH  55  57
ENDBRANCH  52  55
ENDBRANCH  49  52
ENDBRANCH  47  49
BRANCH  47  72
ATOM     72  C24 non d ame     -35.573   5.210  27.697  0.00  0.00    -0.039 C 
ATOM     73  H35 non d ame     -35.622   6.236  27.328  0.00  0.00     0.036 H 
ATOM     74  H36 non d ame     -35.243   4.409  27.036  0.00  0.00     0.036 H 
BRANCH  72  75
ATOM     75  C25 non d ame     -37.038   4.823  28.214  0.00  0.00    -0.001 C 
ATOM     76  C26 non d ame     -37.481   3.364  27.598  0.00  0.00    -0.035 C 
ATOM     77  C27 non d ame     -38.703   3.486  27.025  0.00  0.00     0.085 C 
ATOM     78  H38 non d ame     -36.833   3.098  26.764  0.00  0.00     0.036 H 
ATOM     79  H39 non d ame     -37.650   2.653  28.407  0.00  0.00     0.036 H 
ATOM     80  N5  non d ame     -38.988   4.963  26.903  0.00  0.00    -0.049 N 
ATOM     81  H40 non d ame     -38.599   3.060  26.026  0.00  0.00     0.075 H 
ATOM     82  H41 non d ame     -39.403   3.046  27.735  0.00  0.00     0.075 H 
ATOM     83  C28 non d ame     -37.911   5.703  27.851  0.00  0.00     0.193 C 
ATOM     84  H42 non d ame     -38.799   5.214  25.944  0.00  0.00     0.280 HD
ATOM     85  H43 non d ame     -39.910   5.108  27.290  0.00  0.00     0.280 HD
ATOM     86  H44 non d ame     -38.206   6.101  28.820  0.00  0.00     0.129 H 
ATOM     87  H37 non d ame     -37.146   4.961  29.290  0.00  0.00     0.046 H 
BRANCH  83  88
ATOM     88  O6  non d ame     -37.313   6.799  27.154  0.00  0.00    -0.369 OA
ATOM     89  H45 non d ame     -36.711   6.463  26.487  0.00  0.00     0.212 HD
ENDBRANCH  83  88
ENDBRANCH  72  75
ENDBRANCH  47  72
ENDBRANCH  45  47
ENDBRANCH   1  43
BRANCH   1  90
ATOM     90  C16 non d ame     -36.255   9.116  31.223  0.00  0.00    -0.035 C 
ATOM     91  H21 non d ame     -36.829   8.579  31.978  0.00  0.00     0.037 H 
ATOM     92  H22 non d ame     -36.051  10.179  31.349  0.00  0.00     0.037 H 
BRANCH  90  93
ATOM     93  C17 non d ame     -37.048   8.974  29.885  0.00  0.00    -0.059 C 
ATOM     94  H23 non d ame     -36.538   8.230  29.274  0.00  0.00     0.038 H 
BRANCH  93  95
ATOM     95  C18 non d ame     -38.511   8.478  30.117  0.00  0.00    -0.073 C 
ATOM     96  H24 non d ame     -38.767   7.734  29.363  0.00  0.00     0.028 H 
ATOM     97  H25 non d ame     -38.591   8.031  31.108  0.00  0.00     0.028 H 
ATOM     98  H26 non d ame     -39.197   9.321  30.043  0.00  0.00     0.028 H 
ENDBRANCH  93  95
BRANCH  93  99
ATOM     99  C19 non d ame     -37.037  10.289  29.101  0.00  0.00    -0.073 C 
ATOM    100  H27 non d ame     -38.062  10.581  28.865  0.00  0.00     0.028 H 
ATOM    101  H28 non d ame     -36.569  11.068  29.703  0.00  0.00     0.028 H 
ATOM    102  H29 non d ame     -36.475  10.157  28.177  0.00  0.00     0.028 H 
ENDBRANCH  93  99
ENDBRANCH  90  93
ENDBRANCH   1  90
TORSDOF 26
ENDMDL
MODEL 20
REMARK VINA RESULT:      -6.8      2.501      7.849
REMARK  26 active torsions:
REMARK  status: ('A' for Active; 'I' for Inactive)
REMARK    1  A    between atoms: C2_2  and  C3_3 
REMARK    2  A    between atoms: C4_6  and  C5_7 
REMARK       I    between atoms: C5_7  and  N2_9 
REMARK    3  A    between atoms: N2_9  and  C6_10 
REMARK    4  A    between atoms: C6_10  and  C7_11 
REMARK    5  A    between atoms: C6_10  and  C8_13 
REMARK       I    between atoms: C7_11  and  N3_14 
REMARK    6  A    between atoms: N3_14  and  C9_15 
REMARK    7  A    between atoms: C9_15  and  C10_16 
REMARK    8  A    between atoms: C9_15  and  C11_18 
REMARK       I    between atoms: C10_16  and  N4_21 
REMARK    9  A    between atoms: C11_18  and  C12_19 
REMARK   10  A    between atoms: C11_18  and  C13_20 
REMARK   11  A    between atoms: N4_21  and  C14_22 
REMARK   12  A    between atoms: C14_22  and  C15_23 
REMARK   13  A    between atoms: C14_22  and  C16_25 
REMARK       I    between atoms: C15_23  and  N6_40 
REMARK   14  A    between atoms: C16_25  and  C17_26 
REMARK   15  A    between atoms: C17_26  and  C18_27 
REMARK   16  A    between atoms: C17_26  and  C19_28 
REMARK   17  A    between atoms: C20_29  and  C21_30 
REMARK   18  A    between atoms: C20_29  and  C24_33 
REMARK   19  A    between atoms: C20_29  and  N6_40 
REMARK   20  A    between atoms: C21_30  and  C22_31 
REMARK   21  A    between atoms: C22_31  and  C23_32 
REMARK   22  A    between atoms: C23_32  and  O8_43 
REMARK   23  A    between atoms: C24_33  and  C25_34 
REMARK   24  A    between atoms: C28_38  and  O6_39 
REMARK   25  A    between atoms: C29_42  and  O8_43 
REMARK   26  A    between atoms: C29_42  and  C35_49 
ROOT
ATOM      1  C14 non d ame     -33.690   9.558  24.572  0.00  0.00     0.089 C 
ATOM      2  H20 non d ame     -34.050   9.432  23.551  0.00  0.00     0.087 H 
ENDROOT
BRANCH   1   3
ATOM      3  N4  non d ame     -34.322  10.750  25.116  0.00  0.00    -0.346 N 
ATOM      4  C10 non d ame     -35.665  11.203  24.599  0.00  0.00     0.241 C 
ATOM      5  O4  non d ame     -36.215  10.594  23.742  0.00  0.00    -0.271 OA
ATOM      6  H19 non d ame     -33.837  11.255  25.843  0.00  0.00     0.163 HD
BRANCH   4   7
ATOM      7  C9  non d ame     -36.307  12.436  25.178  0.00  0.00     0.092 C 
ATOM      8  H11 non d ame     -36.486  12.282  26.242  0.00  0.00     0.088 H 
BRANCH   7   9
ATOM      9  N3  non d ame     -35.389  13.571  25.053  0.00  0.00    -0.346 N 
ATOM     10  C7  non d ame     -34.694  14.067  26.215  0.00  0.00     0.240 C 
ATOM     11  O3  non d ame     -34.863  13.566  27.259  0.00  0.00    -0.271 OA
ATOM     12  H10 non d ame     -35.234  14.015  24.160  0.00  0.00     0.163 HD
BRANCH  10  13
ATOM     13  C6  non d ame     -33.719  15.278  26.077  0.00  0.00     0.086 C 
ATOM     14  H6  non d ame     -32.950  15.291  26.848  0.00  0.00     0.086 H 
BRANCH  13  15
ATOM     15  N2  non d ame     -33.028  15.183  24.802  0.00  0.00    -0.343 N 
ATOM     16  C5  non d ame     -31.688  15.759  24.663  0.00  0.00     0.273 C 
ATOM     17  O2  non d ame     -31.178  16.299  25.581  0.00  0.00    -0.266 OA
ATOM     18  H5  non d ame     -33.474  14.722  24.021  0.00  0.00     0.163 HD
BRANCH  16  19
ATOM     19  C4  non d ame     -30.945  15.664  23.321  0.00  0.00     0.154 A 
ATOM     20  C1  non d ame     -31.511  15.762  22.010  0.00  0.00    -0.017 A 
ATOM     21  C2  non d ame     -30.417  15.610  21.130  0.00  0.00     0.077 A 
ATOM     22  H1  non d ame     -32.555  15.918  21.739  0.00  0.00     0.091 H 
ATOM     23  O1  non d ame     -29.352  15.447  21.860  0.00  0.00    -0.218 OA
ATOM     24  N1  non d ame     -29.636  15.474  23.141  0.00  0.00    -0.123 NA
BRANCH  21  25
ATOM     25  C3  non d ame     -30.474  15.634  19.608  0.00  0.00    -0.029 C 
ATOM     26  H2  non d ame     -31.392  15.154  19.271  0.00  0.00     0.036 H 
ATOM     27  H3  non d ame     -30.456  16.667  19.260  0.00  0.00     0.036 H 
ATOM     28  H4  non d ame     -29.615  15.100  19.204  0.00  0.00     0.036 H 
ENDBRANCH  21  25
ENDBRANCH  16  19
ENDBRANCH  13  15
BRANCH  13  29
ATOM     29  C8  non d ame     -34.501  16.566  26.145  0.00  0.00    -0.049 C 
ATOM     30  H7  non d ame     -34.619  16.974  25.142  0.00  0.00     0.030 H 
ATOM     31  H8  non d ame     -35.483  16.372  26.576  0.00  0.00     0.030 H 
ATOM     32  H9  non d ame     -33.966  17.283  26.768  0.00  0.00     0.030 H 
ENDBRANCH  13  29
ENDBRANCH  10  13
ENDBRANCH   7   9
BRANCH   7  33
ATOM     33  C11 non d ame     -37.622  12.748  24.404  0.00  0.00    -0.033 C 
ATOM     34  H12 non d ame     -37.884  11.858  23.831  0.00  0.00     0.042 H 
BRANCH  33  35
ATOM     35  C12 non d ame     -38.802  13.041  25.382  0.00  0.00    -0.071 C 
ATOM     36  H13 non d ame     -39.315  12.110  25.623  0.00  0.00     0.028 H 
ATOM     37  H14 non d ame     -38.414  13.489  26.296  0.00  0.00     0.028 H 
ATOM     38  H15 non d ame     -39.503  13.729  24.909  0.00  0.00     0.028 H 
ENDBRANCH  33  35
BRANCH  33  39
ATOM     39  C13 non d ame     -37.413  13.925  23.399  0.00  0.00    -0.071 C 
ATOM     40  H16 non d ame     -36.717  14.648  23.824  0.00  0.00     0.028 H 
ATOM     41  H17 non d ame     -37.008  13.537  22.463  0.00  0.00     0.028 H 
ATOM     42  H18 non d ame     -38.369  14.411  23.205  0.00  0.00     0.028 H 
ENDBRANCH  33  39
ENDBRANCH   7  33
ENDBRANCH   4   7
ENDBRANCH   1   3
BRANCH   1  43
ATOM     43  C15 non d ame     -34.054   8.347  25.477  0.00  0.00     0.240 C 
ATOM     44  O5  non d ame     -33.692   7.255  25.178  0.00  0.00    -0.271 OA
ATOM     45  N6  non d ame     -34.846   8.548  26.723  0.00  0.00    -0.355 N 
ATOM     46  H46 non d ame     -35.155   9.472  26.991  0.00  0.00     0.162 HD
BRANCH  45  47
ATOM     47  C20 non d ame     -35.183   7.387  27.575  0.00  0.00     0.013 C 
ATOM     48  H30 non d ame     -35.487   6.569  26.922  0.00  0.00     0.072 H 
BRANCH  47  49
ATOM     49  C21 non d ame     -36.319   7.759  28.501  0.00  0.00    -0.038 C 
ATOM     50  H31 non d ame     -36.764   8.659  28.074  0.00  0.00     0.036 H 
ATOM     51  H32 non d ame     -36.918   6.855  28.610  0.00  0.00     0.036 H 
BRANCH  49  52
ATOM     52  C22 non d ame     -35.839   8.139  29.917  0.00  0.00     0.018 C 
ATOM     53  H33 non d ame     -36.642   7.843  30.591  0.00  0.00     0.048 H 
ATOM     54  H34 non d ame     -34.848   7.695  30.022  0.00  0.00     0.048 H 
BRANCH  52  55
ATOM     55  C23 non d ame     -35.647   9.667  30.125  0.00  0.00     0.259 C 
ATOM     56  O7  non d ame     -36.311  10.257  30.914  0.00  0.00    -0.265 OA
BRANCH  55  57
ATOM     57  O8  non d ame     -34.676  10.359  29.348  0.00  0.00    -0.317 OA
BRANCH  57  58
ATOM     58  C29 non d ame     -33.376  10.401  29.946  0.00  0.00     0.052 C 
ATOM     59  H47 non d ame     -33.537  10.714  30.978  0.00  0.00     0.082 H 
ATOM     60  H48 non d ame     -32.922   9.434  29.734  0.00  0.00     0.082 H 
BRANCH  58  61
ATOM     61  C35 non d ame     -32.552  11.500  29.223  0.00  0.00    -0.034 A 
ATOM     62  C30 non d ame     -32.204  11.342  27.885  0.00  0.00    -0.075 A 
ATOM     63  C31 non d ame     -31.463  12.329  27.236  0.00  0.00    -0.082 A 
ATOM     64  H49 non d ame     -32.510  10.445  27.346  0.00  0.00     0.084 H 
ATOM     65  C32 non d ame     -31.068  13.475  27.930  0.00  0.00    -0.083 A 
ATOM     66  H50 non d ame     -31.192  12.202  26.187  0.00  0.00     0.083 H 
ATOM     67  C33 non d ame     -31.415  13.627  29.265  0.00  0.00    -0.082 A 
ATOM     68  H51 non d ame     -30.490  14.252  27.429  0.00  0.00     0.083 H 
ATOM     69  C34 non d ame     -32.157  12.645  29.918  0.00  0.00    -0.075 A 
ATOM     70  H52 non d ame     -31.105  14.522  29.805  0.00  0.00     0.083 H 
ATOM     71  H53 non d ame     -32.427  12.772  30.966  0.00  0.00     0.084 H 
ENDBRANCH  58  61
ENDBRANCH  57  58
ENDBRANCH  55  57
ENDBRANCH  52  55
ENDBRANCH  49  52
ENDBRANCH  47  49
BRANCH  47  72
ATOM     72  C24 non d ame     -33.964   6.980  28.401  0.00  0.00    -0.039 C 
ATOM     73  H35 non d ame     -33.116   7.479  27.930  0.00  0.00     0.036 H 
ATOM     74  H36 non d ame     -34.225   7.209  29.434  0.00  0.00     0.036 H 
BRANCH  72  75
ATOM     75  C25 non d ame     -33.692   5.404  28.320  0.00  0.00    -0.001 C 
ATOM     76  C26 non d ame     -33.867   4.729  29.809  0.00  0.00    -0.035 C 
ATOM     77  C27 non d ame     -32.768   3.988  30.084  0.00  0.00     0.085 C 
ATOM     78  H38 non d ame     -33.851   5.504  30.575  0.00  0.00     0.036 H 
ATOM     79  H39 non d ame     -34.672   3.994  29.794  0.00  0.00     0.036 H 
ATOM     80  N5  non d ame     -31.719   4.359  29.064  0.00  0.00    -0.049 N 
ATOM     81  H40 non d ame     -32.435   4.315  31.070  0.00  0.00     0.075 H 
ATOM     82  H41 non d ame     -33.067   2.952  29.925  0.00  0.00     0.075 H 
ATOM     83  C28 non d ame     -32.497   5.157  27.896  0.00  0.00     0.193 C 
ATOM     84  H42 non d ame     -31.085   4.997  29.522  0.00  0.00     0.280 HD
ATOM     85  H43 non d ame     -31.371   3.490  28.683  0.00  0.00     0.280 HD
ATOM     86  H44 non d ame     -32.721   4.671  26.947  0.00  0.00     0.129 H 
ATOM     87  H37 non d ame     -34.229   4.934  27.496  0.00  0.00     0.046 H 
BRANCH  83  88
ATOM     88  O6  non d ame     -31.788   6.350  27.557  0.00  0.00    -0.369 OA
ATOM     89  H45 non d ame     -31.714   6.910  28.333  0.00  0.00     0.212 HD
ENDBRANCH  83  88
ENDBRANCH  72  75
ENDBRANCH  47  72
ENDBRANCH  45  47
ENDBRANCH   1  43
BRANCH   1  90
ATOM     90  C16 non d ame     -32.182   9.756  24.565  0.00  0.00    -0.035 C 
ATOM     91  H21 non d ame     -32.015  10.720  25.044  0.00  0.00     0.037 H 
ATOM     92  H22 non d ame     -31.770   8.849  25.008  0.00  0.00     0.037 H 
BRANCH  90  93
ATOM     93  C17 non d ame     -31.571   9.865  23.132  0.00  0.00    -0.059 C 
ATOM     94  H23 non d ame     -32.065  10.693  22.624  0.00  0.00     0.038 H 
BRANCH  93  95
ATOM     95  C18 non d ame     -30.039  10.172  23.167  0.00  0.00    -0.073 C 
ATOM     96  H24 non d ame     -29.712  10.272  24.201  0.00  0.00     0.028 H 
ATOM     97  H25 non d ame     -29.495   9.355  22.692  0.00  0.00     0.028 H 
ATOM     98  H26 non d ame     -29.842  11.099  22.631  0.00  0.00     0.028 H 
ENDBRANCH  93  95
BRANCH  93  99
ATOM     99  C19 non d ame     -31.854   8.599  22.319  0.00  0.00    -0.073 C 
ATOM    100  H27 non d ame     -31.250   7.776  22.705  0.00  0.00     0.028 H 
ATOM    101  H28 non d ame     -32.910   8.342  22.402  0.00  0.00     0.028 H 
ATOM    102  H29 non d ame     -31.604   8.775  21.273  0.00  0.00     0.028 H 
ENDBRANCH  93  99
ENDBRANCH  90  93
ENDBRANCH   1  90
TORSDOF 26
ENDMDL
