MODEL 1
REMARK VINA RESULT:      -7.2      0.000      0.000
REMARK  26 active torsions:
REMARK  status: ('A' for Active; 'I' for Inactive)
REMARK    1  A    between atoms: C2_2  and  C3_3 
REMARK    2  A    between atoms: C4_6  and  C5_7 
REMARK       I    between atoms: C5_7  and  N2_9 
REMARK    3  A    between atoms: N2_9  and  C6_10 
REMARK    4  A    between atoms: C6_10  and  C7_11 
REMARK    5  A    between atoms: C6_10  and  C8_13 
REMARK       I    between atoms: C7_11  and  N3_14 
REMARK    6  A    between atoms: N3_14  and  C9_15 
REMARK    7  A    between atoms: C9_15  and  C10_16 
REMARK    8  A    between atoms: C9_15  and  C11_18 
REMARK       I    between atoms: C10_16  and  N4_21 
REMARK    9  A    between atoms: C11_18  and  C12_19 
REMARK   10  A    between atoms: C11_18  and  C13_20 
REMARK   11  A    between atoms: N4_21  and  C14_22 
REMARK   12  A    between atoms: C14_22  and  C15_23 
REMARK   13  A    between atoms: C14_22  and  C16_25 
REMARK       I    between atoms: C15_23  and  N6_40 
REMARK   14  A    between atoms: C16_25  and  C17_26 
REMARK   15  A    between atoms: C17_26  and  C18_27 
REMARK   16  A    between atoms: C17_26  and  C19_28 
REMARK   17  A    between atoms: C20_29  and  C21_30 
REMARK   18  A    between atoms: C20_29  and  C24_33 
REMARK   19  A    between atoms: C20_29  and  N6_40 
REMARK   20  A    between atoms: C21_30  and  C22_31 
REMARK   21  A    between atoms: C22_31  and  C23_32 
REMARK   22  A    between atoms: C23_32  and  O8_43 
REMARK   23  A    between atoms: C24_33  and  C25_34 
REMARK   24  A    between atoms: C28_38  and  O6_39 
REMARK   25  A    between atoms: C29_42  and  O8_43 
REMARK   26  A    between atoms: C29_42  and  C35_49 
ROOT
ATOM      1  C14 non d ame     -30.839  14.634  23.602  0.00  0.00     0.089 C 
ATOM      2  H20 non d ame     -29.753  14.699  23.538  0.00  0.00     0.087 H 
ENDROOT
BRANCH   1   3
ATOM      3  N4  non d ame     -31.177  13.254  23.915  0.00  0.00    -0.346 N 
ATOM      4  C10 non d ame     -30.466  12.119  23.221  0.00  0.00     0.241 C 
ATOM      5  O4  non d ame     -29.628  12.342  22.412  0.00  0.00    -0.271 OA
ATOM      6  H19 non d ame     -31.895  13.086  24.606  0.00  0.00     0.163 HD
BRANCH   4   7
ATOM      7  C9  non d ame     -30.824  10.697  23.563  0.00  0.00     0.092 C 
ATOM      8  H11 non d ame     -30.365  10.430  24.515  0.00  0.00     0.088 H 
BRANCH   7   9
ATOM      9  N3  non d ame     -32.275  10.585  23.733  0.00  0.00    -0.346 N 
ATOM     10  C7  non d ame     -32.821  10.141  24.993  0.00  0.00     0.240 C 
ATOM     11  O3  non d ame     -32.106   9.868  25.879  0.00  0.00    -0.271 OA
ATOM     12  H10 non d ame     -32.904  10.815  22.978  0.00  0.00     0.163 HD
BRANCH  10  13
ATOM     13  C6  non d ame     -34.367  10.022  25.168  0.00  0.00     0.086 C 
ATOM     14  H6  non d ame     -34.650   9.589  26.127  0.00  0.00     0.086 H 
BRANCH  13  15
ATOM     15  N2  non d ame     -34.950  11.352  25.124  0.00  0.00    -0.343 N 
ATOM     16  C5  non d ame     -36.102  11.663  25.974  0.00  0.00     0.273 C 
ATOM     17  O2  non d ame     -36.553  10.836  26.687  0.00  0.00    -0.266 OA
ATOM     18  H5  non d ame     -34.560  12.052  24.509  0.00  0.00     0.163 HD
BRANCH  16  19
ATOM     19  C4  non d ame     -36.727  13.066  25.939  0.00  0.00     0.154 A 
ATOM     20  C1  non d ame     -36.736  13.982  24.840  0.00  0.00    -0.017 A 
ATOM     21  C2  non d ame     -37.430  15.117  25.317  0.00  0.00     0.077 A 
ATOM     22  H1  non d ame     -36.305  13.846  23.849  0.00  0.00     0.091 H 
ATOM     23  O1  non d ame     -37.777  14.870  26.547  0.00  0.00    -0.218 OA
ATOM     24  N1  non d ame     -37.377  13.680  26.932  0.00  0.00    -0.123 NA
BRANCH  21  25
ATOM     25  C3  non d ame     -37.719  16.391  24.536  0.00  0.00    -0.029 C 
ATOM     26  H2  non d ame     -37.511  17.258  25.164  0.00  0.00     0.036 H 
ATOM     27  H3  non d ame     -37.086  16.426  23.649  0.00  0.00     0.036 H 
ATOM     28  H4  non d ame     -38.766  16.404  24.236  0.00  0.00     0.036 H 
ENDBRANCH  21  25
ENDBRANCH  16  19
ENDBRANCH  13  15
BRANCH  13  29
ATOM     29  C8  non d ame     -34.936   9.172  24.060  0.00  0.00    -0.049 C 
ATOM     30  H7  non d ame     -35.437   9.810  23.333  0.00  0.00     0.030 H 
ATOM     31  H8  non d ame     -34.129   8.626  23.570  0.00  0.00     0.030 H 
ATOM     32  H9  non d ame     -35.653   8.464  24.477  0.00  0.00     0.030 H 
ENDBRANCH  13  29
ENDBRANCH  10  13
ENDBRANCH   7   9
BRANCH   7  33
ATOM     33  C11 non d ame     -30.366   9.756  22.410  0.00  0.00    -0.033 C 
ATOM     34  H12 non d ame     -30.164  10.379  21.538  0.00  0.00     0.042 H 
BRANCH  33  35
ATOM     35  C12 non d ame     -29.042   9.013  22.773  0.00  0.00    -0.071 C 
ATOM     36  H13 non d ame     -28.431   9.651  23.411  0.00  0.00     0.028 H 
ATOM     37  H14 non d ame     -29.278   8.090  23.302  0.00  0.00     0.028 H 
ATOM     38  H15 non d ame     -28.494   8.780  21.861  0.00  0.00     0.028 H 
ENDBRANCH  33  35
BRANCH  33  39
ATOM     39  C13 non d ame     -31.496   8.746  22.030  0.00  0.00    -0.071 C 
ATOM     40  H16 non d ame     -31.828   8.940  21.009  0.00  0.00     0.028 H 
ATOM     41  H17 non d ame     -31.113   7.728  22.100  0.00  0.00     0.028 H 
ATOM     42  H18 non d ame     -32.335   8.865  22.714  0.00  0.00     0.028 H 
ENDBRANCH  33  39
ENDBRANCH   7  33
ENDBRANCH   4   7
ENDBRANCH   1   3
BRANCH   1  43
ATOM     43  C15 non d ame     -31.419  15.551  24.716  0.00  0.00     0.240 C 
ATOM     44  O5  non d ame     -30.688  16.235  25.357  0.00  0.00    -0.271 OA
ATOM     45  N6  non d ame     -32.885  15.585  24.978  0.00  0.00    -0.355 N 
ATOM     46  H46 non d ame     -33.516  15.012  24.435  0.00  0.00     0.162 HD
BRANCH  45  47
ATOM     47  C20 non d ame     -33.422  16.464  26.040  0.00  0.00     0.013 C 
ATOM     48  H30 non d ame     -32.578  16.936  26.542  0.00  0.00     0.072 H 
BRANCH  47  49
ATOM     49  C21 non d ame     -34.211  15.632  27.026  0.00  0.00    -0.038 C 
ATOM     50  H31 non d ame     -35.261  15.841  26.814  0.00  0.00     0.036 H 
ATOM     51  H32 non d ame     -33.827  14.617  26.928  0.00  0.00     0.036 H 
BRANCH  49  52
ATOM     52  C22 non d ame     -33.970  16.051  28.492  0.00  0.00     0.018 C 
ATOM     53  H33 non d ame     -34.239  17.105  28.545  0.00  0.00     0.048 H 
ATOM     54  H34 non d ame     -34.507  15.321  29.099  0.00  0.00     0.048 H 
BRANCH  52  55
ATOM     55  C23 non d ame     -32.484  15.965  28.932  0.00  0.00     0.259 C 
ATOM     56  O7  non d ame     -32.038  16.744  29.712  0.00  0.00    -0.265 OA
BRANCH  55  57
ATOM     57  O8  non d ame     -31.651  14.950  28.383  0.00  0.00    -0.317 OA
BRANCH  57  58
ATOM     58  C29 non d ame     -31.044  14.102  29.362  0.00  0.00     0.052 C 
ATOM     59  H47 non d ame     -30.095  13.785  28.930  0.00  0.00     0.082 H 
ATOM     60  H48 non d ame     -31.058  14.669  30.293  0.00  0.00     0.082 H 
BRANCH  58  61
ATOM     61  C35 non d ame     -31.946  12.850  29.537  0.00  0.00    -0.034 A 
ATOM     62  C30 non d ame     -32.751  12.420  28.487  0.00  0.00    -0.075 A 
ATOM     63  C31 non d ame     -33.561  11.295  28.644  0.00  0.00    -0.082 A 
ATOM     64  H49 non d ame     -32.749  12.963  27.542  0.00  0.00     0.084 H 
ATOM     65  C32 non d ame     -33.565  10.602  29.857  0.00  0.00    -0.083 A 
ATOM     66  H50 non d ame     -34.190  10.960  27.818  0.00  0.00     0.083 H 
ATOM     67  C33 non d ame     -32.762  11.037  30.903  0.00  0.00    -0.082 A 
ATOM     68  H51 non d ame     -34.195   9.722  29.987  0.00  0.00     0.083 H 
ATOM     69  C34 non d ame     -31.950  12.159  30.750  0.00  0.00    -0.075 A 
ATOM     70  H52 non d ame     -32.769  10.495  31.849  0.00  0.00     0.083 H 
ATOM     71  H53 non d ame     -31.321  12.493  31.575  0.00  0.00     0.084 H 
ENDBRANCH  58  61
ENDBRANCH  57  58
ENDBRANCH  55  57
ENDBRANCH  52  55
ENDBRANCH  49  52
ENDBRANCH  47  49
BRANCH  47  72
ATOM     72  C24 non d ame     -34.332  17.524  25.423  0.00  0.00    -0.039 C 
ATOM     73  H35 non d ame     -34.201  17.425  24.344  0.00  0.00     0.036 H 
ATOM     74  H36 non d ame     -35.312  17.360  25.870  0.00  0.00     0.036 H 
BRANCH  72  75
ATOM     75  C25 non d ame     -33.872  19.005  25.822  0.00  0.00    -0.001 C 
ATOM     76  C26 non d ame     -32.503  18.940  26.730  0.00  0.00    -0.035 C 
ATOM     77  C27 non d ame     -32.689  19.670  27.855  0.00  0.00     0.085 C 
ATOM     78  H38 non d ame     -32.350  17.928  27.105  0.00  0.00     0.036 H 
ATOM     79  H39 non d ame     -31.692  19.461  26.220  0.00  0.00     0.036 H 
ATOM     80  N5  non d ame     -34.168  19.956  27.955  0.00  0.00    -0.049 N 
ATOM     81  H40 non d ame     -32.397  19.017  28.678  0.00  0.00     0.075 H 
ATOM     82  H41 non d ame     -32.158  20.606  27.687  0.00  0.00     0.075 H 
ATOM     83  C28 non d ame     -34.787  19.611  26.504  0.00  0.00     0.193 C 
ATOM     84  H42 non d ame     -34.542  19.302  28.628  0.00  0.00     0.280 HD
ATOM     85  H43 non d ame     -34.257  20.950  28.114  0.00  0.00     0.280 HD
ATOM     86  H44 non d ame     -35.054  20.408  25.812  0.00  0.00     0.129 H 
ATOM     87  H37 non d ame     -33.869  19.681  24.968  0.00  0.00     0.046 H 
BRANCH  83  88
ATOM     88  O6  non d ame     -35.967  18.817  26.648  0.00  0.00    -0.369 OA
ATOM     89  H45 non d ame     -36.680  19.209  26.139  0.00  0.00     0.212 HD
ENDBRANCH  83  88
ENDBRANCH  72  75
ENDBRANCH  47  72
ENDBRANCH  45  47
ENDBRANCH   1  43
BRANCH   1  90
ATOM     90  C16 non d ame     -31.457  15.004  22.263  0.00  0.00    -0.035 C 
ATOM     91  H21 non d ame     -31.633  14.057  21.754  0.00  0.00     0.037 H 
ATOM     92  H22 non d ame     -32.295  15.658  22.502  0.00  0.00     0.037 H 
BRANCH  90  93
ATOM     93  C17 non d ame     -30.504  15.828  21.339  0.00  0.00    -0.059 C 
ATOM     94  H23 non d ame     -30.769  16.880  21.443  0.00  0.00     0.038 H 
BRANCH  93  95
ATOM     95  C18 non d ame     -29.005  15.671  21.749  0.00  0.00    -0.073 C 
ATOM     96  H24 non d ame     -28.934  15.553  22.830  0.00  0.00     0.028 H 
ATOM     97  H25 non d ame     -28.585  14.791  21.261  0.00  0.00     0.028 H 
ATOM     98  H26 non d ame     -28.449  16.556  21.442  0.00  0.00     0.028 H 
ENDBRANCH  93  95
BRANCH  93  99
ATOM     99  C19 non d ame     -30.708  15.452  19.869  0.00  0.00    -0.073 C 
ATOM    100  H27 non d ame     -30.546  16.330  19.243  0.00  0.00     0.028 H 
ATOM    101  H28 non d ame     -29.998  14.673  19.591  0.00  0.00     0.028 H 
ATOM    102  H29 non d ame     -31.724  15.084  19.725  0.00  0.00     0.028 H 
ENDBRANCH  93  99
ENDBRANCH  90  93
ENDBRANCH   1  90
TORSDOF 26
ENDMDL
MODEL 2
REMARK VINA RESULT:      -7.1      1.806      2.703
REMARK  26 active torsions:
REMARK  status: ('A' for Active; 'I' for Inactive)
REMARK    1  A    between atoms: C2_2  and  C3_3 
REMARK    2  A    between atoms: C4_6  and  C5_7 
REMARK       I    between atoms: C5_7  and  N2_9 
REMARK    3  A    between atoms: N2_9  and  C6_10 
REMARK    4  A    between atoms: C6_10  and  C7_11 
REMARK    5  A    between atoms: C6_10  and  C8_13 
REMARK       I    between atoms: C7_11  and  N3_14 
REMARK    6  A    between atoms: N3_14  and  C9_15 
REMARK    7  A    between atoms: C9_15  and  C10_16 
REMARK    8  A    between atoms: C9_15  and  C11_18 
REMARK       I    between atoms: C10_16  and  N4_21 
REMARK    9  A    between atoms: C11_18  and  C12_19 
REMARK   10  A    between atoms: C11_18  and  C13_20 
REMARK   11  A    between atoms: N4_21  and  C14_22 
REMARK   12  A    between atoms: C14_22  and  C15_23 
REMARK   13  A    between atoms: C14_22  and  C16_25 
REMARK       I    between atoms: C15_23  and  N6_40 
REMARK   14  A    between atoms: C16_25  and  C17_26 
REMARK   15  A    between atoms: C17_26  and  C18_27 
REMARK   16  A    between atoms: C17_26  and  C19_28 
REMARK   17  A    between atoms: C20_29  and  C21_30 
REMARK   18  A    between atoms: C20_29  and  C24_33 
REMARK   19  A    between atoms: C20_29  and  N6_40 
REMARK   20  A    between atoms: C21_30  and  C22_31 
REMARK   21  A    between atoms: C22_31  and  C23_32 
REMARK   22  A    between atoms: C23_32  and  O8_43 
REMARK   23  A    between atoms: C24_33  and  C25_34 
REMARK   24  A    between atoms: C28_38  and  O6_39 
REMARK   25  A    between atoms: C29_42  and  O8_43 
REMARK   26  A    between atoms: C29_42  and  C35_49 
ROOT
ATOM      1  C14 non d ame     -31.047  14.074  24.462  0.00  0.00     0.089 C 
ATOM      2  H20 non d ame     -30.054  13.658  24.631  0.00  0.00     0.087 H 
ENDROOT
BRANCH   1   3
ATOM      3  N4  non d ame     -32.009  12.997  24.644  0.00  0.00    -0.346 N 
ATOM      4  C10 non d ame     -31.806  11.969  25.729  0.00  0.00     0.241 C 
ATOM      5  O4  non d ame     -30.859  12.028  26.441  0.00  0.00    -0.271 OA
ATOM      6  H19 non d ame     -32.807  12.964  24.025  0.00  0.00     0.163 HD
BRANCH   4   7
ATOM      7  C9  non d ame     -32.815  10.865  25.906  0.00  0.00     0.092 C 
ATOM      8  H11 non d ame     -33.012  10.726  26.969  0.00  0.00     0.088 H 
BRANCH   7   9
ATOM      9  N3  non d ame     -34.081  11.254  25.278  0.00  0.00    -0.346 N 
ATOM     10  C7  non d ame     -35.304  11.224  26.043  0.00  0.00     0.240 C 
ATOM     11  O3  non d ame     -35.287  10.887  27.164  0.00  0.00    -0.271 OA
ATOM     12  H10 non d ame     -34.112  11.545  24.312  0.00  0.00     0.163 HD
BRANCH  10  13
ATOM     13  C6  non d ame     -36.649  11.636  25.369  0.00  0.00     0.086 C 
ATOM     14  H6  non d ame     -37.521  11.337  25.951  0.00  0.00     0.086 H 
BRANCH  13  15
ATOM     15  N2  non d ame     -36.698  13.085  25.262  0.00  0.00    -0.343 N 
ATOM     16  C5  non d ame     -37.413  13.860  26.279  0.00  0.00     0.273 C 
ATOM     17  O2  non d ame     -37.947  13.308  27.177  0.00  0.00    -0.266 OA
ATOM     18  H5  non d ame     -36.242  13.547  24.488  0.00  0.00     0.163 HD
BRANCH  16  19
ATOM     19  C4  non d ame     -37.471  15.392  26.178  0.00  0.00     0.154 A 
ATOM     20  C1  non d ame     -37.128  16.198  25.047  0.00  0.00    -0.017 A 
ATOM     21  C2  non d ame     -37.354  17.528  25.467  0.00  0.00     0.077 A 
ATOM     22  H1  non d ame     -36.770  15.869  24.072  0.00  0.00     0.091 H 
ATOM     23  O1  non d ame     -37.779  17.480  26.696  0.00  0.00    -0.218 OA
ATOM     24  N1  non d ame     -37.855  16.244  27.133  0.00  0.00    -0.123 NA
BRANCH  21  25
ATOM     25  C3  non d ame     -37.141  18.785  24.633  0.00  0.00    -0.029 C 
ATOM     26  H2  non d ame     -36.407  19.426  25.123  0.00  0.00     0.036 H 
ATOM     27  H3  non d ame     -36.777  18.508  23.644  0.00  0.00     0.036 H 
ATOM     28  H4  non d ame     -38.084  19.321  24.537  0.00  0.00     0.036 H 
ENDBRANCH  21  25
ENDBRANCH  16  19
ENDBRANCH  13  15
BRANCH  13  29
ATOM     29  C8  non d ame     -36.739  11.013  23.998  0.00  0.00    -0.049 C 
ATOM     30  H7  non d ame     -37.085  11.758  23.283  0.00  0.00     0.030 H 
ATOM     31  H8  non d ame     -35.755  10.652  23.699  0.00  0.00     0.030 H 
ATOM     32  H9  non d ame     -37.441  10.180  24.023  0.00  0.00     0.030 H 
ENDBRANCH  13  29
ENDBRANCH  10  13
ENDBRANCH   7   9
BRANCH   7  33
ATOM     33  C11 non d ame     -32.284   9.565  25.235  0.00  0.00    -0.033 C 
ATOM     34  H12 non d ame     -31.195   9.616  25.237  0.00  0.00     0.042 H 
BRANCH  33  35
ATOM     35  C12 non d ame     -32.696   8.297  26.045  0.00  0.00    -0.071 C 
ATOM     36  H13 non d ame     -33.204   8.599  26.960  0.00  0.00     0.028 H 
ATOM     37  H14 non d ame     -33.366   7.684  25.443  0.00  0.00     0.028 H 
ATOM     38  H15 non d ame     -31.805   7.721  26.297  0.00  0.00     0.028 H 
ENDBRANCH  33  35
BRANCH  33  39
ATOM     39  C13 non d ame     -32.759   9.468  23.749  0.00  0.00    -0.071 C 
ATOM     40  H16 non d ame     -33.638  10.098  23.607  0.00  0.00     0.028 H 
ATOM     41  H17 non d ame     -31.960   9.804  23.088  0.00  0.00     0.028 H 
ATOM     42  H18 non d ame     -33.011   8.434  23.515  0.00  0.00     0.028 H 
ENDBRANCH  33  39
ENDBRANCH   7  33
ENDBRANCH   4   7
ENDBRANCH   1   3
BRANCH   1  43
ATOM     43  C15 non d ame     -31.385  15.214  25.464  0.00  0.00     0.240 C 
ATOM     44  O5  non d ame     -31.035  16.326  25.233  0.00  0.00    -0.271 OA
ATOM     45  N6  non d ame     -32.154  14.922  26.706  0.00  0.00    -0.355 N 
ATOM     46  H46 non d ame     -32.462  13.982  26.910  0.00  0.00     0.162 HD
BRANCH  45  47
ATOM     47  C20 non d ame     -32.470  16.018  27.649  0.00  0.00     0.013 C 
ATOM     48  H30 non d ame     -31.782  16.840  27.450  0.00  0.00     0.072 H 
BRANCH  47  49
ATOM     49  C21 non d ame     -32.289  15.525  29.067  0.00  0.00    -0.038 C 
ATOM     50  H31 non d ame     -31.908  16.379  29.629  0.00  0.00     0.036 H 
ATOM     51  H32 non d ame     -33.239  15.071  29.344  0.00  0.00     0.036 H 
BRANCH  49  52
ATOM     52  C22 non d ame     -31.223  14.415  29.184  0.00  0.00     0.018 C 
ATOM     53  H33 non d ame     -31.076  14.038  28.173  0.00  0.00     0.048 H 
ATOM     54  H34 non d ame     -30.388  14.865  29.724  0.00  0.00     0.048 H 
BRANCH  52  55
ATOM     55  C23 non d ame     -31.677  13.197  30.035  0.00  0.00     0.259 C 
ATOM     56  O7  non d ame     -31.080  12.889  31.015  0.00  0.00    -0.265 OA
BRANCH  55  57
ATOM     57  O8  non d ame     -32.810  12.442  29.621  0.00  0.00    -0.317 OA
BRANCH  57  58
ATOM     58  C29 non d ame     -32.624  11.025  29.700  0.00  0.00     0.052 C 
ATOM     59  H47 non d ame     -32.832  10.645  28.700  0.00  0.00     0.082 H 
ATOM     60  H48 non d ame     -31.639  10.881  30.145  0.00  0.00     0.082 H 
BRANCH  58  61
ATOM     61  C35 non d ame     -33.691  10.455  30.673  0.00  0.00    -0.034 A 
ATOM     62  C30 non d ame     -34.222   9.188  30.459  0.00  0.00    -0.075 A 
ATOM     63  C31 non d ame     -35.181   8.676  31.333  0.00  0.00    -0.082 A 
ATOM     64  H49 non d ame     -33.889   8.596  29.607  0.00  0.00     0.084 H 
ATOM     65  C32 non d ame     -35.609   9.438  32.423  0.00  0.00    -0.083 A 
ATOM     66  H50 non d ame     -35.594   7.681  31.163  0.00  0.00     0.083 H 
ATOM     67  C33 non d ame     -35.078  10.704  32.631  0.00  0.00    -0.082 A 
ATOM     68  H51 non d ame     -36.357   9.045  33.111  0.00  0.00     0.083 H 
ATOM     69  C34 non d ame     -34.118  11.218  31.761  0.00  0.00    -0.075 A 
ATOM     70  H52 non d ame     -35.415  11.297  33.481  0.00  0.00     0.083 H 
ATOM     71  H53 non d ame     -33.705  12.213  31.932  0.00  0.00     0.084 H 
ENDBRANCH  58  61
ENDBRANCH  57  58
ENDBRANCH  55  57
ENDBRANCH  52  55
ENDBRANCH  49  52
ENDBRANCH  47  49
BRANCH  47  72
ATOM     72  C24 non d ame     -33.913  16.474  27.447  0.00  0.00    -0.039 C 
ATOM     73  H35 non d ame     -34.305  15.847  26.646  0.00  0.00     0.036 H 
ATOM     74  H36 non d ame     -34.368  16.441  28.437  0.00  0.00     0.036 H 
BRANCH  72  75
ATOM     75  C25 non d ame     -33.990  17.992  26.942  0.00  0.00    -0.001 C 
ATOM     76  C26 non d ame     -32.512  18.700  27.070  0.00  0.00    -0.035 C 
ATOM     77  C27 non d ame     -32.645  19.869  27.741  0.00  0.00     0.085 C 
ATOM     78  H38 non d ame     -31.868  18.106  27.718  0.00  0.00     0.036 H 
ATOM     79  H39 non d ame     -32.160  19.010  26.086  0.00  0.00     0.036 H 
ATOM     80  N5  non d ame     -34.018  19.865  28.367  0.00  0.00    -0.049 N 
ATOM     81  H40 non d ame     -31.894  19.838  28.532  0.00  0.00     0.075 H 
ATOM     82  H41 non d ame     -32.604  20.648  26.980  0.00  0.00     0.075 H 
ATOM     83  C28 non d ame     -34.834  18.676  27.641  0.00  0.00     0.193 C 
ATOM     84  H42 non d ame     -33.890  19.621  29.339  0.00  0.00     0.280 HD
ATOM     85  H43 non d ame     -34.447  20.746  28.120  0.00  0.00     0.280 HD
ATOM     86  H44 non d ame     -35.583  18.900  26.884  0.00  0.00     0.129 H 
ATOM     87  H37 non d ame     -34.503  18.083  25.984  0.00  0.00     0.046 H 
BRANCH  83  88
ATOM     88  O6  non d ame     -35.504  17.872  28.615  0.00  0.00    -0.369 OA
ATOM     89  H45 non d ame     -36.104  17.268  28.172  0.00  0.00     0.212 HD
ENDBRANCH  83  88
ENDBRANCH  72  75
ENDBRANCH  47  72
ENDBRANCH  45  47
ENDBRANCH   1  43
BRANCH   1  90
ATOM     90  C16 non d ame     -31.151  14.597  23.038  0.00  0.00    -0.035 C 
ATOM     91  H21 non d ame     -31.935  14.003  22.569  0.00  0.00     0.037 H 
ATOM     92  H22 non d ame     -31.270  15.675  23.134  0.00  0.00     0.037 H 
BRANCH  90  93
ATOM     93  C17 non d ame     -29.860  14.368  22.190  0.00  0.00    -0.059 C 
ATOM     94  H23 non d ame     -30.044  14.765  21.192  0.00  0.00     0.038 H 
BRANCH  93  95
ATOM     95  C18 non d ame     -28.625  15.120  22.782  0.00  0.00    -0.073 C 
ATOM     96  H24 non d ame     -28.312  14.634  23.706  0.00  0.00     0.028 H 
ATOM     97  H25 non d ame     -27.805  15.094  22.064  0.00  0.00     0.028 H 
ATOM     98  H26 non d ame     -28.895  16.155  22.989  0.00  0.00     0.028 H 
ENDBRANCH  93  95
BRANCH  93  99
ATOM     99  C19 non d ame     -29.564  12.873  22.037  0.00  0.00    -0.073 C 
ATOM    100  H27 non d ame     -28.804  12.577  22.761  0.00  0.00     0.028 H 
ATOM    101  H28 non d ame     -30.476  12.302  22.215  0.00  0.00     0.028 H 
ATOM    102  H29 non d ame     -29.204  12.675  21.028  0.00  0.00     0.028 H 
ENDBRANCH  93  99
ENDBRANCH  90  93
ENDBRANCH   1  90
TORSDOF 26
ENDMDL
MODEL 3
REMARK VINA RESULT:      -7.0      3.661      6.374
REMARK  26 active torsions:
REMARK  status: ('A' for Active; 'I' for Inactive)
REMARK    1  A    between atoms: C2_2  and  C3_3 
REMARK    2  A    between atoms: C4_6  and  C5_7 
REMARK       I    between atoms: C5_7  and  N2_9 
REMARK    3  A    between atoms: N2_9  and  C6_10 
REMARK    4  A    between atoms: C6_10  and  C7_11 
REMARK    5  A    between atoms: C6_10  and  C8_13 
REMARK       I    between atoms: C7_11  and  N3_14 
REMARK    6  A    between atoms: N3_14  and  C9_15 
REMARK    7  A    between atoms: C9_15  and  C10_16 
REMARK    8  A    between atoms: C9_15  and  C11_18 
REMARK       I    between atoms: C10_16  and  N4_21 
REMARK    9  A    between atoms: C11_18  and  C12_19 
REMARK   10  A    between atoms: C11_18  and  C13_20 
REMARK   11  A    between atoms: N4_21  and  C14_22 
REMARK   12  A    between atoms: C14_22  and  C15_23 
REMARK   13  A    between atoms: C14_22  and  C16_25 
REMARK       I    between atoms: C15_23  and  N6_40 
REMARK   14  A    between atoms: C16_25  and  C17_26 
REMARK   15  A    between atoms: C17_26  and  C18_27 
REMARK   16  A    between atoms: C17_26  and  C19_28 
REMARK   17  A    between atoms: C20_29  and  C21_30 
REMARK   18  A    between atoms: C20_29  and  C24_33 
REMARK   19  A    between atoms: C20_29  and  N6_40 
REMARK   20  A    between atoms: C21_30  and  C22_31 
REMARK   21  A    between atoms: C22_31  and  C23_32 
REMARK   22  A    between atoms: C23_32  and  O8_43 
REMARK   23  A    between atoms: C24_33  and  C25_34 
REMARK   24  A    between atoms: C28_38  and  O6_39 
REMARK   25  A    between atoms: C29_42  and  O8_43 
REMARK   26  A    between atoms: C29_42  and  C35_49 
ROOT
ATOM      1  C14 non d ame     -32.938  10.401  25.543  0.00  0.00     0.089 C 
ATOM      2  H20 non d ame     -33.642  10.476  24.714  0.00  0.00     0.087 H 
ENDROOT
BRANCH   1   3
ATOM      3  N4  non d ame     -32.375   9.059  25.519  0.00  0.00    -0.346 N 
ATOM      4  C10 non d ame     -33.086   7.948  24.789  0.00  0.00     0.241 C 
ATOM      5  O4  non d ame     -34.112   8.156  24.231  0.00  0.00    -0.271 OA
ATOM      6  H19 non d ame     -31.501   8.902  26.002  0.00  0.00     0.163 HD
BRANCH   4   7
ATOM      7  C9  non d ame     -32.485   6.567  24.769  0.00  0.00     0.092 C 
ATOM      8  H11 non d ame     -31.421   6.635  24.997  0.00  0.00     0.088 H 
BRANCH   7   9
ATOM      9  N3  non d ame     -33.102   5.750  25.817  0.00  0.00    -0.346 N 
ATOM     10  C7  non d ame     -32.635   5.851  27.178  0.00  0.00     0.240 C 
ATOM     11  O3  non d ame     -31.762   6.584  27.447  0.00  0.00    -0.271 OA
ATOM     12  H10 non d ame     -33.854   5.112  25.601  0.00  0.00     0.163 HD
BRANCH  10  13
ATOM     13  C6  non d ame     -33.293   4.976  28.290  0.00  0.00     0.086 C 
ATOM     14  H6  non d ame     -32.659   4.864  29.169  0.00  0.00     0.086 H 
BRANCH  13  15
ATOM     15  N2  non d ame     -34.514   5.625  28.739  0.00  0.00    -0.343 N 
ATOM     16  C5  non d ame     -34.904   5.534  30.148  0.00  0.00     0.273 C 
ATOM     17  O2  non d ame     -34.230   4.934  30.911  0.00  0.00    -0.266 OA
ATOM     18  H5  non d ame     -35.086   6.132  28.079  0.00  0.00     0.163 HD
BRANCH  16  19
ATOM     19  C4  non d ame     -36.191   6.216  30.636  0.00  0.00     0.154 A 
ATOM     20  C1  non d ame     -36.453   7.621  30.703  0.00  0.00    -0.017 A 
ATOM     21  C2  non d ame     -37.765   7.723  31.216  0.00  0.00     0.077 A 
ATOM     22  H1  non d ame     -35.792   8.442  30.423  0.00  0.00     0.091 H 
ATOM     23  O1  non d ame     -38.198   6.512  31.414  0.00  0.00    -0.218 OA
ATOM     24  N1  non d ame     -37.297   5.616  31.084  0.00  0.00    -0.123 NA
BRANCH  21  25
ATOM     25  C3  non d ame     -38.531   9.011  31.484  0.00  0.00    -0.029 C 
ATOM     26  H2  non d ame     -39.091   8.914  32.415  0.00  0.00     0.036 H 
ATOM     27  H3  non d ame     -37.829   9.841  31.569  0.00  0.00     0.036 H 
ATOM     28  H4  non d ame     -39.222   9.202  30.664  0.00  0.00     0.036 H 
ENDBRANCH  21  25
ENDBRANCH  16  19
ENDBRANCH  13  15
BRANCH  13  29
ATOM     29  C8  non d ame     -33.608   3.609  27.737  0.00  0.00    -0.049 C 
ATOM     30  H7  non d ame     -33.358   3.579  26.677  0.00  0.00     0.030 H 
ATOM     31  H8  non d ame     -33.023   2.859  28.270  0.00  0.00     0.030 H 
ATOM     32  H9  non d ame     -34.671   3.401  27.866  0.00  0.00     0.030 H 
ENDBRANCH  13  29
ENDBRANCH  10  13
ENDBRANCH   7   9
BRANCH   7  33
ATOM     33  C11 non d ame     -32.743   5.909  23.382  0.00  0.00    -0.033 C 
ATOM     34  H12 non d ame     -33.580   6.434  22.921  0.00  0.00     0.042 H 
BRANCH  33  35
ATOM     35  C12 non d ame     -31.511   6.068  22.438  0.00  0.00    -0.071 C 
ATOM     36  H13 non d ame     -30.598   5.854  22.993  0.00  0.00     0.028 H 
ATOM     37  H14 non d ame     -31.601   5.372  21.604  0.00  0.00     0.028 H 
ATOM     38  H15 non d ame     -31.474   7.088  22.057  0.00  0.00     0.028 H 
ENDBRANCH  33  35
BRANCH  33  39
ATOM     39  C13 non d ame     -33.145   4.407  23.542  0.00  0.00    -0.071 C 
ATOM     40  H16 non d ame     -33.127   4.136  24.597  0.00  0.00     0.028 H 
ATOM     41  H17 non d ame     -34.149   4.255  23.144  0.00  0.00     0.028 H 
ATOM     42  H18 non d ame     -32.441   3.783  22.993  0.00  0.00     0.028 H 
ENDBRANCH  33  39
ENDBRANCH   7  33
ENDBRANCH   4   7
ENDBRANCH   1   3
BRANCH   1  43
ATOM     43  C15 non d ame     -31.777  11.428  25.423  0.00  0.00     0.240 C 
ATOM     44  O5  non d ame     -30.681  11.125  25.769  0.00  0.00    -0.271 OA
ATOM     45  N6  non d ame     -32.028  12.788  24.867  0.00  0.00    -0.355 N 
ATOM     46  H46 non d ame     -32.954  13.055  24.564  0.00  0.00     0.162 HD
BRANCH  45  47
ATOM     47  C20 non d ame     -30.912  13.754  24.757  0.00  0.00     0.013 C 
ATOM     48  H30 non d ame     -30.108  13.412  25.408  0.00  0.00     0.072 H 
BRANCH  47  49
ATOM     49  C21 non d ame     -31.389  15.119  25.197  0.00  0.00    -0.038 C 
ATOM     50  H31 non d ame     -30.894  15.311  26.151  0.00  0.00     0.036 H 
ATOM     51  H32 non d ame     -31.211  15.780  24.349  0.00  0.00     0.036 H 
BRANCH  49  52
ATOM     52  C22 non d ame     -32.906  15.164  25.476  0.00  0.00     0.018 C 
ATOM     53  H33 non d ame     -33.354  15.629  24.599  0.00  0.00     0.048 H 
ATOM     54  H34 non d ame     -33.184  14.147  25.756  0.00  0.00     0.048 H 
BRANCH  52  55
ATOM     55  C23 non d ame     -33.295  16.061  26.683  0.00  0.00     0.259 C 
ATOM     56  O7  non d ame     -33.524  17.217  26.528  0.00  0.00    -0.265 OA
BRANCH  55  57
ATOM     57  O8  non d ame     -33.360  15.489  27.985  0.00  0.00    -0.317 OA
BRANCH  57  58
ATOM     58  C29 non d ame     -33.664  14.091  27.991  0.00  0.00     0.052 C 
ATOM     59  H47 non d ame     -34.638  14.003  28.472  0.00  0.00     0.082 H 
ATOM     60  H48 non d ame     -33.531  13.756  26.962  0.00  0.00     0.082 H 
BRANCH  58  61
ATOM     61  C35 non d ame     -32.611  13.376  28.880  0.00  0.00    -0.034 A 
ATOM     62  C30 non d ame     -33.007  12.743  30.054  0.00  0.00    -0.075 A 
ATOM     63  C31 non d ame     -32.061  12.100  30.853  0.00  0.00    -0.082 A 
ATOM     64  H49 non d ame     -34.055  12.750  30.349  0.00  0.00     0.084 H 
ATOM     65  C32 non d ame     -30.716  12.095  30.474  0.00  0.00    -0.083 A 
ATOM     66  H50 non d ame     -32.374  11.604  31.772  0.00  0.00     0.083 H 
ATOM     67  C33 non d ame     -30.326  12.731  29.303  0.00  0.00    -0.082 A 
ATOM     68  H51 non d ame     -29.971  11.594  31.093  0.00  0.00     0.083 H 
ATOM     69  C34 non d ame     -31.268  13.372  28.501  0.00  0.00    -0.075 A 
ATOM     70  H52 non d ame     -29.275  12.727  29.012  0.00  0.00     0.083 H 
ATOM     71  H53 non d ame     -30.954  13.868  27.582  0.00  0.00     0.084 H 
ENDBRANCH  58  61
ENDBRANCH  57  58
ENDBRANCH  55  57
ENDBRANCH  52  55
ENDBRANCH  49  52
ENDBRANCH  47  49
BRANCH  47  72
ATOM     72  C24 non d ame     -30.430  13.823  23.310  0.00  0.00    -0.039 C 
ATOM     73  H35 non d ame     -29.460  13.323  23.304  0.00  0.00     0.036 H 
ATOM     74  H36 non d ame     -31.250  13.428  22.711  0.00  0.00     0.036 H 
BRANCH  72  75
ATOM     75  C25 non d ame     -30.186  15.334  22.838  0.00  0.00    -0.001 C 
ATOM     76  C26 non d ame     -31.287  15.746  21.689  0.00  0.00    -0.035 C 
ATOM     77  C27 non d ame     -30.632  16.264  20.622  0.00  0.00     0.085 C 
ATOM     78  H38 non d ame     -31.761  14.851  21.287  0.00  0.00     0.036 H 
ATOM     79  H39 non d ame     -31.900  16.577  22.040  0.00  0.00     0.036 H 
ATOM     80  N5  non d ame     -29.169  15.941  20.803  0.00  0.00    -0.049 N 
ATOM     81  H40 non d ame     -31.012  15.721  19.756  0.00  0.00     0.075 H 
ATOM     82  H41 non d ame     -30.769  17.343  20.692  0.00  0.00     0.075 H 
ATOM     83  C28 non d ame     -29.002  15.485  22.343  0.00  0.00     0.193 C 
ATOM     84  H42 non d ame     -28.975  15.148  20.210  0.00  0.00     0.280 HD
ATOM     85  H43 non d ame     -28.666  16.807  20.669  0.00  0.00     0.280 HD
ATOM     86  H44 non d ame     -28.565  16.160  23.077  0.00  0.00     0.129 H 
ATOM     87  H37 non d ame     -30.069  16.016  23.680  0.00  0.00     0.046 H 
BRANCH  83  88
ATOM     88  O6  non d ame     -28.229  14.285  22.420  0.00  0.00    -0.369 OA
ATOM     89  H45 non d ame     -28.797  13.554  22.675  0.00  0.00     0.212 HD
ENDBRANCH  83  88
ENDBRANCH  72  75
ENDBRANCH  47  72
ENDBRANCH  45  47
ENDBRANCH   1  43
BRANCH   1  90
ATOM     90  C16 non d ame     -33.669  10.608  26.860  0.00  0.00    -0.035 C 
ATOM     91  H21 non d ame     -32.959  11.120  27.508  0.00  0.00     0.037 H 
ATOM     92  H22 non d ame     -34.609  11.090  26.595  0.00  0.00     0.037 H 
BRANCH  90  93
ATOM     93  C17 non d ame     -34.045   9.276  27.585  0.00  0.00    -0.059 C 
ATOM     94  H23 non d ame     -33.530   8.464  27.072  0.00  0.00     0.038 H 
BRANCH  93  95
ATOM     95  C18 non d ame     -33.584   9.267  29.077  0.00  0.00    -0.073 C 
ATOM     96  H24 non d ame     -32.496   9.214  29.122  0.00  0.00     0.028 H 
ATOM     97  H25 non d ame     -33.922  10.181  29.567  0.00  0.00     0.028 H 
ATOM     98  H26 non d ame     -34.012   8.404  29.585  0.00  0.00     0.028 H 
ENDBRANCH  93  95
BRANCH  93  99
ATOM     99  C19 non d ame     -35.547   9.001  27.478  0.00  0.00    -0.073 C 
ATOM    100  H27 non d ame     -35.768   8.017  27.894  0.00  0.00     0.028 H 
ATOM    101  H28 non d ame     -36.097   9.761  28.034  0.00  0.00     0.028 H 
ATOM    102  H29 non d ame     -35.848   9.029  26.431  0.00  0.00     0.028 H 
ENDBRANCH  93  99
ENDBRANCH  90  93
ENDBRANCH   1  90
TORSDOF 26
ENDMDL
MODEL 4
REMARK VINA RESULT:      -6.9      2.651      5.890
REMARK  26 active torsions:
REMARK  status: ('A' for Active; 'I' for Inactive)
REMARK    1  A    between atoms: C2_2  and  C3_3 
REMARK    2  A    between atoms: C4_6  and  C5_7 
REMARK       I    between atoms: C5_7  and  N2_9 
REMARK    3  A    between atoms: N2_9  and  C6_10 
REMARK    4  A    between atoms: C6_10  and  C7_11 
REMARK    5  A    between atoms: C6_10  and  C8_13 
REMARK       I    between atoms: C7_11  and  N3_14 
REMARK    6  A    between atoms: N3_14  and  C9_15 
REMARK    7  A    between atoms: C9_15  and  C10_16 
REMARK    8  A    between atoms: C9_15  and  C11_18 
REMARK       I    between atoms: C10_16  and  N4_21 
REMARK    9  A    between atoms: C11_18  and  C12_19 
REMARK   10  A    between atoms: C11_18  and  C13_20 
REMARK   11  A    between atoms: N4_21  and  C14_22 
REMARK   12  A    between atoms: C14_22  and  C15_23 
REMARK   13  A    between atoms: C14_22  and  C16_25 
REMARK       I    between atoms: C15_23  and  N6_40 
REMARK   14  A    between atoms: C16_25  and  C17_26 
REMARK   15  A    between atoms: C17_26  and  C18_27 
REMARK   16  A    between atoms: C17_26  and  C19_28 
REMARK   17  A    between atoms: C20_29  and  C21_30 
REMARK   18  A    between atoms: C20_29  and  C24_33 
REMARK   19  A    between atoms: C20_29  and  N6_40 
REMARK   20  A    between atoms: C21_30  and  C22_31 
REMARK   21  A    between atoms: C22_31  and  C23_32 
REMARK   22  A    between atoms: C23_32  and  O8_43 
REMARK   23  A    between atoms: C24_33  and  C25_34 
REMARK   24  A    between atoms: C28_38  and  O6_39 
REMARK   25  A    between atoms: C29_42  and  O8_43 
REMARK   26  A    between atoms: C29_42  and  C35_49 
ROOT
ATOM      1  C14 non d ame     -32.986  10.252  26.380  0.00  0.00     0.089 C 
ATOM      2  H20 non d ame     -33.791  10.594  25.730  0.00  0.00     0.087 H 
ENDROOT
BRANCH   1   3
ATOM      3  N4  non d ame     -32.281   9.188  25.681  0.00  0.00    -0.346 N 
ATOM      4  C10 non d ame     -33.040   8.212  24.817  0.00  0.00     0.241 C 
ATOM      5  O4  non d ame     -34.217   8.301  24.702  0.00  0.00    -0.271 OA
ATOM      6  H19 non d ame     -31.279   9.129  25.793  0.00  0.00     0.163 HD
BRANCH   4   7
ATOM      7  C9  non d ame     -32.293   7.120  24.096  0.00  0.00     0.092 C 
ATOM      8  H11 non d ame     -32.847   6.837  23.201  0.00  0.00     0.088 H 
BRANCH   7   9
ATOM      9  N3  non d ame     -30.990   7.627  23.657  0.00  0.00    -0.346 N 
ATOM     10  C7  non d ame     -30.799   8.033  22.286  0.00  0.00     0.240 C 
ATOM     11  O3  non d ame     -31.683   7.957  21.523  0.00  0.00    -0.271 OA
ATOM     12  H10 non d ame     -30.217   7.696  24.303  0.00  0.00     0.163 HD
BRANCH  10  13
ATOM     13  C6  non d ame     -29.408   8.568  21.824  0.00  0.00     0.086 C 
ATOM     14  H6  non d ame     -29.106   8.173  20.854  0.00  0.00     0.086 H 
BRANCH  13  15
ATOM     15  N2  non d ame     -29.484  10.013  21.678  0.00  0.00    -0.343 N 
ATOM     16  C5  non d ame     -29.928  10.829  22.811  0.00  0.00     0.273 C 
ATOM     17  O2  non d ame     -30.223  10.315  23.832  0.00  0.00    -0.266 OA
ATOM     18  H5  non d ame     -29.233  10.444  20.800  0.00  0.00     0.163 HD
BRANCH  16  19
ATOM     19  C4  non d ame     -30.012  12.357  22.671  0.00  0.00     0.154 A 
ATOM     20  C1  non d ame     -30.744  13.263  23.502  0.00  0.00    -0.017 A 
ATOM     21  C2  non d ame     -30.493  14.542  22.956  0.00  0.00     0.077 A 
ATOM     22  H1  non d ame     -31.363  13.029  24.368  0.00  0.00     0.091 H 
ATOM     23  O1  non d ame     -29.706  14.378  21.933  0.00  0.00    -0.218 OA
ATOM     24  N1  non d ame     -29.412  13.112  21.747  0.00  0.00    -0.123 NA
BRANCH  21  25
ATOM     25  C3  non d ame     -31.042  15.865  23.472  0.00  0.00    -0.029 C 
ATOM     26  H2  non d ame     -31.074  16.588  22.656  0.00  0.00     0.036 H 
ATOM     27  H3  non d ame     -32.048  15.714  23.862  0.00  0.00     0.036 H 
ATOM     28  H4  non d ame     -30.397  16.242  24.265  0.00  0.00     0.036 H 
ENDBRANCH  21  25
ENDBRANCH  16  19
ENDBRANCH  13  15
BRANCH  13  29
ATOM     29  C8  non d ame     -28.361   8.207  22.847  0.00  0.00    -0.049 C 
ATOM     30  H7  non d ame     -27.730   7.411  22.455  0.00  0.00     0.030 H 
ATOM     31  H8  non d ame     -27.749   9.082  23.064  0.00  0.00     0.030 H 
ATOM     32  H9  non d ame     -28.849   7.868  23.761  0.00  0.00     0.030 H 
ENDBRANCH  13  29
ENDBRANCH  10  13
ENDBRANCH   7   9
BRANCH   7  33
ATOM     33  C11 non d ame     -32.081   5.915  25.058  0.00  0.00    -0.033 C 
ATOM     34  H12 non d ame     -31.090   5.506  24.858  0.00  0.00     0.042 H 
BRANCH  33  35
ATOM     35  C12 non d ame     -32.111   6.366  26.552  0.00  0.00    -0.071 C 
ATOM     36  H13 non d ame     -33.135   6.321  26.924  0.00  0.00     0.028 H 
ATOM     37  H14 non d ame     -31.480   5.704  27.143  0.00  0.00     0.028 H 
ATOM     38  H15 non d ame     -31.741   7.388  26.630  0.00  0.00     0.028 H 
ENDBRANCH  33  35
BRANCH  33  39
ATOM     39  C13 non d ame     -33.131   4.790  24.784  0.00  0.00    -0.071 C 
ATOM     40  H16 non d ame     -32.685   4.022  24.153  0.00  0.00     0.028 H 
ATOM     41  H17 non d ame     -33.444   4.347  25.730  0.00  0.00     0.028 H 
ATOM     42  H18 non d ame     -33.998   5.217  24.281  0.00  0.00     0.028 H 
ENDBRANCH  33  39
ENDBRANCH   7  33
ENDBRANCH   4   7
ENDBRANCH   1   3
BRANCH   1  43
ATOM     43  C15 non d ame     -31.972  11.386  26.707  0.00  0.00     0.240 C 
ATOM     44  O5  non d ame     -30.817  11.231  26.474  0.00  0.00    -0.271 OA
ATOM     45  N6  non d ame     -32.443  12.669  27.301  0.00  0.00    -0.355 N 
ATOM     46  H46 non d ame     -33.423  12.814  27.498  0.00  0.00     0.162 HD
BRANCH  45  47
ATOM     47  C20 non d ame     -31.468  13.739  27.604  0.00  0.00     0.013 C 
ATOM     48  H30 non d ame     -30.565  13.543  27.025  0.00  0.00     0.072 H 
BRANCH  47  49
ATOM     49  C21 non d ame     -31.148  13.720  29.082  0.00  0.00    -0.038 C 
ATOM     50  H31 non d ame     -30.248  13.110  29.181  0.00  0.00     0.036 H 
ATOM     51  H32 non d ame     -31.135  14.764  29.394  0.00  0.00     0.036 H 
BRANCH  49  52
ATOM     52  C22 non d ame     -32.240  13.025  29.923  0.00  0.00     0.018 C 
ATOM     53  H33 non d ame     -32.531  13.748  30.684  0.00  0.00     0.048 H 
ATOM     54  H34 non d ame     -32.978  12.663  29.205  0.00  0.00     0.048 H 
BRANCH  52  55
ATOM     55  C23 non d ame     -31.738  11.772  30.690  0.00  0.00     0.259 C 
ATOM     56  O7  non d ame     -30.597  11.676  31.010  0.00  0.00    -0.265 OA
BRANCH  55  57
ATOM     57  O8  non d ame     -32.655  10.728  30.997  0.00  0.00    -0.317 OA
BRANCH  57  58
ATOM     58  C29 non d ame     -33.921  11.189  31.479  0.00  0.00     0.052 C 
ATOM     59  H47 non d ame     -33.760  11.451  32.525  0.00  0.00     0.082 H 
ATOM     60  H48 non d ame     -34.247  11.950  30.771  0.00  0.00     0.082 H 
BRANCH  58  61
ATOM     61  C35 non d ame     -34.918  10.001  31.419  0.00  0.00    -0.034 A 
ATOM     62  C30 non d ame     -34.446   8.703  31.255  0.00  0.00    -0.075 A 
ATOM     63  C31 non d ame     -35.342   7.636  31.200  0.00  0.00    -0.082 A 
ATOM     64  H49 non d ame     -33.375   8.521  31.170  0.00  0.00     0.084 H 
ATOM     65  C32 non d ame     -36.715   7.872  31.307  0.00  0.00    -0.083 A 
ATOM     66  H50 non d ame     -34.968   6.619  31.073  0.00  0.00     0.083 H 
ATOM     67  C33 non d ame     -37.182   9.169  31.467  0.00  0.00    -0.082 A 
ATOM     68  H51 non d ame     -37.422   7.043  31.266  0.00  0.00     0.083 H 
ATOM     69  C34 non d ame     -36.290  10.238  31.524  0.00  0.00    -0.075 A 
ATOM     70  H52 non d ame     -38.254   9.351  31.547  0.00  0.00     0.083 H 
ATOM     71  H53 non d ame     -36.664  11.254  31.651  0.00  0.00     0.084 H 
ENDBRANCH  58  61
ENDBRANCH  57  58
ENDBRANCH  55  57
ENDBRANCH  52  55
ENDBRANCH  49  52
ENDBRANCH  47  49
BRANCH  47  72
ATOM     72  C24 non d ame     -32.056  15.097  27.227  0.00  0.00    -0.039 C 
ATOM     73  H35 non d ame     -31.812  15.759  28.059  0.00  0.00     0.036 H 
ATOM     74  H36 non d ame     -31.672  15.312  26.230  0.00  0.00     0.036 H 
BRANCH  72  75
ATOM     75  C25 non d ame     -33.653  15.042  27.118  0.00  0.00    -0.001 C 
ATOM     76  C26 non d ame     -34.122  15.426  25.590  0.00  0.00    -0.035 C 
ATOM     77  C27 non d ame     -35.065  16.396  25.654  0.00  0.00     0.085 C 
ATOM     78  H38 non d ame     -33.302  15.903  25.055  0.00  0.00     0.036 H 
ATOM     79  H39 non d ame     -34.652  14.586  25.140  0.00  0.00     0.036 H 
ATOM     80  N5  non d ame     -35.044  16.940  27.062  0.00  0.00    -0.049 N 
ATOM     81  H40 non d ame     -34.730  17.174  24.967  0.00  0.00     0.075 H 
ATOM     82  H41 non d ame     -36.016  15.891  25.482  0.00  0.00     0.075 H 
ATOM     83  C28 non d ame     -34.206  15.873  27.937  0.00  0.00     0.193 C 
ATOM     84  H42 non d ame     -34.526  17.806  27.027  0.00  0.00     0.280 HD
ATOM     85  H43 non d ame     -36.003  16.937  27.383  0.00  0.00     0.280 HD
ATOM     86  H44 non d ame     -34.717  15.182  28.606  0.00  0.00     0.129 H 
ATOM     87  H37 non d ame     -34.065  14.131  27.550  0.00  0.00     0.046 H 
BRANCH  83  88
ATOM     88  O6  non d ame     -33.245  16.550  28.750  0.00  0.00    -0.369 OA
ATOM     89  H45 non d ame     -32.489  15.977  28.896  0.00  0.00     0.212 HD
ENDBRANCH  83  88
ENDBRANCH  72  75
ENDBRANCH  47  72
ENDBRANCH  45  47
ENDBRANCH   1  43
BRANCH   1  90
ATOM     90  C16 non d ame     -33.566   9.698  27.671  0.00  0.00    -0.035 C 
ATOM     91  H21 non d ame     -33.422   8.620  27.613  0.00  0.00     0.037 H 
ATOM     92  H22 non d ame     -33.092  10.268  28.469  0.00  0.00     0.037 H 
BRANCH  90  93
ATOM     93  C17 non d ame     -35.104   9.929  27.817  0.00  0.00    -0.059 C 
ATOM     94  H23 non d ame     -35.284  10.344  28.808  0.00  0.00     0.038 H 
BRANCH  93  95
ATOM     95  C18 non d ame     -35.649  10.947  26.766  0.00  0.00    -0.073 C 
ATOM     96  H24 non d ame     -35.931  11.872  27.268  0.00  0.00     0.028 H 
ATOM     97  H25 non d ame     -34.875  11.157  26.027  0.00  0.00     0.028 H 
ATOM     98  H26 non d ame     -36.521  10.524  26.267  0.00  0.00     0.028 H 
ENDBRANCH  93  95
BRANCH  93  99
ATOM     99  C19 non d ame     -35.866   8.603  27.736  0.00  0.00    -0.073 C 
ATOM    100  H27 non d ame     -35.298   7.893  27.133  0.00  0.00     0.028 H 
ATOM    101  H28 non d ame     -36.000   8.198  28.739  0.00  0.00     0.028 H 
ATOM    102  H29 non d ame     -36.840   8.771  27.279  0.00  0.00     0.028 H 
ENDBRANCH  93  99
ENDBRANCH  90  93
ENDBRANCH   1  90
TORSDOF 26
ENDMDL
MODEL 5
REMARK VINA RESULT:      -6.9      2.420      3.866
REMARK  26 active torsions:
REMARK  status: ('A' for Active; 'I' for Inactive)
REMARK    1  A    between atoms: C2_2  and  C3_3 
REMARK    2  A    between atoms: C4_6  and  C5_7 
REMARK       I    between atoms: C5_7  and  N2_9 
REMARK    3  A    between atoms: N2_9  and  C6_10 
REMARK    4  A    between atoms: C6_10  and  C7_11 
REMARK    5  A    between atoms: C6_10  and  C8_13 
REMARK       I    between atoms: C7_11  and  N3_14 
REMARK    6  A    between atoms: N3_14  and  C9_15 
REMARK    7  A    between atoms: C9_15  and  C10_16 
REMARK    8  A    between atoms: C9_15  and  C11_18 
REMARK       I    between atoms: C10_16  and  N4_21 
REMARK    9  A    between atoms: C11_18  and  C12_19 
REMARK   10  A    between atoms: C11_18  and  C13_20 
REMARK   11  A    between atoms: N4_21  and  C14_22 
REMARK   12  A    between atoms: C14_22  and  C15_23 
REMARK   13  A    between atoms: C14_22  and  C16_25 
REMARK       I    between atoms: C15_23  and  N6_40 
REMARK   14  A    between atoms: C16_25  and  C17_26 
REMARK   15  A    between atoms: C17_26  and  C18_27 
REMARK   16  A    between atoms: C17_26  and  C19_28 
REMARK   17  A    between atoms: C20_29  and  C21_30 
REMARK   18  A    between atoms: C20_29  and  C24_33 
REMARK   19  A    between atoms: C20_29  and  N6_40 
REMARK   20  A    between atoms: C21_30  and  C22_31 
REMARK   21  A    between atoms: C22_31  and  C23_32 
REMARK   22  A    between atoms: C23_32  and  O8_43 
REMARK   23  A    between atoms: C24_33  and  C25_34 
REMARK   24  A    between atoms: C28_38  and  O6_39 
REMARK   25  A    between atoms: C29_42  and  O8_43 
REMARK   26  A    between atoms: C29_42  and  C35_49 
ROOT
ATOM      1  C14 non d ame     -30.736  14.264  23.782  0.00  0.00     0.089 C 
ATOM      2  H20 non d ame     -29.656  14.221  23.643  0.00  0.00     0.087 H 
ENDROOT
BRANCH   1   3
ATOM      3  N4  non d ame     -31.196  12.912  24.063  0.00  0.00    -0.346 N 
ATOM      4  C10 non d ame     -30.612  11.739  23.316  0.00  0.00     0.241 C 
ATOM      5  O4  non d ame     -29.777  11.908  22.490  0.00  0.00    -0.271 OA
ATOM      6  H19 non d ame     -31.909  12.790  24.768  0.00  0.00     0.163 HD
BRANCH   4   7
ATOM      7  C9  non d ame     -31.096  10.346  23.624  0.00  0.00     0.092 C 
ATOM      8  H11 non d ame     -30.593   9.982  24.520  0.00  0.00     0.088 H 
BRANCH   7   9
ATOM      9  N3  non d ame     -32.532  10.379  23.914  0.00  0.00    -0.346 N 
ATOM     10  C7  non d ame     -32.990  10.422  25.281  0.00  0.00     0.240 C 
ATOM     11  O3  non d ame     -32.216  10.429  26.159  0.00  0.00    -0.271 OA
ATOM     12  H10 non d ame     -33.211  10.372  23.167  0.00  0.00     0.163 HD
BRANCH  10  13
ATOM     13  C6  non d ame     -34.520  10.454  25.584  0.00  0.00     0.086 C 
ATOM     14  H6  non d ame     -35.122  10.081  24.756  0.00  0.00     0.086 H 
BRANCH  13  15
ATOM     15  N2  non d ame     -34.793   9.589  26.720  0.00  0.00    -0.343 N 
ATOM     16  C5  non d ame     -35.224   8.208  26.487  0.00  0.00     0.273 C 
ATOM     17  O2  non d ame     -35.349   7.805  25.383  0.00  0.00    -0.266 OA
ATOM     18  H5  non d ame     -34.687   9.943  27.659  0.00  0.00     0.163 HD
BRANCH  16  19
ATOM     19  C4  non d ame     -35.515   7.282  27.678  0.00  0.00     0.154 A 
ATOM     20  C1  non d ame     -36.705   7.241  28.471  0.00  0.00    -0.017 A 
ATOM     21  C2  non d ame     -36.471   6.227  29.427  0.00  0.00     0.077 A 
ATOM     22  H1  non d ame     -37.601   7.853  28.370  0.00  0.00     0.091 H 
ATOM     23  O1  non d ame     -35.283   5.747  29.198  0.00  0.00    -0.218 OA
ATOM     24  N1  non d ame     -34.706   6.347  28.183  0.00  0.00    -0.123 NA
BRANCH  21  25
ATOM     25  C3  non d ame     -37.431   5.779  30.520  0.00  0.00    -0.029 C 
ATOM     26  H2  non d ame     -38.409   5.575  30.083  0.00  0.00     0.036 H 
ATOM     27  H3  non d ame     -37.049   4.874  30.991  0.00  0.00     0.036 H 
ATOM     28  H4  non d ame     -37.525   6.566  31.267  0.00  0.00     0.036 H 
ENDBRANCH  21  25
ENDBRANCH  16  19
ENDBRANCH  13  15
BRANCH  13  29
ATOM     29  C8  non d ame     -34.944  11.867  25.898  0.00  0.00    -0.049 C 
ATOM     30  H7  non d ame     -35.889  12.082  25.401  0.00  0.00     0.030 H 
ATOM     31  H8  non d ame     -35.066  11.978  26.976  0.00  0.00     0.030 H 
ATOM     32  H9  non d ame     -34.181  12.562  25.545  0.00  0.00     0.030 H 
ENDBRANCH  13  29
ENDBRANCH  10  13
ENDBRANCH   7   9
BRANCH   7  33
ATOM     33  C11 non d ame     -30.838   9.425  22.396  0.00  0.00    -0.033 C 
ATOM     34  H12 non d ame     -30.710  10.068  21.524  0.00  0.00     0.042 H 
BRANCH  33  35
ATOM     35  C12 non d ame     -29.525   8.600  22.568  0.00  0.00    -0.071 C 
ATOM     36  H13 non d ame     -29.584   7.693  21.966  0.00  0.00     0.028 H 
ATOM     37  H14 non d ame     -28.675   9.199  22.241  0.00  0.00     0.028 H 
ATOM     38  H15 non d ame     -29.399   8.331  23.616  0.00  0.00     0.028 H 
ENDBRANCH  33  35
BRANCH  33  39
ATOM     39  C13 non d ame     -32.063   8.491  22.130  0.00  0.00    -0.071 C 
ATOM     40  H16 non d ame     -32.975   8.983  22.469  0.00  0.00     0.028 H 
ATOM     41  H17 non d ame     -32.137   8.283  21.062  0.00  0.00     0.028 H 
ATOM     42  H18 non d ame     -31.931   7.556  22.672  0.00  0.00     0.028 H 
ENDBRANCH  33  39
ENDBRANCH   7  33
ENDBRANCH   4   7
ENDBRANCH   1   3
BRANCH   1  43
ATOM     43  C15 non d ame     -31.139  15.181  24.972  0.00  0.00     0.240 C 
ATOM     44  O5  non d ame     -30.681  16.275  25.056  0.00  0.00    -0.271 OA
ATOM     45  N6  non d ame     -32.104  14.701  26.001  0.00  0.00    -0.355 N 
ATOM     46  H46 non d ame     -32.504  13.775  25.936  0.00  0.00     0.162 HD
BRANCH  45  47
ATOM     47  C20 non d ame     -32.479  15.585  27.126  0.00  0.00     0.013 C 
ATOM     48  H30 non d ame     -31.819  16.453  27.104  0.00  0.00     0.072 H 
BRANCH  47  49
ATOM     49  C21 non d ame     -32.307  14.838  28.429  0.00  0.00    -0.038 C 
ATOM     50  H31 non d ame     -31.277  15.022  28.740  0.00  0.00     0.036 H 
ATOM     51  H32 non d ame     -33.133  15.157  29.063  0.00  0.00     0.036 H 
BRANCH  49  52
ATOM     52  C22 non d ame     -32.446  13.309  28.266  0.00  0.00     0.018 C 
ATOM     53  H33 non d ame     -33.443  13.063  28.628  0.00  0.00     0.048 H 
ATOM     54  H34 non d ame     -32.176  13.097  27.230  0.00  0.00     0.048 H 
BRANCH  52  55
ATOM     55  C23 non d ame     -31.457  12.492  29.143  0.00  0.00     0.259 C 
ATOM     56  O7  non d ame     -30.285  12.574  28.966  0.00  0.00    -0.265 OA
BRANCH  55  57
ATOM     57  O8  non d ame     -31.969  11.631  30.153  0.00  0.00    -0.317 OA
BRANCH  57  58
ATOM     58  C29 non d ame     -32.821  10.594  29.656  0.00  0.00     0.052 C 
ATOM     59  H47 non d ame     -33.386  11.042  28.840  0.00  0.00     0.082 H 
ATOM     60  H48 non d ame     -32.168   9.742  29.465  0.00  0.00     0.082 H 
BRANCH  58  61
ATOM     61  C35 non d ame     -33.813  10.207  30.785  0.00  0.00    -0.034 A 
ATOM     62  C30 non d ame     -34.310   8.909  30.860  0.00  0.00    -0.075 A 
ATOM     63  C31 non d ame     -35.202   8.561  31.875  0.00  0.00    -0.082 A 
ATOM     64  H49 non d ame     -34.003   8.166  30.125  0.00  0.00     0.084 H 
ATOM     65  C32 non d ame     -35.598   9.517  32.814  0.00  0.00    -0.083 A 
ATOM     66  H50 non d ame     -35.589   7.544  31.932  0.00  0.00     0.083 H 
ATOM     67  C33 non d ame     -35.101  10.811  32.733  0.00  0.00    -0.082 A 
ATOM     68  H51 non d ame     -36.294   9.253  33.610  0.00  0.00     0.083 H 
ATOM     69  C34 non d ame     -34.209  11.162  31.722  0.00  0.00    -0.075 A 
ATOM     70  H52 non d ame     -35.414  11.555  33.466  0.00  0.00     0.083 H 
ATOM     71  H53 non d ame     -33.822  12.181  31.666  0.00  0.00     0.084 H 
ENDBRANCH  58  61
ENDBRANCH  57  58
ENDBRANCH  55  57
ENDBRANCH  52  55
ENDBRANCH  49  52
ENDBRANCH  47  49
BRANCH  47  72
ATOM     72  C24 non d ame     -33.935  16.022  26.977  0.00  0.00    -0.039 C 
ATOM     73  H35 non d ame     -34.318  15.464  26.121  0.00  0.00     0.036 H 
ATOM     74  H36 non d ame     -34.381  15.884  27.961  0.00  0.00     0.036 H 
BRANCH  72  75
ATOM     75  C25 non d ame     -34.053  17.579  26.618  0.00  0.00    -0.001 C 
ATOM     76  C26 non d ame     -32.560  18.267  26.619  0.00  0.00    -0.035 C 
ATOM     77  C27 non d ame     -32.590  19.374  27.400  0.00  0.00     0.085 C 
ATOM     78  H38 non d ame     -31.848  17.617  27.126  0.00  0.00     0.036 H 
ATOM     79  H39 non d ame     -32.329  18.661  25.629  0.00  0.00     0.036 H 
ATOM     80  N5  non d ame     -33.874  19.320  28.192  0.00  0.00    -0.049 N 
ATOM     81  H40 non d ame     -31.746  19.271  28.083  0.00  0.00     0.075 H 
ATOM     82  H41 non d ame     -32.633  20.217  26.710  0.00  0.00     0.075 H 
ATOM     83  C28 non d ame     -34.791  18.202  27.475  0.00  0.00     0.193 C 
ATOM     84  H42 non d ame     -33.628  18.991  29.115  0.00  0.00     0.280 HD
ATOM     85  H43 non d ame     -34.317  20.221  28.079  0.00  0.00     0.280 HD
ATOM     86  H44 non d ame     -35.627  18.494  26.841  0.00  0.00     0.129 H 
ATOM     87  H37 non d ame     -34.680  17.755  25.744  0.00  0.00     0.046 H 
BRANCH  83  88
ATOM     88  O6  non d ame     -35.345  17.318  28.452  0.00  0.00    -0.369 OA
ATOM     89  H45 non d ame     -34.676  16.689  28.731  0.00  0.00     0.212 HD
ENDBRANCH  83  88
ENDBRANCH  72  75
ENDBRANCH  47  72
ENDBRANCH  45  47
ENDBRANCH   1  43
BRANCH   1  90
ATOM     90  C16 non d ame     -31.400  14.759  22.507  0.00  0.00    -0.035 C 
ATOM     91  H21 non d ame     -31.650  13.860  21.944  0.00  0.00     0.037 H 
ATOM     92  H22 non d ame     -32.191  15.432  22.836  0.00  0.00     0.037 H 
BRANCH  90  93
ATOM     93  C17 non d ame     -30.454  15.602  21.594  0.00  0.00    -0.059 C 
ATOM     94  H23 non d ame     -30.704  16.652  21.738  0.00  0.00     0.038 H 
BRANCH  93  95
ATOM     95  C18 non d ame     -28.950  15.412  21.969  0.00  0.00    -0.073 C 
ATOM     96  H24 non d ame     -28.325  15.717  21.131  0.00  0.00     0.028 H 
ATOM     97  H25 non d ame     -28.713  16.025  22.839  0.00  0.00     0.028 H 
ATOM     98  H26 non d ame     -28.762  14.364  22.201  0.00  0.00     0.028 H 
ENDBRANCH  93  95
BRANCH  93  99
ATOM     99  C19 non d ame     -30.691  15.278  20.116  0.00  0.00    -0.073 C 
ATOM    100  H27 non d ame     -31.511  14.564  20.027  0.00  0.00     0.028 H 
ATOM    101  H28 non d ame     -30.947  16.192  19.580  0.00  0.00     0.028 H 
ATOM    102  H29 non d ame     -29.786  14.848  19.688  0.00  0.00     0.028 H 
ENDBRANCH  93  99
ENDBRANCH  90  93
ENDBRANCH   1  90
TORSDOF 26
ENDMDL
MODEL 6
REMARK VINA RESULT:      -6.9      3.348      6.797
REMARK  26 active torsions:
REMARK  status: ('A' for Active; 'I' for Inactive)
REMARK    1  A    between atoms: C2_2  and  C3_3 
REMARK    2  A    between atoms: C4_6  and  C5_7 
REMARK       I    between atoms: C5_7  and  N2_9 
REMARK    3  A    between atoms: N2_9  and  C6_10 
REMARK    4  A    between atoms: C6_10  and  C7_11 
REMARK    5  A    between atoms: C6_10  and  C8_13 
REMARK       I    between atoms: C7_11  and  N3_14 
REMARK    6  A    between atoms: N3_14  and  C9_15 
REMARK    7  A    between atoms: C9_15  and  C10_16 
REMARK    8  A    between atoms: C9_15  and  C11_18 
REMARK       I    between atoms: C10_16  and  N4_21 
REMARK    9  A    between atoms: C11_18  and  C12_19 
REMARK   10  A    between atoms: C11_18  and  C13_20 
REMARK   11  A    between atoms: N4_21  and  C14_22 
REMARK   12  A    between atoms: C14_22  and  C15_23 
REMARK   13  A    between atoms: C14_22  and  C16_25 
REMARK       I    between atoms: C15_23  and  N6_40 
REMARK   14  A    between atoms: C16_25  and  C17_26 
REMARK   15  A    between atoms: C17_26  and  C18_27 
REMARK   16  A    between atoms: C17_26  and  C19_28 
REMARK   17  A    between atoms: C20_29  and  C21_30 
REMARK   18  A    between atoms: C20_29  and  C24_33 
REMARK   19  A    between atoms: C20_29  and  N6_40 
REMARK   20  A    between atoms: C21_30  and  C22_31 
REMARK   21  A    between atoms: C22_31  and  C23_32 
REMARK   22  A    between atoms: C23_32  and  O8_43 
REMARK   23  A    between atoms: C24_33  and  C25_34 
REMARK   24  A    between atoms: C28_38  and  O6_39 
REMARK   25  A    between atoms: C29_42  and  O8_43 
REMARK   26  A    between atoms: C29_42  and  C35_49 
ROOT
ATOM      1  C14 non d ame     -31.063  13.766  24.669  0.00  0.00     0.089 C 
ATOM      2  H20 non d ame     -30.056  13.712  25.083  0.00  0.00     0.087 H 
ENDROOT
BRANCH   1   3
ATOM      3  N4  non d ame     -31.432  12.425  24.240  0.00  0.00    -0.346 N 
ATOM      4  C10 non d ame     -31.300  11.258  25.187  0.00  0.00     0.241 C 
ATOM      5  O4  non d ame     -30.892  11.423  26.288  0.00  0.00    -0.271 OA
ATOM      6  H19 non d ame     -31.776  12.306  23.297  0.00  0.00     0.163 HD
BRANCH   4   7
ATOM      7  C9  non d ame     -31.692   9.879  24.727  0.00  0.00     0.092 C 
ATOM      8  H11 non d ame     -30.993   9.151  25.139  0.00  0.00     0.088 H 
BRANCH   7   9
ATOM      9  N3  non d ame     -33.021   9.548  25.248  0.00  0.00    -0.346 N 
ATOM     10  C7  non d ame     -33.150   8.694  26.404  0.00  0.00     0.240 C 
ATOM     11  O3  non d ame     -32.194   8.263  26.924  0.00  0.00    -0.271 OA
ATOM     12  H10 non d ame     -33.854   9.911  24.809  0.00  0.00     0.163 HD
BRANCH  10  13
ATOM     13  C6  non d ame     -34.568   8.343  26.953  0.00  0.00     0.086 C 
ATOM     14  H6  non d ame     -35.084   7.601  26.344  0.00  0.00     0.086 H 
BRANCH  13  15
ATOM     15  N2  non d ame     -34.429   7.767  28.280  0.00  0.00    -0.343 N 
ATOM     16  C5  non d ame     -34.790   6.365  28.500  0.00  0.00     0.273 C 
ATOM     17  O2  non d ame     -35.194   5.710  27.603  0.00  0.00    -0.266 OA
ATOM     18  H5  non d ame     -34.087   8.336  29.042  0.00  0.00     0.163 HD
BRANCH  16  19
ATOM     19  C4  non d ame     -34.647   5.743  29.898  0.00  0.00     0.154 A 
ATOM     20  C1  non d ame     -33.717   4.736  30.305  0.00  0.00    -0.017 A 
ATOM     21  C2  non d ame     -33.994   4.516  31.673  0.00  0.00     0.077 A 
ATOM     22  H1  non d ame     -32.957   4.239  29.702  0.00  0.00     0.091 H 
ATOM     23  O1  non d ame     -34.970   5.311  32.003  0.00  0.00    -0.218 OA
ATOM     24  N1  non d ame     -35.368   6.037  30.983  0.00  0.00    -0.123 NA
BRANCH  21  25
ATOM     25  C3  non d ame     -33.282   3.531  32.591  0.00  0.00    -0.029 C 
ATOM     26  H2  non d ame     -33.611   2.517  32.362  0.00  0.00     0.036 H 
ATOM     27  H3  non d ame     -32.205   3.606  32.437  0.00  0.00     0.036 H 
ATOM     28  H4  non d ame     -33.518   3.765  33.628  0.00  0.00     0.036 H 
ENDBRANCH  21  25
ENDBRANCH  16  19
ENDBRANCH  13  15
BRANCH  13  29
ATOM     29  C8  non d ame     -35.409   9.593  27.017  0.00  0.00    -0.049 C 
ATOM     30  H7  non d ame     -35.768   9.737  28.035  0.00  0.00     0.030 H 
ATOM     31  H8  non d ame     -34.806  10.451  26.720  0.00  0.00     0.030 H 
ATOM     32  H9  non d ame     -36.258   9.494  26.342  0.00  0.00     0.030 H 
ENDBRANCH  13  29
ENDBRANCH  10  13
ENDBRANCH   7   9
BRANCH   7  33
ATOM     33  C11 non d ame     -31.724   9.841  23.171  0.00  0.00    -0.033 C 
ATOM     34  H12 non d ame     -32.004  10.836  22.824  0.00  0.00     0.042 H 
BRANCH  33  35
ATOM     35  C12 non d ame     -30.317   9.516  22.580  0.00  0.00    -0.071 C 
ATOM     36  H13 non d ame     -30.392   9.412  21.498  0.00  0.00     0.028 H 
ATOM     37  H14 non d ame     -29.627  10.324  22.821  0.00  0.00     0.028 H 
ATOM     38  H15 non d ame     -29.949   8.584  23.009  0.00  0.00     0.028 H 
ENDBRANCH  33  35
BRANCH  33  39
ATOM     39  C13 non d ame     -32.801   8.831  22.658  0.00  0.00    -0.071 C 
ATOM     40  H16 non d ame     -32.830   8.853  21.568  0.00  0.00     0.028 H 
ATOM     41  H17 non d ame     -32.547   7.826  22.995  0.00  0.00     0.028 H 
ATOM     42  H18 non d ame     -33.777   9.109  23.053  0.00  0.00     0.028 H 
ENDBRANCH  33  39
ENDBRANCH   7  33
ENDBRANCH   4   7
ENDBRANCH   1   3
BRANCH   1  43
ATOM     43  C15 non d ame     -32.104  14.254  25.716  0.00  0.00     0.240 C 
ATOM     44  O5  non d ame     -33.238  14.406  25.395  0.00  0.00    -0.271 OA
ATOM     45  N6  non d ame     -31.689  14.524  27.122  0.00  0.00    -0.355 N 
ATOM     46  H46 non d ame     -30.729  14.393  27.407  0.00  0.00     0.162 HD
BRANCH  45  47
ATOM     47  C20 non d ame     -32.691  14.986  28.107  0.00  0.00     0.013 C 
ATOM     48  H30 non d ame     -33.680  14.738  27.721  0.00  0.00     0.072 H 
BRANCH  47  49
ATOM     49  C21 non d ame     -32.565  16.482  28.283  0.00  0.00    -0.038 C 
ATOM     50  H31 non d ame     -32.987  16.700  29.266  0.00  0.00     0.036 H 
ATOM     51  H32 non d ame     -31.522  16.716  28.075  0.00  0.00     0.036 H 
BRANCH  49  52
ATOM     52  C22 non d ame     -33.405  17.279  27.262  0.00  0.00     0.018 C 
ATOM     53  H33 non d ame     -33.230  16.801  26.299  0.00  0.00     0.048 H 
ATOM     54  H34 non d ame     -34.413  17.318  27.676  0.00  0.00     0.048 H 
BRANCH  52  55
ATOM     55  C23 non d ame     -32.953  18.756  27.096  0.00  0.00     0.259 C 
ATOM     56  O7  non d ame     -31.906  19.015  26.596  0.00  0.00    -0.265 OA
BRANCH  55  57
ATOM     57  O8  non d ame     -33.800  19.800  27.561  0.00  0.00    -0.317 OA
BRANCH  57  58
ATOM     58  C29 non d ame     -35.119  19.368  27.908  0.00  0.00     0.052 C 
ATOM     59  H47 non d ame     -35.100  18.281  27.841  0.00  0.00     0.082 H 
ATOM     60  H48 non d ame     -35.349  19.853  28.857  0.00  0.00     0.082 H 
BRANCH  58  61
ATOM     61  C35 non d ame     -36.099  19.908  26.831  0.00  0.00    -0.034 A 
ATOM     62  C30 non d ame     -35.941  19.539  25.499  0.00  0.00    -0.075 A 
ATOM     63  C31 non d ame     -36.821  20.025  24.532  0.00  0.00    -0.082 A 
ATOM     64  H49 non d ame     -35.129  18.871  25.212  0.00  0.00     0.084 H 
ATOM     65  C32 non d ame     -37.859  20.884  24.901  0.00  0.00    -0.083 A 
ATOM     66  H50 non d ame     -36.696  19.732  23.489  0.00  0.00     0.083 H 
ATOM     67  C33 non d ame     -38.010  21.252  26.231  0.00  0.00    -0.082 A 
ATOM     68  H51 non d ame     -38.551  21.267  24.151  0.00  0.00     0.083 H 
ATOM     69  C34 non d ame     -37.134  20.768  27.201  0.00  0.00    -0.075 A 
ATOM     70  H52 non d ame     -38.820  21.924  26.516  0.00  0.00     0.083 H 
ATOM     71  H53 non d ame     -37.260  21.061  28.244  0.00  0.00     0.084 H 
ENDBRANCH  58  61
ENDBRANCH  57  58
ENDBRANCH  55  57
ENDBRANCH  52  55
ENDBRANCH  49  52
ENDBRANCH  47  49
BRANCH  47  72
ATOM     72  C24 non d ame     -32.456  14.293  29.448  0.00  0.00    -0.039 C 
ATOM     73  H35 non d ame     -31.714  14.903  29.963  0.00  0.00     0.036 H 
ATOM     74  H36 non d ame     -33.447  14.158  29.882  0.00  0.00     0.036 H 
BRANCH  72  75
ATOM     75  C25 non d ame     -31.821  12.835  29.258  0.00  0.00    -0.001 C 
ATOM     76  C26 non d ame     -33.018  11.711  29.168  0.00  0.00    -0.035 C 
ATOM     77  C27 non d ame     -32.753  10.720  30.053  0.00  0.00     0.085 C 
ATOM     78  H38 non d ame     -33.955  12.133  29.531  0.00  0.00     0.036 H 
ATOM     79  H39 non d ame     -32.984  11.206  28.203  0.00  0.00     0.036 H 
ATOM     80  N5  non d ame     -31.663  11.224  30.967  0.00  0.00    -0.049 N 
ATOM     81  H40 non d ame     -33.669  10.591  30.630  0.00  0.00     0.075 H 
ATOM     82  H41 non d ame     -32.363   9.894  29.458  0.00  0.00     0.075 H 
ATOM     83  C28 non d ame     -31.046  12.530  30.246  0.00  0.00     0.193 C 
ATOM     84  H42 non d ame     -32.116  11.513  31.822  0.00  0.00     0.280 HD
ATOM     85  H43 non d ame     -30.954  10.504  30.991  0.00  0.00     0.280 HD
ATOM     86  H44 non d ame     -30.086  12.479  29.735  0.00  0.00     0.129 H 
ATOM     87  H37 non d ame     -31.061  12.813  28.477  0.00  0.00     0.046 H 
BRANCH  83  88
ATOM     88  O6  non d ame     -30.923  13.600  31.185  0.00  0.00    -0.369 OA
ATOM     89  H45 non d ame     -31.452  14.345  30.891  0.00  0.00     0.212 HD
ENDBRANCH  83  88
ENDBRANCH  72  75
ENDBRANCH  47  72
ENDBRANCH  45  47
ENDBRANCH   1  43
BRANCH   1  90
ATOM     90  C16 non d ame     -31.076  14.693  23.464  0.00  0.00    -0.035 C 
ATOM     91  H21 non d ame     -32.054  14.556  23.004  0.00  0.00     0.037 H 
ATOM     92  H22 non d ame     -30.788  15.671  23.850  0.00  0.00     0.037 H 
BRANCH  90  93
ATOM     93  C17 non d ame     -30.022  14.319  22.374  0.00  0.00    -0.059 C 
ATOM     94  H23 non d ame     -29.949  13.233  22.342  0.00  0.00     0.038 H 
BRANCH  93  95
ATOM     95  C18 non d ame     -30.443  14.812  20.953  0.00  0.00    -0.073 C 
ATOM     96  H24 non d ame     -29.856  14.290  20.198  0.00  0.00     0.028 H 
ATOM     97  H25 non d ame     -31.502  14.604  20.796  0.00  0.00     0.028 H 
ATOM     98  H26 non d ame     -30.268  15.884  20.873  0.00  0.00     0.028 H 
ENDBRANCH  93  95
BRANCH  93  99
ATOM     99  C19 non d ame     -28.637  14.856  22.747  0.00  0.00    -0.073 C 
ATOM    100  H27 non d ame     -28.635  15.162  23.794  0.00  0.00     0.028 H 
ATOM    101  H28 non d ame     -27.892  14.074  22.598  0.00  0.00     0.028 H 
ATOM    102  H29 non d ame     -28.396  15.711  22.117  0.00  0.00     0.028 H 
ENDBRANCH  93  99
ENDBRANCH  90  93
ENDBRANCH   1  90
TORSDOF 26
ENDMDL
MODEL 7
REMARK VINA RESULT:      -6.8      3.193      9.120
REMARK  26 active torsions:
REMARK  status: ('A' for Active; 'I' for Inactive)
REMARK    1  A    between atoms: C2_2  and  C3_3 
REMARK    2  A    between atoms: C4_6  and  C5_7 
REMARK       I    between atoms: C5_7  and  N2_9 
REMARK    3  A    between atoms: N2_9  and  C6_10 
REMARK    4  A    between atoms: C6_10  and  C7_11 
REMARK    5  A    between atoms: C6_10  and  C8_13 
REMARK       I    between atoms: C7_11  and  N3_14 
REMARK    6  A    between atoms: N3_14  and  C9_15 
REMARK    7  A    between atoms: C9_15  and  C10_16 
REMARK    8  A    between atoms: C9_15  and  C11_18 
REMARK       I    between atoms: C10_16  and  N4_21 
REMARK    9  A    between atoms: C11_18  and  C12_19 
REMARK   10  A    between atoms: C11_18  and  C13_20 
REMARK   11  A    between atoms: N4_21  and  C14_22 
REMARK   12  A    between atoms: C14_22  and  C15_23 
REMARK   13  A    between atoms: C14_22  and  C16_25 
REMARK       I    between atoms: C15_23  and  N6_40 
REMARK   14  A    between atoms: C16_25  and  C17_26 
REMARK   15  A    between atoms: C17_26  and  C18_27 
REMARK   16  A    between atoms: C17_26  and  C19_28 
REMARK   17  A    between atoms: C20_29  and  C21_30 
REMARK   18  A    between atoms: C20_29  and  C24_33 
REMARK   19  A    between atoms: C20_29  and  N6_40 
REMARK   20  A    between atoms: C21_30  and  C22_31 
REMARK   21  A    between atoms: C22_31  and  C23_32 
REMARK   22  A    between atoms: C23_32  and  O8_43 
REMARK   23  A    between atoms: C24_33  and  C25_34 
REMARK   24  A    between atoms: C28_38  and  O6_39 
REMARK   25  A    between atoms: C29_42  and  O8_43 
REMARK   26  A    between atoms: C29_42  and  C35_49 
ROOT
ATOM      1  C14 non d ame     -33.856   6.972  27.775  0.00  0.00     0.089 C 
ATOM      2  H20 non d ame     -33.439   6.566  28.697  0.00  0.00     0.087 H 
ENDROOT
BRANCH   1   3
ATOM      3  N4  non d ame     -34.231   8.353  28.035  0.00  0.00    -0.346 N 
ATOM      4  C10 non d ame     -34.757   8.758  29.390  0.00  0.00     0.241 C 
ATOM      5  O4  non d ame     -34.873   7.952  30.253  0.00  0.00    -0.271 OA
ATOM      6  H19 non d ame     -34.127   9.023  27.286  0.00  0.00     0.163 HD
BRANCH   4   7
ATOM      7  C9  non d ame     -35.135  10.193  29.644  0.00  0.00     0.092 C 
ATOM      8  H11 non d ame     -35.343  10.328  30.706  0.00  0.00     0.088 H 
BRANCH   7   9
ATOM      9  N3  non d ame     -34.004  11.063  29.310  0.00  0.00    -0.346 N 
ATOM     10  C7  non d ame     -32.956  11.285  30.275  0.00  0.00     0.240 C 
ATOM     11  O3  non d ame     -33.008  10.772  31.327  0.00  0.00    -0.271 OA
ATOM     12  H10 non d ame     -33.946  11.513  28.408  0.00  0.00     0.163 HD
BRANCH  10  13
ATOM     13  C6  non d ame     -31.755  12.215  29.915  0.00  0.00     0.086 C 
ATOM     14  H6  non d ame     -31.279  11.943  28.973  0.00  0.00     0.086 H 
BRANCH  13  15
ATOM     15  N2  non d ame     -32.244  13.575  29.758  0.00  0.00    -0.343 N 
ATOM     16  C5  non d ame     -31.515  14.507  28.894  0.00  0.00     0.273 C 
ATOM     17  O2  non d ame     -30.536  14.154  28.334  0.00  0.00    -0.266 OA
ATOM     18  H5  non d ame     -33.079  13.869  30.244  0.00  0.00     0.163 HD
BRANCH  16  19
ATOM     19  C4  non d ame     -32.021  15.947  28.718  0.00  0.00     0.154 A 
ATOM     20  C1  non d ame     -32.734  16.482  27.598  0.00  0.00    -0.017 A 
ATOM     21  C2  non d ame     -32.963  17.837  27.927  0.00  0.00     0.077 A 
ATOM     22  H1  non d ame     -33.038  15.967  26.687  0.00  0.00     0.091 H 
ATOM     23  O1  non d ame     -32.441  18.044  29.101  0.00  0.00    -0.218 OA
ATOM     24  N1  non d ame     -31.885  16.957  29.581  0.00  0.00    -0.123 NA
BRANCH  21  25
ATOM     25  C3  non d ame     -33.689  18.863  27.066  0.00  0.00    -0.029 C 
ATOM     26  H2  non d ame     -34.384  19.430  27.686  0.00  0.00     0.036 H 
ATOM     27  H3  non d ame     -32.962  19.542  26.621  0.00  0.00     0.036 H 
ATOM     28  H4  non d ame     -34.240  18.352  26.278  0.00  0.00     0.036 H 
ENDBRANCH  21  25
ENDBRANCH  16  19
ENDBRANCH  13  15
BRANCH  13  29
ATOM     29  C8  non d ame     -30.726  12.160  31.016  0.00  0.00    -0.049 C 
ATOM     30  H7  non d ame     -30.471  13.173  31.326  0.00  0.00     0.030 H 
ATOM     31  H8  non d ame     -31.133  11.612  31.866  0.00  0.00     0.030 H 
ATOM     32  H9  non d ame     -29.831  11.654  30.652  0.00  0.00     0.030 H 
ENDBRANCH  13  29
ENDBRANCH  10  13
ENDBRANCH   7   9
BRANCH   7  33
ATOM     33  C11 non d ame     -36.357  10.572  28.757  0.00  0.00    -0.033 C 
ATOM     34  H12 non d ame     -36.896  11.372  29.266  0.00  0.00     0.042 H 
BRANCH  33  35
ATOM     35  C12 non d ame     -35.904  11.120  27.368  0.00  0.00    -0.071 C 
ATOM     36  H13 non d ame     -34.893  10.775  27.153  0.00  0.00     0.028 H 
ATOM     37  H14 non d ame     -36.584  10.758  26.596  0.00  0.00     0.028 H 
ATOM     38  H15 non d ame     -35.920  12.210  27.384  0.00  0.00     0.028 H 
ENDBRANCH  33  35
BRANCH  33  39
ATOM     39  C13 non d ame     -37.330   9.359  28.598  0.00  0.00    -0.071 C 
ATOM     40  H16 non d ame     -38.201   9.505  29.237  0.00  0.00     0.028 H 
ATOM     41  H17 non d ame     -37.650   9.284  27.558  0.00  0.00     0.028 H 
ATOM     42  H18 non d ame     -36.817   8.442  28.885  0.00  0.00     0.028 H 
ENDBRANCH  33  39
ENDBRANCH   7  33
ENDBRANCH   4   7
ENDBRANCH   1   3
BRANCH   1  43
ATOM     43  C15 non d ame     -32.831   6.949  26.606  0.00  0.00     0.240 C 
ATOM     44  O5  non d ame     -31.854   6.276  26.690  0.00  0.00    -0.271 OA
ATOM     45  N6  non d ame     -33.070   7.758  25.377  0.00  0.00    -0.355 N 
ATOM     46  H46 non d ame     -33.899   8.329  25.293  0.00  0.00     0.162 HD
BRANCH  45  47
ATOM     47  C20 non d ame     -32.086   7.724  24.273  0.00  0.00     0.013 C 
ATOM     48  H30 non d ame     -31.182   7.243  24.645  0.00  0.00     0.072 H 
BRANCH  47  49
ATOM     49  C21 non d ame     -31.777   9.138  23.836  0.00  0.00    -0.038 C 
ATOM     50  H31 non d ame     -30.730   9.304  24.095  0.00  0.00     0.036 H 
ATOM     51  H32 non d ame     -32.098   9.202  22.797  0.00  0.00     0.036 H 
BRANCH  49  52
ATOM     52  C22 non d ame     -32.591  10.197  24.611  0.00  0.00     0.018 C 
ATOM     53  H33 non d ame     -32.712  11.035  23.926  0.00  0.00     0.048 H 
ATOM     54  H34 non d ame     -33.469   9.673  24.991  0.00  0.00     0.048 H 
BRANCH  52  55
ATOM     55  C23 non d ame     -31.857  10.764  25.857  0.00  0.00     0.259 C 
ATOM     56  O7  non d ame     -32.027  10.281  26.929  0.00  0.00    -0.265 OA
BRANCH  55  57
ATOM     57  O8  non d ame     -30.986  11.879  25.705  0.00  0.00    -0.317 OA
BRANCH  57  58
ATOM     58  C29 non d ame     -31.633  13.061  25.224  0.00  0.00     0.052 C 
ATOM     59  H47 non d ame     -32.603  12.734  24.850  0.00  0.00     0.082 H 
ATOM     60  H48 non d ame     -31.578  13.781  26.041  0.00  0.00     0.082 H 
BRANCH  58  61
ATOM     61  C35 non d ame     -30.805  13.608  24.030  0.00  0.00    -0.034 A 
ATOM     62  C30 non d ame     -30.597  14.977  23.897  0.00  0.00    -0.075 A 
ATOM     63  C31 non d ame     -29.854  15.469  22.824  0.00  0.00    -0.082 A 
ATOM     64  H49 non d ame     -31.016  15.665  24.631  0.00  0.00     0.084 H 
ATOM     65  C32 non d ame     -29.320  14.586  21.882  0.00  0.00    -0.083 A 
ATOM     66  H50 non d ame     -29.692  16.543  22.724  0.00  0.00     0.083 H 
ATOM     67  C33 non d ame     -29.533  13.221  22.018  0.00  0.00    -0.082 A 
ATOM     68  H51 non d ame     -28.737  14.962  21.042  0.00  0.00     0.083 H 
ATOM     69  C34 non d ame     -30.274  12.725  23.089  0.00  0.00    -0.075 A 
ATOM     70  H52 non d ame     -29.117  12.534  21.280  0.00  0.00     0.083 H 
ATOM     71  H53 non d ame     -30.436  11.652  23.189  0.00  0.00     0.084 H 
ENDBRANCH  58  61
ENDBRANCH  57  58
ENDBRANCH  55  57
ENDBRANCH  52  55
ENDBRANCH  49  52
ENDBRANCH  47  49
BRANCH  47  72
ATOM     72  C24 non d ame     -32.658   6.940  23.094  0.00  0.00    -0.039 C 
ATOM     73  H35 non d ame     -31.929   6.156  22.887  0.00  0.00     0.036 H 
ATOM     74  H36 non d ame     -33.674   6.675  23.388  0.00  0.00     0.036 H 
BRANCH  72  75
ATOM     75  C25 non d ame     -32.768   7.844  21.777  0.00  0.00    -0.001 C 
ATOM     76  C26 non d ame     -34.347   8.170  21.453  0.00  0.00    -0.035 C 
ATOM     77  C27 non d ame     -34.601   7.855  20.160  0.00  0.00     0.085 C 
ATOM     78  H38 non d ame     -34.991   7.493  22.012  0.00  0.00     0.036 H 
ATOM     79  H39 non d ame     -34.522   9.246  21.492  0.00  0.00     0.036 H 
ATOM     80  N5  non d ame     -33.431   7.039  19.667  0.00  0.00    -0.049 N 
ATOM     81  H40 non d ame     -35.490   7.223  20.184  0.00  0.00     0.075 H 
ATOM     82  H41 non d ame     -34.621   8.805  19.627  0.00  0.00     0.075 H 
ATOM     83  C28 non d ame     -32.256   7.245  20.754  0.00  0.00     0.193 C 
ATOM     84  H42 non d ame     -33.725   6.073  19.690  0.00  0.00     0.280 HD
ATOM     85  H43 non d ame     -33.139   7.457  18.794  0.00  0.00     0.280 HD
ATOM     86  H44 non d ame     -31.413   7.902  20.542  0.00  0.00     0.129 H 
ATOM     87  H37 non d ame     -32.081   8.690  21.798  0.00  0.00     0.046 H 
BRANCH  83  88
ATOM     88  O6  non d ame     -31.679   5.984  21.101  0.00  0.00    -0.369 OA
ATOM     89  H45 non d ame     -30.784   5.936  20.757  0.00  0.00     0.212 HD
ENDBRANCH  83  88
ENDBRANCH  72  75
ENDBRANCH  47  72
ENDBRANCH  45  47
ENDBRANCH   1  43
BRANCH   1  90
ATOM     90  C16 non d ame     -35.097   6.187  27.381  0.00  0.00    -0.035 C 
ATOM     91  H21 non d ame     -35.924   6.891  27.468  0.00  0.00     0.037 H 
ATOM     92  H22 non d ame     -34.862   5.740  26.416  0.00  0.00     0.037 H 
BRANCH  90  93
ATOM     93  C17 non d ame     -35.424   5.004  28.348  0.00  0.00    -0.059 C 
ATOM     94  H23 non d ame     -35.576   4.112  27.741  0.00  0.00     0.038 H 
BRANCH  93  95
ATOM     95  C18 non d ame     -34.252   4.713  29.339  0.00  0.00    -0.073 C 
ATOM     96  H24 non d ame     -34.305   5.406  30.179  0.00  0.00     0.028 H 
ATOM     97  H25 non d ame     -34.334   3.691  29.709  0.00  0.00     0.028 H 
ATOM     98  H26 non d ame     -33.300   4.837  28.824  0.00  0.00     0.028 H 
ENDBRANCH  93  95
BRANCH  93  99
ATOM     99  C19 non d ame     -36.727   5.264  29.108  0.00  0.00    -0.073 C 
ATOM    100  H27 non d ame     -37.048   6.292  28.939  0.00  0.00     0.028 H 
ATOM    101  H28 non d ame     -37.499   4.581  28.751  0.00  0.00     0.028 H 
ATOM    102  H29 non d ame     -36.565   5.103  30.173  0.00  0.00     0.028 H 
ENDBRANCH  93  99
ENDBRANCH  90  93
ENDBRANCH   1  90
TORSDOF 26
ENDMDL
MODEL 8
REMARK VINA RESULT:      -6.8      2.560      7.902
REMARK  26 active torsions:
REMARK  status: ('A' for Active; 'I' for Inactive)
REMARK    1  A    between atoms: C2_2  and  C3_3 
REMARK    2  A    between atoms: C4_6  and  C5_7 
REMARK       I    between atoms: C5_7  and  N2_9 
REMARK    3  A    between atoms: N2_9  and  C6_10 
REMARK    4  A    between atoms: C6_10  and  C7_11 
REMARK    5  A    between atoms: C6_10  and  C8_13 
REMARK       I    between atoms: C7_11  and  N3_14 
REMARK    6  A    between atoms: N3_14  and  C9_15 
REMARK    7  A    between atoms: C9_15  and  C10_16 
REMARK    8  A    between atoms: C9_15  and  C11_18 
REMARK       I    between atoms: C10_16  and  N4_21 
REMARK    9  A    between atoms: C11_18  and  C12_19 
REMARK   10  A    between atoms: C11_18  and  C13_20 
REMARK   11  A    between atoms: N4_21  and  C14_22 
REMARK   12  A    between atoms: C14_22  and  C15_23 
REMARK   13  A    between atoms: C14_22  and  C16_25 
REMARK       I    between atoms: C15_23  and  N6_40 
REMARK   14  A    between atoms: C16_25  and  C17_26 
REMARK   15  A    between atoms: C17_26  and  C18_27 
REMARK   16  A    between atoms: C17_26  and  C19_28 
REMARK   17  A    between atoms: C20_29  and  C21_30 
REMARK   18  A    between atoms: C20_29  and  C24_33 
REMARK   19  A    between atoms: C20_29  and  N6_40 
REMARK   20  A    between atoms: C21_30  and  C22_31 
REMARK   21  A    between atoms: C22_31  and  C23_32 
REMARK   22  A    between atoms: C23_32  and  O8_43 
REMARK   23  A    between atoms: C24_33  and  C25_34 
REMARK   24  A    between atoms: C28_38  and  O6_39 
REMARK   25  A    between atoms: C29_42  and  O8_43 
REMARK   26  A    between atoms: C29_42  and  C35_49 
ROOT
ATOM      1  C14 non d ame     -36.490  15.984  26.513  0.00  0.00     0.089 C 
ATOM      2  H20 non d ame     -37.103  16.547  27.218  0.00  0.00     0.087 H 
ENDROOT
BRANCH   1   3
ATOM      3  N4  non d ame     -35.100  16.148  26.915  0.00  0.00    -0.346 N 
ATOM      4  C10 non d ame     -34.712  17.227  27.895  0.00  0.00     0.241 C 
ATOM      5  O4  non d ame     -35.535  17.953  28.344  0.00  0.00    -0.271 OA
ATOM      6  H19 non d ame     -34.415  15.520  26.519  0.00  0.00     0.163 HD
BRANCH   4   7
ATOM      7  C9  non d ame     -33.271  17.378  28.303  0.00  0.00     0.092 C 
ATOM      8  H11 non d ame     -33.223  17.862  29.278  0.00  0.00     0.088 H 
BRANCH   7   9
ATOM      9  N3  non d ame     -32.661  16.053  28.446  0.00  0.00    -0.346 N 
ATOM     10  C7  non d ame     -31.754  15.791  29.537  0.00  0.00     0.240 C 
ATOM     11  O3  non d ame     -31.503  16.636  30.307  0.00  0.00    -0.271 OA
ATOM     12  H10 non d ame     -32.867  15.315  27.789  0.00  0.00     0.163 HD
BRANCH  10  13
ATOM     13  C6  non d ame     -31.106  14.379  29.683  0.00  0.00     0.086 C 
ATOM     14  H6  non d ame     -30.439  14.308  30.542  0.00  0.00     0.086 H 
BRANCH  13  15
ATOM     15  N2  non d ame     -32.158  13.397  29.892  0.00  0.00    -0.343 N 
ATOM     16  C5  non d ame     -31.853  12.154  30.604  0.00  0.00     0.273 C 
ATOM     17  O2  non d ame     -30.758  11.952  31.002  0.00  0.00    -0.266 OA
ATOM     18  H5  non d ame     -33.089  13.576  29.545  0.00  0.00     0.163 HD
BRANCH  16  19
ATOM     19  C4  non d ame     -32.955  11.108  30.833  0.00  0.00     0.154 A 
ATOM     20  C1  non d ame     -33.364  10.072  29.936  0.00  0.00    -0.017 A 
ATOM     21  C2  non d ame     -34.401   9.392  30.613  0.00  0.00     0.077 A 
ATOM     22  H1  non d ame     -32.970   9.847  28.945  0.00  0.00     0.091 H 
ATOM     23  O1  non d ame     -34.559   9.977  31.765  0.00  0.00    -0.218 OA
ATOM     24  N1  non d ame     -33.727  10.981  31.916  0.00  0.00    -0.123 NA
BRANCH  21  25
ATOM     25  C3  non d ame     -35.187   8.197  30.092  0.00  0.00    -0.029 C 
ATOM     26  H2  non d ame     -34.823   7.287  30.570  0.00  0.00     0.036 H 
ATOM     27  H3  non d ame     -36.244   8.329  30.321  0.00  0.00     0.036 H 
ATOM     28  H4  non d ame     -35.055   8.117  29.014  0.00  0.00     0.036 H 
ENDBRANCH  21  25
ENDBRANCH  16  19
ENDBRANCH  13  15
BRANCH  13  29
ATOM     29  C8  non d ame     -30.331  14.047  28.433  0.00  0.00    -0.049 C 
ATOM     30  H7  non d ame     -30.940  14.270  27.557  0.00  0.00     0.030 H 
ATOM     31  H8  non d ame     -29.419  14.644  28.402  0.00  0.00     0.030 H 
ATOM     32  H9  non d ame     -30.073  12.988  28.436  0.00  0.00     0.030 H 
ENDBRANCH  13  29
ENDBRANCH  10  13
ENDBRANCH   7   9
BRANCH   7  33
ATOM     33  C11 non d ame     -32.505  18.183  27.213  0.00  0.00    -0.033 C 
ATOM     34  H12 non d ame     -31.454  17.898  27.272  0.00  0.00     0.042 H 
BRANCH  33  35
ATOM     35  C12 non d ame     -33.009  17.824  25.780  0.00  0.00    -0.071 C 
ATOM     36  H13 non d ame     -34.087  17.664  25.804  0.00  0.00     0.028 H 
ATOM     37  H14 non d ame     -32.778  18.642  25.098  0.00  0.00     0.028 H 
ATOM     38  H15 non d ame     -32.516  16.914  25.438  0.00  0.00     0.028 H 
ENDBRANCH  33  35
BRANCH  33  39
ATOM     39  C13 non d ame     -32.604  19.719  27.479  0.00  0.00    -0.071 C 
ATOM     40  H16 non d ame     -32.118  20.262  26.668  0.00  0.00     0.028 H 
ATOM     41  H17 non d ame     -33.653  20.012  27.535  0.00  0.00     0.028 H 
ATOM     42  H18 non d ame     -32.112  19.957  28.422  0.00  0.00     0.028 H 
ENDBRANCH  33  39
ENDBRANCH   7  33
ENDBRANCH   4   7
ENDBRANCH   1   3
BRANCH   1  43
ATOM     43  C15 non d ame     -36.831  14.467  26.519  0.00  0.00     0.240 C 
ATOM     44  O5  non d ame     -37.888  14.100  26.919  0.00  0.00    -0.271 OA
ATOM     45  N6  non d ame     -35.844  13.470  26.015  0.00  0.00    -0.355 N 
ATOM     46  H46 non d ame     -34.944  13.770  25.667  0.00  0.00     0.162 HD
BRANCH  45  47
ATOM     47  C20 non d ame     -36.184  12.031  26.025  0.00  0.00     0.013 C 
ATOM     48  H30 non d ame     -37.093  11.905  26.613  0.00  0.00     0.072 H 
BRANCH  47  49
ATOM     49  C21 non d ame     -35.050  11.253  26.653  0.00  0.00    -0.038 C 
ATOM     50  H31 non d ame     -34.885  11.710  27.631  0.00  0.00     0.036 H 
ATOM     51  H32 non d ame     -35.337  10.205  26.584  0.00  0.00     0.036 H 
BRANCH  49  52
ATOM     52  C22 non d ame     -33.723  11.395  25.877  0.00  0.00     0.018 C 
ATOM     53  H33 non d ame     -33.086  10.585  26.230  0.00  0.00     0.048 H 
ATOM     54  H34 non d ame     -34.002  11.449  24.824  0.00  0.00     0.048 H 
BRANCH  52  55
ATOM     55  C23 non d ame     -32.954  12.709  26.185  0.00  0.00     0.259 C 
ATOM     56  O7  non d ame     -33.257  13.382  27.117  0.00  0.00    -0.265 OA
BRANCH  55  57
ATOM     57  O8  non d ame     -31.890  13.111  25.330  0.00  0.00    -0.317 OA
BRANCH  57  58
ATOM     58  C29 non d ame     -31.915  14.499  24.983  0.00  0.00     0.052 C 
ATOM     59  H47 non d ame     -32.968  14.753  24.860  0.00  0.00     0.082 H 
ATOM     60  H48 non d ame     -31.317  15.004  25.741  0.00  0.00     0.082 H 
BRANCH  58  61
ATOM     61  C35 non d ame     -31.207  14.663  23.611  0.00  0.00    -0.034 A 
ATOM     62  C30 non d ame     -30.397  13.644  23.120  0.00  0.00    -0.075 A 
ATOM     63  C31 non d ame     -29.760  13.791  21.888  0.00  0.00    -0.082 A 
ATOM     64  H49 non d ame     -30.259  12.732  23.700  0.00  0.00     0.084 H 
ATOM     65  C32 non d ame     -29.936  14.964  21.148  0.00  0.00    -0.083 A 
ATOM     66  H50 non d ame     -29.127  12.991  21.505  0.00  0.00     0.083 H 
ATOM     67  C33 non d ame     -30.743  15.978  21.643  0.00  0.00    -0.082 A 
ATOM     68  H51 non d ame     -29.443  15.086  20.183  0.00  0.00     0.083 H 
ATOM     69  C34 non d ame     -31.382  15.835  22.873  0.00  0.00    -0.075 A 
ATOM     70  H52 non d ame     -30.876  16.893  21.065  0.00  0.00     0.083 H 
ATOM     71  H53 non d ame     -32.016  16.636  23.255  0.00  0.00     0.084 H 
ENDBRANCH  58  61
ENDBRANCH  57  58
ENDBRANCH  55  57
ENDBRANCH  52  55
ENDBRANCH  49  52
ENDBRANCH  47  49
BRANCH  47  72
ATOM     72  C24 non d ame     -36.406  11.542  24.595  0.00  0.00    -0.039 C 
ATOM     73  H35 non d ame     -35.797  12.195  23.968  0.00  0.00     0.036 H 
ATOM     74  H36 non d ame     -36.207  10.471  24.620  0.00  0.00     0.036 H 
BRANCH  72  75
ATOM     75  C25 non d ame     -37.929  11.729  24.135  0.00  0.00    -0.001 C 
ATOM     76  C26 non d ame     -38.475  10.346  23.434  0.00  0.00    -0.035 C 
ATOM     77  C27 non d ame     -39.024  10.652  22.234  0.00  0.00     0.085 C 
ATOM     78  H38 non d ame     -37.636   9.702  23.173  0.00  0.00     0.036 H 
ATOM     79  H39 non d ame     -39.314   9.945  24.003  0.00  0.00     0.036 H 
ATOM     80  N5  non d ame     -38.610  12.066  21.906  0.00  0.00    -0.049 N 
ATOM     81  H40 non d ame     -38.561   9.971  21.519  0.00  0.00     0.075 H 
ATOM     82  H41 non d ame     -40.102  10.626  22.391  0.00  0.00     0.075 H 
ATOM     83  C28 non d ame     -38.045  12.693  23.283  0.00  0.00     0.193 C 
ATOM     84  H42 non d ame     -37.847  11.996  21.248  0.00  0.00     0.280 HD
ATOM     85  H43 non d ame     -39.454  12.559  21.650  0.00  0.00     0.280 HD
ATOM     86  H44 non d ame     -38.646  13.395  23.859  0.00  0.00     0.129 H 
ATOM     87  H37 non d ame     -38.547  12.166  24.919  0.00  0.00     0.046 H 
BRANCH  83  88
ATOM     88  O6  non d ame     -36.802  13.358  23.048  0.00  0.00    -0.369 OA
ATOM     89  H45 non d ame     -36.335  13.466  23.879  0.00  0.00     0.212 HD
ENDBRANCH  83  88
ENDBRANCH  72  75
ENDBRANCH  47  72
ENDBRANCH  45  47
ENDBRANCH   1  43
BRANCH   1  90
ATOM     90  C16 non d ame     -36.670  16.544  25.112  0.00  0.00    -0.035 C 
ATOM     91  H21 non d ame     -35.663  16.739  24.746  0.00  0.00     0.037 H 
ATOM     92  H22 non d ame     -37.307  15.827  24.594  0.00  0.00     0.037 H 
BRANCH  90  93
ATOM     93  C17 non d ame     -37.424  17.911  25.075  0.00  0.00    -0.059 C 
ATOM     94  H23 non d ame     -37.981  17.957  24.140  0.00  0.00     0.038 H 
BRANCH  93  95
ATOM     95  C18 non d ame     -38.446  18.052  26.248  0.00  0.00    -0.073 C 
ATOM     96  H24 non d ame     -37.941  17.864  27.195  0.00  0.00     0.028 H 
ATOM     97  H25 non d ame     -38.857  19.062  26.252  0.00  0.00     0.028 H 
ATOM     98  H26 non d ame     -39.252  17.332  26.116  0.00  0.00     0.028 H 
ENDBRANCH  93  95
BRANCH  93  99
ATOM     99  C19 non d ame     -36.435  19.080  25.072  0.00  0.00    -0.073 C 
ATOM    100  H27 non d ame     -36.690  19.770  24.267  0.00  0.00     0.028 H 
ATOM    101  H28 non d ame     -36.487  19.603  26.027  0.00  0.00     0.028 H 
ATOM    102  H29 non d ame     -35.425  18.701  24.920  0.00  0.00     0.028 H 
ENDBRANCH  93  99
ENDBRANCH  90  93
ENDBRANCH   1  90
TORSDOF 26
ENDMDL
MODEL 9
REMARK VINA RESULT:      -6.8      1.871      5.251
REMARK  26 active torsions:
REMARK  status: ('A' for Active; 'I' for Inactive)
REMARK    1  A    between atoms: C2_2  and  C3_3 
REMARK    2  A    between atoms: C4_6  and  C5_7 
REMARK       I    between atoms: C5_7  and  N2_9 
REMARK    3  A    between atoms: N2_9  and  C6_10 
REMARK    4  A    between atoms: C6_10  and  C7_11 
REMARK    5  A    between atoms: C6_10  and  C8_13 
REMARK       I    between atoms: C7_11  and  N3_14 
REMARK    6  A    between atoms: N3_14  and  C9_15 
REMARK    7  A    between atoms: C9_15  and  C10_16 
REMARK    8  A    between atoms: C9_15  and  C11_18 
REMARK       I    between atoms: C10_16  and  N4_21 
REMARK    9  A    between atoms: C11_18  and  C12_19 
REMARK   10  A    between atoms: C11_18  and  C13_20 
REMARK   11  A    between atoms: N4_21  and  C14_22 
REMARK   12  A    between atoms: C14_22  and  C15_23 
REMARK   13  A    between atoms: C14_22  and  C16_25 
REMARK       I    between atoms: C15_23  and  N6_40 
REMARK   14  A    between atoms: C16_25  and  C17_26 
REMARK   15  A    between atoms: C17_26  and  C18_27 
REMARK   16  A    between atoms: C17_26  and  C19_28 
REMARK   17  A    between atoms: C20_29  and  C21_30 
REMARK   18  A    between atoms: C20_29  and  C24_33 
REMARK   19  A    between atoms: C20_29  and  N6_40 
REMARK   20  A    between atoms: C21_30  and  C22_31 
REMARK   21  A    between atoms: C22_31  and  C23_32 
REMARK   22  A    between atoms: C23_32  and  O8_43 
REMARK   23  A    between atoms: C24_33  and  C25_34 
REMARK   24  A    between atoms: C28_38  and  O6_39 
REMARK   25  A    between atoms: C29_42  and  O8_43 
REMARK   26  A    between atoms: C29_42  and  C35_49 
ROOT
ATOM      1  C14 non d ame     -30.952  13.835  24.615  0.00  0.00     0.089 C 
ATOM      2  H20 non d ame     -29.970  13.654  25.052  0.00  0.00     0.087 H 
ENDROOT
BRANCH   1   3
ATOM      3  N4  non d ame     -31.435  12.569  24.085  0.00  0.00    -0.346 N 
ATOM      4  C10 non d ame     -31.319  11.307  24.901  0.00  0.00     0.241 C 
ATOM      5  O4  non d ame     -30.829  11.334  25.981  0.00  0.00    -0.271 OA
ATOM      6  H19 non d ame     -31.847  12.567  23.162  0.00  0.00     0.163 HD
BRANCH   4   7
ATOM      7  C9  non d ame     -31.831  10.007  24.339  0.00  0.00     0.092 C 
ATOM      8  H11 non d ame     -31.545   9.191  25.003  0.00  0.00     0.088 H 
BRANCH   7   9
ATOM      9  N3  non d ame     -33.295  10.036  24.293  0.00  0.00    -0.346 N 
ATOM     10  C7  non d ame     -34.061   9.298  25.266  0.00  0.00     0.240 C 
ATOM     11  O3  non d ame     -33.516   8.674  26.093  0.00  0.00    -0.271 OA
ATOM     12  H10 non d ame     -33.780  10.567  23.584  0.00  0.00     0.163 HD
BRANCH  10  13
ATOM     13  C6  non d ame     -35.620   9.330  25.211  0.00  0.00     0.086 C 
ATOM     14  H6  non d ame     -36.083   8.808  26.048  0.00  0.00     0.086 H 
BRANCH  13  15
ATOM     15  N2  non d ame     -36.066  10.712  25.285  0.00  0.00    -0.343 N 
ATOM     16  C5  non d ame     -36.581  11.237  26.552  0.00  0.00     0.273 C 
ATOM     17  O2  non d ame     -36.635  10.539  27.504  0.00  0.00    -0.266 OA
ATOM     18  H5  non d ame     -36.020  11.300  24.465  0.00  0.00     0.163 HD
BRANCH  16  19
ATOM     19  C4  non d ame     -37.054  12.696  26.644  0.00  0.00     0.154 A 
ATOM     20  C1  non d ame     -36.258  13.875  26.485  0.00  0.00    -0.017 A 
ATOM     21  C2  non d ame     -37.159  14.948  26.663  0.00  0.00     0.077 A 
ATOM     22  H1  non d ame     -35.191  13.941  26.273  0.00  0.00     0.091 H 
ATOM     23  O1  non d ame     -38.332  14.435  26.895  0.00  0.00    -0.218 OA
ATOM     24  N1  non d ame     -38.295  13.122  26.890  0.00  0.00    -0.123 NA
BRANCH  21  25
ATOM     25  C3  non d ame     -36.820  16.431  26.595  0.00  0.00    -0.029 C 
ATOM     26  H2  non d ame     -36.354  16.741  27.530  0.00  0.00     0.036 H 
ATOM     27  H3  non d ame     -36.129  16.608  25.770  0.00  0.00     0.036 H 
ATOM     28  H4  non d ame     -37.731  17.006  26.435  0.00  0.00     0.036 H 
ENDBRANCH  21  25
ENDBRANCH  16  19
ENDBRANCH  13  15
BRANCH  13  29
ATOM     29  C8  non d ame     -36.093   8.703  23.923  0.00  0.00    -0.049 C 
ATOM     30  H7  non d ame     -36.692   7.821  24.147  0.00  0.00     0.030 H 
ATOM     31  H8  non d ame     -36.698   9.423  23.371  0.00  0.00     0.030 H 
ATOM     32  H9  non d ame     -35.231   8.415  23.321  0.00  0.00     0.030 H 
ENDBRANCH  13  29
ENDBRANCH  10  13
ENDBRANCH   7   9
BRANCH   7  33
ATOM     33  C11 non d ame     -31.272   9.810  22.899  0.00  0.00    -0.033 C 
ATOM     34  H12 non d ame     -31.469  10.727  22.342  0.00  0.00     0.042 H 
BRANCH  33  35
ATOM     35  C12 non d ame     -29.727   9.592  22.912  0.00  0.00    -0.071 C 
ATOM     36  H13 non d ame     -29.416   9.256  23.901  0.00  0.00     0.028 H 
ATOM     37  H14 non d ame     -29.461   8.838  22.172  0.00  0.00     0.028 H 
ATOM     38  H15 non d ame     -29.225  10.529  22.673  0.00  0.00     0.028 H 
ENDBRANCH  33  35
BRANCH  33  39
ATOM     39  C13 non d ame     -32.004   8.637  22.171  0.00  0.00    -0.071 C 
ATOM     40  H16 non d ame     -32.532   8.026  22.904  0.00  0.00     0.028 H 
ATOM     41  H17 non d ame     -32.718   9.043  21.454  0.00  0.00     0.028 H 
ATOM     42  H18 non d ame     -31.273   8.024  21.645  0.00  0.00     0.028 H 
ENDBRANCH  33  39
ENDBRANCH   7  33
ENDBRANCH   4   7
ENDBRANCH   1   3
BRANCH   1  43
ATOM     43  C15 non d ame     -31.975  14.356  25.664  0.00  0.00     0.240 C 
ATOM     44  O5  non d ame     -33.006  14.824  25.301  0.00  0.00    -0.271 OA
ATOM     45  N6  non d ame     -31.675  14.263  27.120  0.00  0.00    -0.355 N 
ATOM     46  H46 non d ame     -30.804  13.863  27.440  0.00  0.00     0.162 HD
BRANCH  45  47
ATOM     47  C20 non d ame     -32.659  14.762  28.106  0.00  0.00     0.013 C 
ATOM     48  H30 non d ame     -33.648  14.698  27.653  0.00  0.00     0.072 H 
BRANCH  47  49
ATOM     49  C21 non d ame     -32.339  16.199  28.449  0.00  0.00    -0.038 C 
ATOM     50  H31 non d ame     -32.424  16.268  29.535  0.00  0.00     0.036 H 
ATOM     51  H32 non d ame     -31.388  16.413  27.963  0.00  0.00     0.036 H 
BRANCH  49  52
ATOM     52  C22 non d ame     -33.362  17.197  27.867  0.00  0.00     0.018 C 
ATOM     53  H33 non d ame     -34.090  16.592  27.328  0.00  0.00     0.048 H 
ATOM     54  H34 non d ame     -33.682  17.815  28.707  0.00  0.00     0.048 H 
BRANCH  52  55
ATOM     55  C23 non d ame     -32.759  18.174  26.821  0.00  0.00     0.259 C 
ATOM     56  O7  non d ame     -31.884  17.821  26.099  0.00  0.00    -0.265 OA
BRANCH  55  57
ATOM     57  O8  non d ame     -33.254  19.506  26.745  0.00  0.00    -0.317 OA
BRANCH  57  58
ATOM     58  C29 non d ame     -34.394  19.751  27.574  0.00  0.00     0.052 C 
ATOM     59  H47 non d ame     -34.610  18.803  28.065  0.00  0.00     0.082 H 
ATOM     60  H48 non d ame     -34.143  20.629  28.169  0.00  0.00     0.082 H 
BRANCH  58  61
ATOM     61  C35 non d ame     -35.589  20.110  26.651  0.00  0.00    -0.034 A 
ATOM     62  C30 non d ame     -35.621  19.645  25.340  0.00  0.00    -0.075 A 
ATOM     63  C31 non d ame     -36.695  19.968  24.511  0.00  0.00    -0.082 A 
ATOM     64  H49 non d ame     -34.805  19.030  24.962  0.00  0.00     0.084 H 
ATOM     65  C32 non d ame     -37.738  20.760  24.997  0.00  0.00    -0.083 A 
ATOM     66  H50 non d ame     -36.717  19.601  23.484  0.00  0.00     0.083 H 
ATOM     67  C33 non d ame     -37.700  21.224  26.305  0.00  0.00    -0.082 A 
ATOM     68  H51 non d ame     -38.581  21.016  24.355  0.00  0.00     0.083 H 
ATOM     69  C34 non d ame     -36.630  20.902  27.137  0.00  0.00    -0.075 A 
ATOM     70  H52 non d ame     -38.515  21.844  26.681  0.00  0.00     0.083 H 
ATOM     71  H53 non d ame     -36.609  21.270  28.164  0.00  0.00     0.084 H 
ENDBRANCH  58  61
ENDBRANCH  57  58
ENDBRANCH  55  57
ENDBRANCH  52  55
ENDBRANCH  49  52
ENDBRANCH  47  49
BRANCH  47  72
ATOM     72  C24 non d ame     -32.600  13.909  29.372  0.00  0.00    -0.039 C 
ATOM     73  H35 non d ame     -31.843  14.378  30.002  0.00  0.00     0.036 H 
ATOM     74  H36 non d ame     -33.630  13.837  29.720  0.00  0.00     0.036 H 
BRANCH  72  75
ATOM     75  C25 non d ame     -32.100  12.419  29.060  0.00  0.00    -0.001 C 
ATOM     76  C26 non d ame     -33.373  11.489  28.595  0.00  0.00    -0.035 C 
ATOM     77  C27 non d ame     -33.383  10.358  29.342  0.00  0.00     0.085 C 
ATOM     78  H38 non d ame     -34.310  11.977  28.859  0.00  0.00     0.036 H 
ATOM     79  H39 non d ame     -33.216  11.121  27.581  0.00  0.00     0.036 H 
ATOM     80  N5  non d ame     -32.433  10.582  30.494  0.00  0.00    -0.049 N 
ATOM     81  H40 non d ame     -34.399  10.275  29.730  0.00  0.00     0.075 H 
ATOM     82  H41 non d ame     -32.981   9.578  28.696  0.00  0.00     0.075 H 
ATOM     83  C28 non d ame     -31.558  11.881  30.102  0.00  0.00     0.193 C 
ATOM     84  H42 non d ame     -33.003  10.808  31.296  0.00  0.00     0.280 HD
ATOM     85  H43 non d ame     -31.822   9.778  30.520  0.00  0.00     0.280 HD
ATOM     86  H44 non d ame     -30.531  11.773  29.757  0.00  0.00     0.129 H 
ATOM     87  H37 non d ame     -31.216  12.405  28.424  0.00  0.00     0.046 H 
BRANCH  83  88
ATOM     88  O6  non d ame     -31.497  12.785  31.207  0.00  0.00    -0.369 OA
ATOM     89  H45 non d ame     -32.387  12.996  31.498  0.00  0.00     0.212 HD
ENDBRANCH  83  88
ENDBRANCH  72  75
ENDBRANCH  47  72
ENDBRANCH  45  47
ENDBRANCH   1  43
BRANCH   1  90
ATOM     90  C16 non d ame     -30.832  14.836  23.477  0.00  0.00    -0.035 C 
ATOM     91  H21 non d ame     -31.815  14.861  23.008  0.00  0.00     0.037 H 
ATOM     92  H22 non d ame     -30.421  15.739  23.928  0.00  0.00     0.037 H 
BRANCH  90  93
ATOM     93  C17 non d ame     -29.826  14.402  22.364  0.00  0.00    -0.059 C 
ATOM     94  H23 non d ame     -29.784  13.313  22.361  0.00  0.00     0.038 H 
BRANCH  93  95
ATOM     95  C18 non d ame     -30.282  14.865  20.943  0.00  0.00    -0.073 C 
ATOM     96  H24 non d ame     -31.278  14.474  20.736  0.00  0.00     0.028 H 
ATOM     97  H25 non d ame     -30.306  15.954  20.907  0.00  0.00     0.028 H 
ATOM     98  H26 non d ame     -29.582  14.492  20.196  0.00  0.00     0.028 H 
ENDBRANCH  93  95
BRANCH  93  99
ATOM     99  C19 non d ame     -28.415  14.909  22.674  0.00  0.00    -0.073 C 
ATOM    100  H27 non d ame     -28.021  14.380  23.542  0.00  0.00     0.028 H 
ATOM    101  H28 non d ame     -27.767  14.729  21.816  0.00  0.00     0.028 H 
ATOM    102  H29 non d ame     -28.451  15.978  22.883  0.00  0.00     0.028 H 
ENDBRANCH  93  99
ENDBRANCH  90  93
ENDBRANCH   1  90
TORSDOF 26
ENDMDL
MODEL 10
REMARK VINA RESULT:      -6.8      2.947      6.529
REMARK  26 active torsions:
REMARK  status: ('A' for Active; 'I' for Inactive)
REMARK    1  A    between atoms: C2_2  and  C3_3 
REMARK    2  A    between atoms: C4_6  and  C5_7 
REMARK       I    between atoms: C5_7  and  N2_9 
REMARK    3  A    between atoms: N2_9  and  C6_10 
REMARK    4  A    between atoms: C6_10  and  C7_11 
REMARK    5  A    between atoms: C6_10  and  C8_13 
REMARK       I    between atoms: C7_11  and  N3_14 
REMARK    6  A    between atoms: N3_14  and  C9_15 
REMARK    7  A    between atoms: C9_15  and  C10_16 
REMARK    8  A    between atoms: C9_15  and  C11_18 
REMARK       I    between atoms: C10_16  and  N4_21 
REMARK    9  A    between atoms: C11_18  and  C12_19 
REMARK   10  A    between atoms: C11_18  and  C13_20 
REMARK   11  A    between atoms: N4_21  and  C14_22 
REMARK   12  A    between atoms: C14_22  and  C15_23 
REMARK   13  A    between atoms: C14_22  and  C16_25 
REMARK       I    between atoms: C15_23  and  N6_40 
REMARK   14  A    between atoms: C16_25  and  C17_26 
REMARK   15  A    between atoms: C17_26  and  C18_27 
REMARK   16  A    between atoms: C17_26  and  C19_28 
REMARK   17  A    between atoms: C20_29  and  C21_30 
REMARK   18  A    between atoms: C20_29  and  C24_33 
REMARK   19  A    between atoms: C20_29  and  N6_40 
REMARK   20  A    between atoms: C21_30  and  C22_31 
REMARK   21  A    between atoms: C22_31  and  C23_32 
REMARK   22  A    between atoms: C23_32  and  O8_43 
REMARK   23  A    between atoms: C24_33  and  C25_34 
REMARK   24  A    between atoms: C28_38  and  O6_39 
REMARK   25  A    between atoms: C29_42  and  O8_43 
REMARK   26  A    between atoms: C29_42  and  C35_49 
ROOT
ATOM      1  C14 non d ame     -31.181  14.172  24.196  0.00  0.00     0.089 C 
ATOM      2  H20 non d ame     -30.174  14.122  24.611  0.00  0.00     0.087 H 
ENDROOT
BRANCH   1   3
ATOM      3  N4  non d ame     -31.702  12.814  24.148  0.00  0.00    -0.346 N 
ATOM      4  C10 non d ame     -31.532  11.891  25.329  0.00  0.00     0.241 C 
ATOM      5  O4  non d ame     -30.969  12.262  26.305  0.00  0.00    -0.271 OA
ATOM      6  H19 non d ame     -32.176  12.517  23.307  0.00  0.00     0.163 HD
BRANCH   4   7
ATOM      7  C9  non d ame     -32.082  10.490  25.264  0.00  0.00     0.092 C 
ATOM      8  H11 non d ame     -32.979  10.486  24.643  0.00  0.00     0.088 H 
BRANCH   7   9
ATOM      9  N3  non d ame     -31.104   9.609  24.620  0.00  0.00    -0.346 N 
ATOM     10  C7  non d ame     -31.343   9.122  23.284  0.00  0.00     0.240 C 
ATOM     11  O3  non d ame     -32.318   9.427  22.713  0.00  0.00    -0.271 OA
ATOM     12  H10 non d ame     -30.260   9.335  25.101  0.00  0.00     0.163 HD
BRANCH  10  13
ATOM     13  C6  non d ame     -30.299   8.181  22.605  0.00  0.00     0.086 C 
ATOM     14  H6  non d ame     -29.947   7.392  23.270  0.00  0.00     0.086 H 
BRANCH  13  15
ATOM     15  N2  non d ame     -30.927   7.520  21.473  0.00  0.00    -0.343 N 
ATOM     16  C5  non d ame     -31.672   6.277  21.685  0.00  0.00     0.273 C 
ATOM     17  O2  non d ame     -31.757   5.815  22.769  0.00  0.00    -0.266 OA
ATOM     18  H5  non d ame     -30.846   7.920  20.549  0.00  0.00     0.163 HD
BRANCH  16  19
ATOM     19  C4  non d ame     -32.342   5.569  20.497  0.00  0.00     0.154 A 
ATOM     20  C1  non d ame     -32.409   4.160  20.256  0.00  0.00    -0.017 A 
ATOM     21  C2  non d ame     -33.124   4.032  19.044  0.00  0.00     0.077 A 
ATOM     22  H1  non d ame     -32.000   3.354  20.864  0.00  0.00     0.091 H 
ATOM     23  O1  non d ame     -33.431   5.233  18.647  0.00  0.00    -0.218 OA
ATOM     24  N1  non d ame     -32.984   6.146  19.478  0.00  0.00    -0.123 NA
BRANCH  21  25
ATOM     25  C3  non d ame     -33.474   2.730  18.337  0.00  0.00    -0.029 C 
ATOM     26  H2  non d ame     -33.144   1.887  18.943  0.00  0.00     0.036 H 
ATOM     27  H3  non d ame     -34.553   2.673  18.193  0.00  0.00     0.036 H 
ATOM     28  H4  non d ame     -32.977   2.697  17.368  0.00  0.00     0.036 H 
ENDBRANCH  21  25
ENDBRANCH  16  19
ENDBRANCH  13  15
BRANCH  13  29
ATOM     29  C8  non d ame     -29.116   8.991  22.139  0.00  0.00    -0.049 C 
ATOM     30  H7  non d ame     -28.224   8.677  22.680  0.00  0.00     0.030 H 
ATOM     31  H8  non d ame     -28.967   8.834  21.071  0.00  0.00     0.030 H 
ATOM     32  H9  non d ame     -29.303  10.048  22.329  0.00  0.00     0.030 H 
ENDBRANCH  13  29
ENDBRANCH  10  13
ENDBRANCH   7   9
BRANCH   7  33
ATOM     33  C11 non d ame     -32.369   9.979  26.706  0.00  0.00    -0.033 C 
ATOM     34  H12 non d ame     -31.563  10.337  27.347  0.00  0.00     0.042 H 
BRANCH  33  35
ATOM     35  C12 non d ame     -33.705  10.562  27.262  0.00  0.00    -0.071 C 
ATOM     36  H13 non d ame     -34.243  11.067  26.460  0.00  0.00     0.028 H 
ATOM     37  H14 non d ame     -34.318   9.752  27.656  0.00  0.00     0.028 H 
ATOM     38  H15 non d ame     -33.488  11.274  28.058  0.00  0.00     0.028 H 
ENDBRANCH  33  35
BRANCH  33  39
ATOM     39  C13 non d ame     -32.368   8.417  26.756  0.00  0.00    -0.071 C 
ATOM     40  H16 non d ame     -32.917   8.081  27.635  0.00  0.00     0.028 H 
ATOM     41  H17 non d ame     -32.845   8.024  25.857  0.00  0.00     0.028 H 
ATOM     42  H18 non d ame     -31.341   8.056  26.808  0.00  0.00     0.028 H 
ENDBRANCH  33  39
ENDBRANCH   7  33
ENDBRANCH   4   7
ENDBRANCH   1   3
BRANCH   1  43
ATOM     43  C15 non d ame     -32.135  15.038  25.067  0.00  0.00     0.240 C 
ATOM     44  O5  non d ame     -33.164  15.422  24.613  0.00  0.00    -0.271 OA
ATOM     45  N6  non d ame     -31.770  15.381  26.470  0.00  0.00    -0.355 N 
ATOM     46  H46 non d ame     -30.900  15.056  26.868  0.00  0.00     0.162 HD
BRANCH  45  47
ATOM     47  C20 non d ame     -32.688  16.205  27.287  0.00  0.00     0.013 C 
ATOM     48  H30 non d ame     -33.696  16.070  26.896  0.00  0.00     0.072 H 
BRANCH  47  49
ATOM     49  C21 non d ame     -32.284  17.658  27.183  0.00  0.00    -0.038 C 
ATOM     50  H31 non d ame     -32.480  18.090  28.165  0.00  0.00     0.036 H 
ATOM     51  H32 non d ame     -31.270  17.653  26.782  0.00  0.00     0.036 H 
BRANCH  49  52
ATOM     52  C22 non d ame     -33.147  18.450  26.177  0.00  0.00     0.018 C 
ATOM     53  H33 non d ame     -32.503  19.240  25.794  0.00  0.00     0.048 H 
ATOM     54  H34 non d ame     -33.562  17.706  25.495  0.00  0.00     0.048 H 
BRANCH  52  55
ATOM     55  C23 non d ame     -34.365  19.164  26.824  0.00  0.00     0.259 C 
ATOM     56  O7  non d ame     -34.368  20.344  26.965  0.00  0.00    -0.265 OA
BRANCH  55  57
ATOM     57  O8  non d ame     -35.476  18.390  27.262  0.00  0.00    -0.317 OA
BRANCH  57  58
ATOM     58  C29 non d ame     -36.414  18.081  26.227  0.00  0.00     0.052 C 
ATOM     59  H47 non d ame     -37.395  18.319  26.637  0.00  0.00     0.082 H 
ATOM     60  H48 non d ame     -36.054  18.600  25.338  0.00  0.00     0.082 H 
BRANCH  58  61
ATOM     61  C35 non d ame     -36.349  16.553  25.962  0.00  0.00    -0.034 A 
ATOM     62  C30 non d ame     -35.985  15.684  26.986  0.00  0.00    -0.075 A 
ATOM     63  C31 non d ame     -35.927  14.311  26.748  0.00  0.00    -0.082 A 
ATOM     64  H49 non d ame     -35.744  16.077  27.973  0.00  0.00     0.084 H 
ATOM     65  C32 non d ame     -36.232  13.809  25.480  0.00  0.00    -0.083 A 
ATOM     66  H50 non d ame     -35.642  13.632  27.553  0.00  0.00     0.083 H 
ATOM     67  C33 non d ame     -36.592  14.680  24.462  0.00  0.00    -0.082 A 
ATOM     68  H51 non d ame     -36.190  12.737  25.287  0.00  0.00     0.083 H 
ATOM     69  C34 non d ame     -36.653  16.052  24.695  0.00  0.00    -0.075 A 
ATOM     70  H52 non d ame     -36.827  14.285  23.473  0.00  0.00     0.083 H 
ATOM     71  H53 non d ame     -36.938  16.730  23.890  0.00  0.00     0.084 H 
ENDBRANCH  58  61
ENDBRANCH  57  58
ENDBRANCH  55  57
ENDBRANCH  52  55
ENDBRANCH  49  52
ENDBRANCH  47  49
BRANCH  47  72
ATOM     72  C24 non d ame     -32.621  15.760  28.747  0.00  0.00    -0.039 C 
ATOM     73  H35 non d ame     -32.203  16.609  29.289  0.00  0.00     0.036 H 
ATOM     74  H36 non d ame     -33.622  15.400  28.986  0.00  0.00     0.036 H 
BRANCH  72  75
ATOM     75  C25 non d ame     -31.616  14.529  28.946  0.00  0.00    -0.001 C 
ATOM     76  C26 non d ame     -32.461  13.174  29.334  0.00  0.00    -0.035 C 
ATOM     77  C27 non d ame     -31.917  12.624  30.446  0.00  0.00     0.085 C 
ATOM     78  H38 non d ame     -33.470  13.439  29.648  0.00  0.00     0.036 H 
ATOM     79  H39 non d ame     -32.311  12.409  28.572  0.00  0.00     0.036 H 
ATOM     80  N5  non d ame     -30.989  13.655  31.040  0.00  0.00    -0.049 N 
ATOM     81  H40 non d ame     -32.752  12.462  31.129  0.00  0.00     0.075 H 
ATOM     82  H41 non d ame     -31.329  11.776  30.095  0.00  0.00     0.075 H 
ATOM     83  C28 non d ame     -30.767  14.767  29.891  0.00  0.00     0.193 C 
ATOM     84  H42 non d ame     -31.486  14.081  31.808  0.00  0.00     0.280 HD
ATOM     85  H43 non d ame     -30.110  13.185  31.207  0.00  0.00     0.280 HD
ATOM     86  H44 non d ame     -29.840  14.797  29.321  0.00  0.00     0.129 H 
ATOM     87  H37 non d ame     -30.895  14.449  28.133  0.00  0.00     0.046 H 
BRANCH  83  88
ATOM     88  O6  non d ame     -30.922  16.078  30.438  0.00  0.00    -0.369 OA
ATOM     89  H45 non d ame     -30.828  16.729  29.739  0.00  0.00     0.212 HD
ENDBRANCH  83  88
ENDBRANCH  72  75
ENDBRANCH  47  72
ENDBRANCH  45  47
ENDBRANCH   1  43
BRANCH   1  90
ATOM     90  C16 non d ame     -31.128  14.732  22.783  0.00  0.00    -0.035 C 
ATOM     91  H21 non d ame     -31.168  13.864  22.126  0.00  0.00     0.037 H 
ATOM     92  H22 non d ame     -31.916  15.483  22.741  0.00  0.00     0.037 H 
BRANCH  90  93
ATOM     93  C17 non d ame     -29.794  15.473  22.453  0.00  0.00    -0.059 C 
ATOM     94  H23 non d ame     -29.737  16.355  23.091  0.00  0.00     0.038 H 
BRANCH  93  95
ATOM     95  C18 non d ame     -28.540  14.589  22.747  0.00  0.00    -0.073 C 
ATOM     96  H24 non d ame     -28.666  14.089  23.707  0.00  0.00     0.028 H 
ATOM     97  H25 non d ame     -28.429  13.842  21.961  0.00  0.00     0.028 H 
ATOM     98  H26 non d ame     -27.651  15.218  22.778  0.00  0.00     0.028 H 
ENDBRANCH  93  95
BRANCH  93  99
ATOM     99  C19 non d ame     -29.785  15.962  21.001  0.00  0.00    -0.073 C 
ATOM    100  H27 non d ame     -28.759  16.156  20.689  0.00  0.00     0.028 H 
ATOM    101  H28 non d ame     -30.222  15.198  20.358  0.00  0.00     0.028 H 
ATOM    102  H29 non d ame     -30.369  16.879  20.923  0.00  0.00     0.028 H 
ENDBRANCH  93  99
ENDBRANCH  90  93
ENDBRANCH   1  90
TORSDOF 26
ENDMDL
MODEL 11
REMARK VINA RESULT:      -6.7      3.665      6.862
REMARK  26 active torsions:
REMARK  status: ('A' for Active; 'I' for Inactive)
REMARK    1  A    between atoms: C2_2  and  C3_3 
REMARK    2  A    between atoms: C4_6  and  C5_7 
REMARK       I    between atoms: C5_7  and  N2_9 
REMARK    3  A    between atoms: N2_9  and  C6_10 
REMARK    4  A    between atoms: C6_10  and  C7_11 
REMARK    5  A    between atoms: C6_10  and  C8_13 
REMARK       I    between atoms: C7_11  and  N3_14 
REMARK    6  A    between atoms: N3_14  and  C9_15 
REMARK    7  A    between atoms: C9_15  and  C10_16 
REMARK    8  A    between atoms: C9_15  and  C11_18 
REMARK       I    between atoms: C10_16  and  N4_21 
REMARK    9  A    between atoms: C11_18  and  C12_19 
REMARK   10  A    between atoms: C11_18  and  C13_20 
REMARK   11  A    between atoms: N4_21  and  C14_22 
REMARK   12  A    between atoms: C14_22  and  C15_23 
REMARK   13  A    between atoms: C14_22  and  C16_25 
REMARK       I    between atoms: C15_23  and  N6_40 
REMARK   14  A    between atoms: C16_25  and  C17_26 
REMARK   15  A    between atoms: C17_26  and  C18_27 
REMARK   16  A    between atoms: C17_26  and  C19_28 
REMARK   17  A    between atoms: C20_29  and  C21_30 
REMARK   18  A    between atoms: C20_29  and  C24_33 
REMARK   19  A    between atoms: C20_29  and  N6_40 
REMARK   20  A    between atoms: C21_30  and  C22_31 
REMARK   21  A    between atoms: C22_31  and  C23_32 
REMARK   22  A    between atoms: C23_32  and  O8_43 
REMARK   23  A    between atoms: C24_33  and  C25_34 
REMARK   24  A    between atoms: C28_38  and  O6_39 
REMARK   25  A    between atoms: C29_42  and  O8_43 
REMARK   26  A    between atoms: C29_42  and  C35_49 
ROOT
ATOM      1  C14 non d ame     -32.954  10.303  25.454  0.00  0.00     0.089 C 
ATOM      2  H20 non d ame     -33.640  10.378  24.610  0.00  0.00     0.087 H 
ENDROOT
BRANCH   1   3
ATOM      3  N4  non d ame     -32.392   8.960  25.442  0.00  0.00    -0.346 N 
ATOM      4  C10 non d ame     -33.162   7.817  24.829  0.00  0.00     0.241 C 
ATOM      5  O4  non d ame     -34.233   8.001  24.355  0.00  0.00    -0.271 OA
ATOM      6  H19 non d ame     -31.479   8.824  25.853  0.00  0.00     0.163 HD
BRANCH   4   7
ATOM      7  C9  non d ame     -32.562   6.436  24.821  0.00  0.00     0.092 C 
ATOM      8  H11 non d ame     -31.495   6.507  25.036  0.00  0.00     0.088 H 
BRANCH   7   9
ATOM      9  N3  non d ame     -33.167   5.633  25.887  0.00  0.00    -0.346 N 
ATOM     10  C7  non d ame     -32.696   5.764  27.244  0.00  0.00     0.240 C 
ATOM     11  O3  non d ame     -31.830   6.510  27.495  0.00  0.00    -0.271 OA
ATOM     12  H10 non d ame     -33.914   4.984  25.686  0.00  0.00     0.163 HD
BRANCH  10  13
ATOM     13  C6  non d ame     -33.342   4.904  28.374  0.00  0.00     0.086 C 
ATOM     14  H6  non d ame     -32.710   4.827  29.259  0.00  0.00     0.086 H 
BRANCH  13  15
ATOM     15  N2  non d ame     -34.578   5.540  28.801  0.00  0.00    -0.343 N 
ATOM     16  C5  non d ame     -34.937   5.537  30.222  0.00  0.00     0.273 C 
ATOM     17  O2  non d ame     -34.227   5.020  31.011  0.00  0.00    -0.266 OA
ATOM     18  H5  non d ame     -35.181   5.976  28.119  0.00  0.00     0.163 HD
BRANCH  16  19
ATOM     19  C4  non d ame     -36.239   6.207  30.687  0.00  0.00     0.154 A 
ATOM     20  C1  non d ame     -36.527   7.608  30.723  0.00  0.00    -0.017 A 
ATOM     21  C2  non d ame     -37.845   7.696  31.225  0.00  0.00     0.077 A 
ATOM     22  H1  non d ame     -35.879   8.434  30.432  0.00  0.00     0.091 H 
ATOM     23  O1  non d ame     -38.258   6.482  31.444  0.00  0.00    -0.218 OA
ATOM     24  N1  non d ame     -37.338   5.596  31.139  0.00  0.00    -0.123 NA
BRANCH  21  25
ATOM     25  C3  non d ame     -38.635   8.976  31.462  0.00  0.00    -0.029 C 
ATOM     26  H2  non d ame     -39.700   8.774  31.342  0.00  0.00     0.036 H 
ATOM     27  H3  non d ame     -38.447   9.337  32.474  0.00  0.00     0.036 H 
ATOM     28  H4  non d ame     -38.326   9.733  30.743  0.00  0.00     0.036 H 
ENDBRANCH  21  25
ENDBRANCH  16  19
ENDBRANCH  13  15
BRANCH  13  29
ATOM     29  C8  non d ame     -33.627   3.518  27.855  0.00  0.00    -0.049 C 
ATOM     30  H7  non d ame     -32.879   3.247  27.111  0.00  0.00     0.030 H 
ATOM     31  H8  non d ame     -33.591   2.807  28.681  0.00  0.00     0.030 H 
ATOM     32  H9  non d ame     -34.617   3.497  27.399  0.00  0.00     0.030 H 
ENDBRANCH  13  29
ENDBRANCH  10  13
ENDBRANCH   7   9
BRANCH   7  33
ATOM     33  C11 non d ame     -32.836   5.760  23.446  0.00  0.00    -0.033 C 
ATOM     34  H12 non d ame     -33.712   6.244  23.011  0.00  0.00     0.042 H 
BRANCH  33  35
ATOM     35  C12 non d ame     -31.645   5.970  22.460  0.00  0.00    -0.071 C 
ATOM     36  H13 non d ame     -31.537   5.089  21.828  0.00  0.00     0.028 H 
ATOM     37  H14 non d ame     -31.840   6.842  21.836  0.00  0.00     0.028 H 
ATOM     38  H15 non d ame     -30.727   6.126  23.026  0.00  0.00     0.028 H 
ENDBRANCH  33  35
BRANCH  33  39
ATOM     39  C13 non d ame     -33.163   4.242  23.624  0.00  0.00    -0.071 C 
ATOM     40  H16 non d ame     -34.098   4.133  24.173  0.00  0.00     0.028 H 
ATOM     41  H17 non d ame     -33.260   3.773  22.644  0.00  0.00     0.028 H 
ATOM     42  H18 non d ame     -32.358   3.760  24.177  0.00  0.00     0.028 H 
ENDBRANCH  33  39
ENDBRANCH   7  33
ENDBRANCH   4   7
ENDBRANCH   1   3
BRANCH   1  43
ATOM     43  C15 non d ame     -31.789  11.328  25.357  0.00  0.00     0.240 C 
ATOM     44  O5  non d ame     -30.709  11.034  25.755  0.00  0.00    -0.271 OA
ATOM     45  N6  non d ame     -32.018  12.675  24.760  0.00  0.00    -0.355 N 
ATOM     46  H46 non d ame     -32.931  12.934  24.414  0.00  0.00     0.162 HD
BRANCH  45  47
ATOM     47  C20 non d ame     -30.900  13.639  24.674  0.00  0.00     0.013 C 
ATOM     48  H30 non d ame     -30.083  13.261  25.290  0.00  0.00     0.072 H 
BRANCH  47  49
ATOM     49  C21 non d ame     -31.358  14.984  25.192  0.00  0.00    -0.038 C 
ATOM     50  H31 non d ame     -30.503  15.399  25.729  0.00  0.00     0.036 H 
ATOM     51  H32 non d ame     -31.767  15.508  24.329  0.00  0.00     0.036 H 
BRANCH  49  52
ATOM     52  C22 non d ame     -32.505  14.871  26.219  0.00  0.00     0.018 C 
ATOM     53  H33 non d ame     -33.133  15.746  26.057  0.00  0.00     0.048 H 
ATOM     54  H34 non d ame     -32.920  13.871  26.089  0.00  0.00     0.048 H 
BRANCH  52  55
ATOM     55  C23 non d ame     -32.033  14.950  27.697  0.00  0.00     0.259 C 
ATOM     56  O7  non d ame     -31.042  14.393  28.045  0.00  0.00    -0.265 OA
BRANCH  55  57
ATOM     57  O8  non d ame     -32.807  15.685  28.638  0.00  0.00    -0.317 OA
BRANCH  57  58
ATOM     58  C29 non d ame     -32.371  17.035  28.821  0.00  0.00     0.052 C 
ATOM     59  H47 non d ame     -32.700  17.318  29.820  0.00  0.00     0.082 H 
ATOM     60  H48 non d ame     -31.310  17.039  28.574  0.00  0.00     0.082 H 
BRANCH  58  61
ATOM     61  C35 non d ame     -33.118  17.923  27.789  0.00  0.00    -0.034 A 
ATOM     62  C30 non d ame     -32.412  18.851  27.029  0.00  0.00    -0.075 A 
ATOM     63  C31 non d ame     -33.082  19.649  26.103  0.00  0.00    -0.082 A 
ATOM     64  H49 non d ame     -31.335  18.954  27.160  0.00  0.00     0.084 H 
ATOM     65  C32 non d ame     -34.464  19.518  25.939  0.00  0.00    -0.083 A 
ATOM     66  H50 non d ame     -32.526  20.374  25.508  0.00  0.00     0.083 H 
ATOM     67  C33 non d ame     -35.164  18.593  26.702  0.00  0.00    -0.082 A 
ATOM     68  H51 non d ame     -34.995  20.137  25.216  0.00  0.00     0.083 H 
ATOM     69  C34 non d ame     -34.498  17.792  27.627  0.00  0.00    -0.075 A 
ATOM     70  H52 non d ame     -36.242  18.494  26.573  0.00  0.00     0.083 H 
ATOM     71  H53 non d ame     -35.055  17.067  28.221  0.00  0.00     0.084 H 
ENDBRANCH  58  61
ENDBRANCH  57  58
ENDBRANCH  55  57
ENDBRANCH  52  55
ENDBRANCH  49  52
ENDBRANCH  47  49
BRANCH  47  72
ATOM     72  C24 non d ame     -30.448  13.778  23.222  0.00  0.00    -0.039 C 
ATOM     73  H35 non d ame     -29.486  13.268  23.168  0.00  0.00     0.036 H 
ATOM     74  H36 non d ame     -31.287  13.425  22.622  0.00  0.00     0.036 H 
BRANCH  72  75
ATOM     75  C25 non d ame     -30.195  15.309  22.824  0.00  0.00    -0.001 C 
ATOM     76  C26 non d ame     -31.283  15.778  21.684  0.00  0.00    -0.035 C 
ATOM     77  C27 non d ame     -30.616  16.343  20.649  0.00  0.00     0.085 C 
ATOM     78  H38 non d ame     -31.756  14.904  21.236  0.00  0.00     0.036 H 
ATOM     79  H39 non d ame     -31.897  16.593  22.066  0.00  0.00     0.036 H 
ATOM     80  N5  non d ame     -29.156  16.007  20.830  0.00  0.00    -0.049 N 
ATOM     81  H40 non d ame     -30.987  15.842  19.755  0.00  0.00     0.075 H 
ATOM     82  H41 non d ame     -30.750  17.418  20.768  0.00  0.00     0.075 H 
ATOM     83  C28 non d ame     -29.006  15.478  22.349  0.00  0.00     0.193 C 
ATOM     84  H42 non d ame     -28.957  15.241  20.202  0.00  0.00     0.280 HD
ATOM     85  H43 non d ame     -28.649  16.877  20.741  0.00  0.00     0.280 HD
ATOM     86  H44 non d ame     -28.575  16.117  23.118  0.00  0.00     0.129 H 
ATOM     87  H37 non d ame     -30.085  15.950  23.698  0.00  0.00     0.046 H 
BRANCH  83  88
ATOM     88  O6  non d ame     -28.237  14.274  22.378  0.00  0.00    -0.369 OA
ATOM     89  H45 non d ame     -28.455  13.736  21.613  0.00  0.00     0.212 HD
ENDBRANCH  83  88
ENDBRANCH  72  75
ENDBRANCH  47  72
ENDBRANCH  45  47
ENDBRANCH   1  43
BRANCH   1  90
ATOM     90  C16 non d ame     -33.713  10.511  26.755  0.00  0.00    -0.035 C 
ATOM     91  H21 non d ame     -33.834  11.590  26.849  0.00  0.00     0.037 H 
ATOM     92  H22 non d ame     -34.591   9.870  26.682  0.00  0.00     0.037 H 
BRANCH  90  93
ATOM     93  C17 non d ame     -32.928  10.044  28.021  0.00  0.00    -0.059 C 
ATOM     94  H23 non d ame     -32.034   9.521  27.682  0.00  0.00     0.038 H 
BRANCH  93  95
ATOM     95  C18 non d ame     -32.470  11.246  28.907  0.00  0.00    -0.073 C 
ATOM     96  H24 non d ame     -32.269  10.895  29.920  0.00  0.00     0.028 H 
ATOM     97  H25 non d ame     -31.562  11.681  28.488  0.00  0.00     0.028 H 
ATOM     98  H26 non d ame     -33.256  11.999  28.932  0.00  0.00     0.028 H 
ENDBRANCH  93  95
BRANCH  93  99
ATOM     99  C19 non d ame     -33.754   9.048  28.839  0.00  0.00    -0.073 C 
ATOM    100  H27 non d ame     -33.613   8.043  28.439  0.00  0.00     0.028 H 
ATOM    101  H28 non d ame     -33.427   9.072  29.879  0.00  0.00     0.028 H 
ATOM    102  H29 non d ame     -34.808   9.317  28.784  0.00  0.00     0.028 H 
ENDBRANCH  93  99
ENDBRANCH  90  93
ENDBRANCH   1  90
TORSDOF 26
ENDMDL
MODEL 12
REMARK VINA RESULT:      -6.7      2.590      6.561
REMARK  26 active torsions:
REMARK  status: ('A' for Active; 'I' for Inactive)
REMARK    1  A    between atoms: C2_2  and  C3_3 
REMARK    2  A    between atoms: C4_6  and  C5_7 
REMARK       I    between atoms: C5_7  and  N2_9 
REMARK    3  A    between atoms: N2_9  and  C6_10 
REMARK    4  A    between atoms: C6_10  and  C7_11 
REMARK    5  A    between atoms: C6_10  and  C8_13 
REMARK       I    between atoms: C7_11  and  N3_14 
REMARK    6  A    between atoms: N3_14  and  C9_15 
REMARK    7  A    between atoms: C9_15  and  C10_16 
REMARK    8  A    between atoms: C9_15  and  C11_18 
REMARK       I    between atoms: C10_16  and  N4_21 
REMARK    9  A    between atoms: C11_18  and  C12_19 
REMARK   10  A    between atoms: C11_18  and  C13_20 
REMARK   11  A    between atoms: N4_21  and  C14_22 
REMARK   12  A    between atoms: C14_22  and  C15_23 
REMARK   13  A    between atoms: C14_22  and  C16_25 
REMARK       I    between atoms: C15_23  and  N6_40 
REMARK   14  A    between atoms: C16_25  and  C17_26 
REMARK   15  A    between atoms: C17_26  and  C18_27 
REMARK   16  A    between atoms: C17_26  and  C19_28 
REMARK   17  A    between atoms: C20_29  and  C21_30 
REMARK   18  A    between atoms: C20_29  and  C24_33 
REMARK   19  A    between atoms: C20_29  and  N6_40 
REMARK   20  A    between atoms: C21_30  and  C22_31 
REMARK   21  A    between atoms: C22_31  and  C23_32 
REMARK   22  A    between atoms: C23_32  and  O8_43 
REMARK   23  A    between atoms: C24_33  and  C25_34 
REMARK   24  A    between atoms: C28_38  and  O6_39 
REMARK   25  A    between atoms: C29_42  and  O8_43 
REMARK   26  A    between atoms: C29_42  and  C35_49 
ROOT
ATOM      1  C14 non d ame     -32.230   9.597  24.480  0.00  0.00     0.089 C 
ATOM      2  H20 non d ame     -31.820   8.713  24.970  0.00  0.00     0.087 H 
ENDROOT
BRANCH   1   3
ATOM      3  N4  non d ame     -33.582   9.789  24.983  0.00  0.00    -0.346 N 
ATOM      4  C10 non d ame     -34.384   8.613  25.482  0.00  0.00     0.241 C 
ATOM      5  O4  non d ame     -33.922   7.521  25.465  0.00  0.00    -0.271 OA
ATOM      6  H19 non d ame     -33.958  10.727  24.987  0.00  0.00     0.163 HD
BRANCH   4   7
ATOM      7  C9  non d ame     -35.779   8.833  26.005  0.00  0.00     0.092 C 
ATOM      8  H11 non d ame     -36.245   7.867  26.200  0.00  0.00     0.088 H 
BRANCH   7   9
ATOM      9  N3  non d ame     -35.716   9.550  27.282  0.00  0.00    -0.346 N 
ATOM     10  C7  non d ame     -36.183   8.914  28.489  0.00  0.00     0.240 C 
ATOM     11  O3  non d ame     -36.615   7.827  28.451  0.00  0.00    -0.271 OA
ATOM     12  H10 non d ame     -35.348  10.489  27.330  0.00  0.00     0.163 HD
BRANCH  10  13
ATOM     13  C6  non d ame     -36.117   9.684  29.845  0.00  0.00     0.086 C 
ATOM     14  H6  non d ame     -35.893   9.031  30.689  0.00  0.00     0.086 H 
BRANCH  13  15
ATOM     15  N2  non d ame     -35.042  10.661  29.779  0.00  0.00    -0.343 N 
ATOM     16  C5  non d ame     -33.841  10.468  30.595  0.00  0.00     0.273 C 
ATOM     17  O2  non d ame     -33.750   9.525  31.302  0.00  0.00    -0.266 OA
ATOM     18  H5  non d ame     -35.131  11.465  29.175  0.00  0.00     0.163 HD
BRANCH  16  19
ATOM     19  C4  non d ame     -32.697  11.492  30.535  0.00  0.00     0.154 A 
ATOM     20  C1  non d ame     -32.711  12.766  29.883  0.00  0.00    -0.017 A 
ATOM     21  C2  non d ame     -31.429  13.310  30.121  0.00  0.00     0.077 A 
ATOM     22  H1  non d ame     -33.524  13.225  29.321  0.00  0.00     0.091 H 
ATOM     23  O1  non d ame     -30.766  12.444  30.831  0.00  0.00    -0.218 OA
ATOM     24  N1  non d ame     -31.485  11.375  31.083  0.00  0.00    -0.123 NA
BRANCH  21  25
ATOM     25  C3  non d ame     -30.919  14.662  29.639  0.00  0.00    -0.029 C 
ATOM     26  H2  non d ame     -30.836  14.652  28.552  0.00  0.00     0.036 H 
ATOM     27  H3  non d ame     -31.617  15.442  29.942  0.00  0.00     0.036 H 
ATOM     28  H4  non d ame     -29.941  14.858  30.076  0.00  0.00     0.036 H 
ENDBRANCH  21  25
ENDBRANCH  16  19
ENDBRANCH  13  15
BRANCH  13  29
ATOM     29  C8  non d ame     -37.431  10.378  30.098  0.00  0.00    -0.049 C 
ATOM     30  H7  non d ame     -37.280  11.456  30.094  0.00  0.00     0.030 H 
ATOM     31  H8  non d ame     -38.140  10.108  29.314  0.00  0.00     0.030 H 
ATOM     32  H9  non d ame     -37.825  10.069  31.066  0.00  0.00     0.030 H 
ENDBRANCH  13  29
ENDBRANCH  10  13
ENDBRANCH   7   9
BRANCH   7  33
ATOM     33  C11 non d ame     -36.591   9.676  24.979  0.00  0.00    -0.033 C 
ATOM     34  H12 non d ame     -36.032  10.594  24.794  0.00  0.00     0.042 H 
BRANCH  33  35
ATOM     35  C12 non d ame     -36.733   8.931  23.615  0.00  0.00    -0.071 C 
ATOM     36  H13 non d ame     -36.108   8.037  23.622  0.00  0.00     0.028 H 
ATOM     37  H14 non d ame     -37.773   8.645  23.464  0.00  0.00     0.028 H 
ATOM     38  H15 non d ame     -36.415   9.589  22.806  0.00  0.00     0.028 H 
ENDBRANCH  33  35
BRANCH  33  39
ATOM     39  C13 non d ame     -37.988  10.069  25.558  0.00  0.00    -0.071 C 
ATOM     40  H16 non d ame     -38.516   9.169  25.875  0.00  0.00     0.028 H 
ATOM     41  H17 non d ame     -37.854  10.732  26.413  0.00  0.00     0.028 H 
ATOM     42  H18 non d ame     -38.568  10.580  24.791  0.00  0.00     0.028 H 
ENDBRANCH  33  39
ENDBRANCH   7  33
ENDBRANCH   4   7
ENDBRANCH   1   3
BRANCH   1  43
ATOM     43  C15 non d ame     -31.400  10.876  24.785  0.00  0.00     0.240 C 
ATOM     44  O5  non d ame     -30.709  10.915  25.751  0.00  0.00    -0.271 OA
ATOM     45  N6  non d ame     -31.460  12.049  23.869  0.00  0.00    -0.355 N 
ATOM     46  H46 non d ame     -32.040  12.026  23.042  0.00  0.00     0.162 HD
BRANCH  45  47
ATOM     47  C20 non d ame     -30.664  13.259  24.171  0.00  0.00     0.013 C 
ATOM     48  H30 non d ame     -29.990  13.019  24.994  0.00  0.00     0.072 H 
BRANCH  47  49
ATOM     49  C21 non d ame     -31.593  14.381  24.575  0.00  0.00    -0.038 C 
ATOM     50  H31 non d ame     -31.019  15.300  24.442  0.00  0.00     0.036 H 
ATOM     51  H32 non d ame     -32.509  14.224  24.006  0.00  0.00     0.036 H 
BRANCH  49  52
ATOM     52  C22 non d ame     -31.989  14.326  26.066  0.00  0.00     0.018 C 
ATOM     53  H33 non d ame     -31.374  13.541  26.505  0.00  0.00     0.048 H 
ATOM     54  H34 non d ame     -31.907  15.351  26.431  0.00  0.00     0.048 H 
BRANCH  52  55
ATOM     55  C23 non d ame     -33.463  13.901  26.307  0.00  0.00     0.259 C 
ATOM     56  O7  non d ame     -33.796  12.769  26.171  0.00  0.00    -0.265 OA
BRANCH  55  57
ATOM     57  O8  non d ame     -34.420  14.886  26.681  0.00  0.00    -0.317 OA
BRANCH  57  58
ATOM     58  C29 non d ame     -34.034  15.672  27.813  0.00  0.00     0.052 C 
ATOM     59  H47 non d ame     -34.916  15.722  28.451  0.00  0.00     0.082 H 
ATOM     60  H48 non d ame     -33.115  15.220  28.186  0.00  0.00     0.082 H 
BRANCH  58  61
ATOM     61  C35 non d ame     -33.707  17.105  27.313  0.00  0.00    -0.034 A 
ATOM     62  C30 non d ame     -34.342  17.609  26.183  0.00  0.00    -0.075 A 
ATOM     63  C31 non d ame     -34.049  18.897  25.733  0.00  0.00    -0.082 A 
ATOM     64  H49 non d ame     -35.068  16.997  25.648  0.00  0.00     0.084 H 
ATOM     65  C32 non d ame     -33.115  19.679  26.418  0.00  0.00    -0.083 A 
ATOM     66  H50 non d ame     -34.549  19.290  24.848  0.00  0.00     0.083 H 
ATOM     67  C33 non d ame     -32.482  19.169  27.544  0.00  0.00    -0.082 A 
ATOM     68  H51 non d ame     -32.881  20.686  26.074  0.00  0.00     0.083 H 
ATOM     69  C34 non d ame     -32.774  17.885  27.998  0.00  0.00    -0.075 A 
ATOM     70  H52 non d ame     -31.752  19.781  28.075  0.00  0.00     0.083 H 
ATOM     71  H53 non d ame     -32.273  17.492  28.883  0.00  0.00     0.084 H 
ENDBRANCH  58  61
ENDBRANCH  57  58
ENDBRANCH  55  57
ENDBRANCH  52  55
ENDBRANCH  49  52
ENDBRANCH  47  49
BRANCH  47  72
ATOM     72  C24 non d ame     -29.866  13.675  22.937  0.00  0.00    -0.039 C 
ATOM     73  H35 non d ame     -28.852  13.858  23.296  0.00  0.00     0.036 H 
ATOM     74  H36 non d ame     -30.049  12.896  22.198  0.00  0.00     0.036 H 
BRANCH  72  75
ATOM     75  C25 non d ame     -30.405  15.051  22.319  0.00  0.00    -0.001 C 
ATOM     76  C26 non d ame     -31.106  14.771  20.859  0.00  0.00    -0.035 C 
ATOM     77  C27 non d ame     -30.574  15.621  19.949  0.00  0.00     0.085 C 
ATOM     78  H38 non d ame     -30.818  13.787  20.488  0.00  0.00     0.036 H 
ATOM     79  H39 non d ame     -32.158  15.056  20.889  0.00  0.00     0.036 H 
ATOM     80  N5  non d ame     -29.344  16.228  20.579  0.00  0.00    -0.049 N 
ATOM     81  H40 non d ame     -30.270  14.995  19.108  0.00  0.00     0.075 H 
ATOM     82  H41 non d ame     -31.321  16.401  19.806  0.00  0.00     0.075 H 
ATOM     83  C28 non d ame     -29.444  15.898  22.156  0.00  0.00     0.193 C 
ATOM     84  H42 non d ame     -28.551  15.733  20.196  0.00  0.00     0.280 HD
ATOM     85  H43 non d ame     -29.423  17.228  20.454  0.00  0.00     0.280 HD
ATOM     86  H44 non d ame     -29.738  16.670  22.866  0.00  0.00     0.129 H 
ATOM     87  H37 non d ame     -30.977  15.632  23.041  0.00  0.00     0.046 H 
BRANCH  83  88
ATOM     88  O6  non d ame     -28.194  15.395  22.634  0.00  0.00    -0.369 OA
ATOM     89  H45 non d ame     -28.298  14.479  22.899  0.00  0.00     0.212 HD
ENDBRANCH  83  88
ENDBRANCH  72  75
ENDBRANCH  47  72
ENDBRANCH  45  47
ENDBRANCH   1  43
BRANCH   1  90
ATOM     90  C16 non d ame     -32.288   9.371  22.977  0.00  0.00    -0.035 C 
ATOM     91  H21 non d ame     -33.271   8.942  22.787  0.00  0.00     0.037 H 
ATOM     92  H22 non d ame     -32.016  10.327  22.531  0.00  0.00     0.037 H 
BRANCH  90  93
ATOM     93  C17 non d ame     -31.246   8.330  22.459  0.00  0.00    -0.059 C 
ATOM     94  H23 non d ame     -31.636   7.902  21.536  0.00  0.00     0.038 H 
BRANCH  93  95
ATOM     95  C18 non d ame     -29.867   8.988  22.134  0.00  0.00    -0.073 C 
ATOM     96  H24 non d ame     -29.157   8.754  22.927  0.00  0.00     0.028 H 
ATOM     97  H25 non d ame     -29.492   8.598  21.187  0.00  0.00     0.028 H 
ATOM     98  H26 non d ame     -29.987  10.068  22.060  0.00  0.00     0.028 H 
ENDBRANCH  93  95
BRANCH  93  99
ATOM     99  C19 non d ame     -31.079   7.180  23.457  0.00  0.00    -0.073 C 
ATOM    100  H27 non d ame     -30.018   7.019  23.651  0.00  0.00     0.028 H 
ATOM    101  H28 non d ame     -31.583   7.433  24.390  0.00  0.00     0.028 H 
ATOM    102  H29 non d ame     -31.516   6.273  23.042  0.00  0.00     0.028 H 
ENDBRANCH  93  99
ENDBRANCH  90  93
ENDBRANCH   1  90
TORSDOF 26
ENDMDL
MODEL 13
REMARK VINA RESULT:      -6.7      2.241      8.469
REMARK  26 active torsions:
REMARK  status: ('A' for Active; 'I' for Inactive)
REMARK    1  A    between atoms: C2_2  and  C3_3 
REMARK    2  A    between atoms: C4_6  and  C5_7 
REMARK       I    between atoms: C5_7  and  N2_9 
REMARK    3  A    between atoms: N2_9  and  C6_10 
REMARK    4  A    between atoms: C6_10  and  C7_11 
REMARK    5  A    between atoms: C6_10  and  C8_13 
REMARK       I    between atoms: C7_11  and  N3_14 
REMARK    6  A    between atoms: N3_14  and  C9_15 
REMARK    7  A    between atoms: C9_15  and  C10_16 
REMARK    8  A    between atoms: C9_15  and  C11_18 
REMARK       I    between atoms: C10_16  and  N4_21 
REMARK    9  A    between atoms: C11_18  and  C12_19 
REMARK   10  A    between atoms: C11_18  and  C13_20 
REMARK   11  A    between atoms: N4_21  and  C14_22 
REMARK   12  A    between atoms: C14_22  and  C15_23 
REMARK   13  A    between atoms: C14_22  and  C16_25 
REMARK       I    between atoms: C15_23  and  N6_40 
REMARK   14  A    between atoms: C16_25  and  C17_26 
REMARK   15  A    between atoms: C17_26  and  C18_27 
REMARK   16  A    between atoms: C17_26  and  C19_28 
REMARK   17  A    between atoms: C20_29  and  C21_30 
REMARK   18  A    between atoms: C20_29  and  C24_33 
REMARK   19  A    between atoms: C20_29  and  N6_40 
REMARK   20  A    between atoms: C21_30  and  C22_31 
REMARK   21  A    between atoms: C22_31  and  C23_32 
REMARK   22  A    between atoms: C23_32  and  O8_43 
REMARK   23  A    between atoms: C24_33  and  C25_34 
REMARK   24  A    between atoms: C28_38  and  O6_39 
REMARK   25  A    between atoms: C29_42  and  O8_43 
REMARK   26  A    between atoms: C29_42  and  C35_49 
ROOT
ATOM      1  C14 non d ame     -37.562  13.748  25.235  0.00  0.00     0.089 C 
ATOM      2  H20 non d ame     -38.568  13.820  25.648  0.00  0.00     0.087 H 
ENDROOT
BRANCH   1   3
ATOM      3  N4  non d ame     -36.990  15.086  25.240  0.00  0.00    -0.346 N 
ATOM      4  C10 non d ame     -37.433  16.100  26.265  0.00  0.00     0.241 C 
ATOM      5  O4  non d ame     -38.254  15.817  27.073  0.00  0.00    -0.271 OA
ATOM      6  H19 non d ame     -36.293  15.307  24.543  0.00  0.00     0.163 HD
BRANCH   4   7
ATOM      7  C9  non d ame     -36.825  17.478  26.259  0.00  0.00     0.092 C 
ATOM      8  H11 non d ame     -37.269  18.069  27.061  0.00  0.00     0.088 H 
BRANCH   7   9
ATOM      9  N3  non d ame     -35.390  17.381  26.537  0.00  0.00    -0.346 N 
ATOM     10  C7  non d ame     -34.822  18.090  27.657  0.00  0.00     0.240 C 
ATOM     11  O3  non d ame     -35.507  18.745  28.345  0.00  0.00    -0.271 OA
ATOM     12  H10 non d ame     -34.786  16.821  25.951  0.00  0.00     0.163 HD
BRANCH  10  13
ATOM     13  C6  non d ame     -33.292  17.985  27.945  0.00  0.00     0.086 C 
ATOM     14  H6  non d ame     -33.007  18.457  28.886  0.00  0.00     0.086 H 
BRANCH  13  15
ATOM     15  N2  non d ame     -32.929  16.582  28.057  0.00  0.00    -0.343 N 
ATOM     16  C5  non d ame     -32.104  16.138  29.183  0.00  0.00     0.273 C 
ATOM     17  O2  non d ame     -31.736  16.917  29.992  0.00  0.00    -0.266 OA
ATOM     18  H5  non d ame     -33.245  15.924  27.359  0.00  0.00     0.163 HD
BRANCH  16  19
ATOM     19  C4  non d ame     -31.714  14.658  29.314  0.00  0.00     0.154 A 
ATOM     20  C1  non d ame     -32.515  13.595  29.841  0.00  0.00    -0.017 A 
ATOM     21  C2  non d ame     -31.704  12.443  29.739  0.00  0.00     0.077 A 
ATOM     22  H1  non d ame     -33.529  13.652  30.237  0.00  0.00     0.091 H 
ATOM     23  O1  non d ame     -30.573  12.811  29.212  0.00  0.00    -0.218 OA
ATOM     24  N1  non d ame     -30.555  14.099  28.956  0.00  0.00    -0.123 NA
BRANCH  21  25
ATOM     25  C3  non d ame     -32.085  11.032  30.167  0.00  0.00    -0.029 C 
ATOM     26  H2  non d ame     -32.217  10.408  29.283  0.00  0.00     0.036 H 
ATOM     27  H3  non d ame     -31.293  10.615  30.789  0.00  0.00     0.036 H 
ATOM     28  H4  non d ame     -33.015  11.062  30.733  0.00  0.00     0.036 H 
ENDBRANCH  21  25
ENDBRANCH  16  19
ENDBRANCH  13  15
BRANCH  13  29
ATOM     29  C8  non d ame     -32.521  18.631  26.822  0.00  0.00    -0.049 C 
ATOM     30  H7  non d ame     -33.110  18.590  25.906  0.00  0.00     0.030 H 
ATOM     31  H8  non d ame     -32.314  19.671  27.075  0.00  0.00     0.030 H 
ATOM     32  H9  non d ame     -31.581  18.099  26.674  0.00  0.00     0.030 H 
ENDBRANCH  13  29
ENDBRANCH  10  13
ENDBRANCH   7   9
BRANCH   7  33
ATOM     33  C11 non d ame     -37.039  18.132  24.863  0.00  0.00    -0.033 C 
ATOM     34  H12 non d ame     -36.503  17.527  24.132  0.00  0.00     0.042 H 
BRANCH  33  35
ATOM     35  C12 non d ame     -38.546  18.133  24.459  0.00  0.00    -0.071 C 
ATOM     36  H13 non d ame     -38.679  17.546  23.550  0.00  0.00     0.028 H 
ATOM     37  H14 non d ame     -39.137  17.696  25.263  0.00  0.00     0.028 H 
ATOM     38  H15 non d ame     -38.874  19.157  24.281  0.00  0.00     0.028 H 
ENDBRANCH  33  35
BRANCH  33  39
ATOM     39  C13 non d ame     -36.441  19.576  24.825  0.00  0.00    -0.071 C 
ATOM     40  H16 non d ame     -36.382  19.918  23.792  0.00  0.00     0.028 H 
ATOM     41  H17 non d ame     -37.082  20.250  25.395  0.00  0.00     0.028 H 
ATOM     42  H18 non d ame     -35.444  19.568  25.264  0.00  0.00     0.028 H 
ENDBRANCH  33  39
ENDBRANCH   7  33
ENDBRANCH   4   7
ENDBRANCH   1   3
BRANCH   1  43
ATOM     43  C15 non d ame     -36.646  12.814  26.075  0.00  0.00     0.240 C 
ATOM     44  O5  non d ame     -36.831  12.701  27.244  0.00  0.00    -0.271 OA
ATOM     45  N6  non d ame     -35.545  12.051  25.423  0.00  0.00    -0.355 N 
ATOM     46  H46 non d ame     -35.382  12.135  24.429  0.00  0.00     0.162 HD
BRANCH  45  47
ATOM     47  C20 non d ame     -34.683  11.165  26.235  0.00  0.00     0.013 C 
ATOM     48  H30 non d ame     -35.285  10.773  27.056  0.00  0.00     0.072 H 
BRANCH  47  49
ATOM     49  C21 non d ame     -33.521  11.962  26.782  0.00  0.00    -0.038 C 
ATOM     50  H31 non d ame     -33.958  12.686  27.471  0.00  0.00     0.036 H 
ATOM     51  H32 non d ame     -32.805  11.226  27.147  0.00  0.00     0.036 H 
BRANCH  49  52
ATOM     52  C22 non d ame     -32.791  12.780  25.695  0.00  0.00     0.018 C 
ATOM     53  H33 non d ame     -31.727  12.626  25.874  0.00  0.00     0.048 H 
ATOM     54  H34 non d ame     -33.233  12.471  24.747  0.00  0.00     0.048 H 
BRANCH  52  55
ATOM     55  C23 non d ame     -33.027  14.312  25.800  0.00  0.00     0.259 C 
ATOM     56  O7  non d ame     -34.102  14.740  26.067  0.00  0.00    -0.265 OA
BRANCH  55  57
ATOM     57  O8  non d ame     -31.943  15.202  25.558  0.00  0.00    -0.317 OA
BRANCH  57  58
ATOM     58  C29 non d ame     -30.750  14.556  25.103  0.00  0.00     0.052 C 
ATOM     59  H47 non d ame     -29.931  15.051  25.622  0.00  0.00     0.082 H 
ATOM     60  H48 non d ame     -30.921  13.489  25.243  0.00  0.00     0.082 H 
BRANCH  58  61
ATOM     61  C35 non d ame     -30.606  14.834  23.582  0.00  0.00    -0.034 A 
ATOM     62  C30 non d ame     -29.914  13.937  22.773  0.00  0.00    -0.075 A 
ATOM     63  C31 non d ame     -29.784  14.186  21.407  0.00  0.00    -0.082 A 
ATOM     64  H49 non d ame     -29.474  13.040  23.209  0.00  0.00     0.084 H 
ATOM     65  C32 non d ame     -30.346  15.338  20.852  0.00  0.00    -0.083 A 
ATOM     66  H50 non d ame     -29.243  13.480  20.776  0.00  0.00     0.083 H 
ATOM     67  C33 non d ame     -31.032  16.232  21.663  0.00  0.00    -0.082 A 
ATOM     68  H51 non d ame     -30.249  15.540  19.785  0.00  0.00     0.083 H 
ATOM     69  C34 non d ame     -31.166  15.986  23.028  0.00  0.00    -0.075 A 
ATOM     70  H52 non d ame     -31.468  17.131  21.227  0.00  0.00     0.083 H 
ATOM     71  H53 non d ame     -31.708  16.692  23.658  0.00  0.00     0.084 H 
ENDBRANCH  58  61
ENDBRANCH  57  58
ENDBRANCH  55  57
ENDBRANCH  52  55
ENDBRANCH  49  52
ENDBRANCH  47  49
BRANCH  47  72
ATOM     72  C24 non d ame     -34.157  10.021  25.371  0.00  0.00    -0.039 C 
ATOM     73  H35 non d ame     -34.838   9.963  24.522  0.00  0.00     0.036 H 
ATOM     74  H36 non d ame     -33.102  10.243  25.209  0.00  0.00     0.036 H 
BRANCH  72  75
ATOM     75  C25 non d ame     -34.232   8.616  26.137  0.00  0.00    -0.001 C 
ATOM     76  C26 non d ame     -35.024   8.800  27.565  0.00  0.00    -0.035 C 
ATOM     77  C27 non d ame     -34.267   8.270  28.556  0.00  0.00     0.085 C 
ATOM     78  H38 non d ame     -35.084   9.856  27.827  0.00  0.00     0.036 H 
ATOM     79  H39 non d ame     -35.924   8.184  27.576  0.00  0.00     0.036 H 
ATOM     80  N5  non d ame     -32.891   8.037  27.982  0.00  0.00    -0.049 N 
ATOM     81  H40 non d ame     -34.207   9.043  29.322  0.00  0.00     0.075 H 
ATOM     82  H41 non d ame     -34.723   7.307  28.787  0.00  0.00     0.075 H 
ATOM     83  C28 non d ame     -33.052   8.152  26.380  0.00  0.00     0.193 C 
ATOM     84  H42 non d ame     -32.313   8.801  28.303  0.00  0.00     0.280 HD
ATOM     85  H43 non d ame     -32.642   7.085  28.213  0.00  0.00     0.280 HD
ATOM     86  H44 non d ame     -33.059   7.258  25.758  0.00  0.00     0.129 H 
ATOM     87  H37 non d ame     -34.565   7.808  25.485  0.00  0.00     0.046 H 
BRANCH  83  88
ATOM     88  O6  non d ame     -32.023   8.984  25.839  0.00  0.00    -0.369 OA
ATOM     89  H45 non d ame     -32.345   9.885  25.769  0.00  0.00     0.212 HD
ENDBRANCH  83  88
ENDBRANCH  72  75
ENDBRANCH  47  72
ENDBRANCH  45  47
ENDBRANCH   1  43
BRANCH   1  90
ATOM     90  C16 non d ame     -37.629  13.243  23.802  0.00  0.00    -0.035 C 
ATOM     91  H21 non d ame     -36.693  13.555  23.341  0.00  0.00     0.037 H 
ATOM     92  H22 non d ame     -37.871  12.184  23.880  0.00  0.00     0.037 H 
BRANCH  90  93
ATOM     93  C17 non d ame     -38.772  13.896  22.960  0.00  0.00    -0.059 C 
ATOM     94  H23 non d ame     -39.359  14.524  23.630  0.00  0.00     0.038 H 
BRANCH  93  95
ATOM     95  C18 non d ame     -38.216  14.805  21.818  0.00  0.00    -0.073 C 
ATOM     96  H24 non d ame     -38.702  15.780  21.860  0.00  0.00     0.028 H 
ATOM     97  H25 non d ame     -37.141  14.931  21.944  0.00  0.00     0.028 H 
ATOM     98  H26 non d ame     -38.416  14.340  20.853  0.00  0.00     0.028 H 
ENDBRANCH  93  95
BRANCH  93  99
ATOM     99  C19 non d ame     -39.714  12.829  22.397  0.00  0.00    -0.073 C 
ATOM    100  H27 non d ame     -40.247  13.232  21.536  0.00  0.00     0.028 H 
ATOM    101  H28 non d ame     -39.134  11.958  22.089  0.00  0.00     0.028 H 
ATOM    102  H29 non d ame     -40.430  12.535  23.164  0.00  0.00     0.028 H 
ENDBRANCH  93  99
ENDBRANCH  90  93
ENDBRANCH   1  90
TORSDOF 26
ENDMDL
MODEL 14
REMARK VINA RESULT:      -6.6      4.041      8.785
REMARK  26 active torsions:
REMARK  status: ('A' for Active; 'I' for Inactive)
REMARK    1  A    between atoms: C2_2  and  C3_3 
REMARK    2  A    between atoms: C4_6  and  C5_7 
REMARK       I    between atoms: C5_7  and  N2_9 
REMARK    3  A    between atoms: N2_9  and  C6_10 
REMARK    4  A    between atoms: C6_10  and  C7_11 
REMARK    5  A    between atoms: C6_10  and  C8_13 
REMARK       I    between atoms: C7_11  and  N3_14 
REMARK    6  A    between atoms: N3_14  and  C9_15 
REMARK    7  A    between atoms: C9_15  and  C10_16 
REMARK    8  A    between atoms: C9_15  and  C11_18 
REMARK       I    between atoms: C10_16  and  N4_21 
REMARK    9  A    between atoms: C11_18  and  C12_19 
REMARK   10  A    between atoms: C11_18  and  C13_20 
REMARK   11  A    between atoms: N4_21  and  C14_22 
REMARK   12  A    between atoms: C14_22  and  C15_23 
REMARK   13  A    between atoms: C14_22  and  C16_25 
REMARK       I    between atoms: C15_23  and  N6_40 
REMARK   14  A    between atoms: C16_25  and  C17_26 
REMARK   15  A    between atoms: C17_26  and  C18_27 
REMARK   16  A    between atoms: C17_26  and  C19_28 
REMARK   17  A    between atoms: C20_29  and  C21_30 
REMARK   18  A    between atoms: C20_29  and  C24_33 
REMARK   19  A    between atoms: C20_29  and  N6_40 
REMARK   20  A    between atoms: C21_30  and  C22_31 
REMARK   21  A    between atoms: C22_31  and  C23_32 
REMARK   22  A    between atoms: C23_32  and  O8_43 
REMARK   23  A    between atoms: C24_33  and  C25_34 
REMARK   24  A    between atoms: C28_38  and  O6_39 
REMARK   25  A    between atoms: C29_42  and  O8_43 
REMARK   26  A    between atoms: C29_42  and  C35_49 
ROOT
ATOM      1  C14 non d ame     -35.890   9.054  25.707  0.00  0.00     0.089 C 
ATOM      2  H20 non d ame     -36.955   8.871  25.563  0.00  0.00     0.087 H 
ENDROOT
BRANCH   1   3
ATOM      3  N4  non d ame     -35.589   8.803  27.108  0.00  0.00    -0.346 N 
ATOM      4  C10 non d ame     -36.681   8.382  28.059  0.00  0.00     0.241 C 
ATOM      5  O4  non d ame     -37.796   8.257  27.674  0.00  0.00    -0.271 OA
ATOM      6  H19 non d ame     -34.633   8.917  27.416  0.00  0.00     0.163 HD
BRANCH   4   7
ATOM      7  C9  non d ame     -36.349   8.120  29.504  0.00  0.00     0.092 C 
ATOM      8  H11 non d ame     -35.564   7.366  29.561  0.00  0.00     0.088 H 
BRANCH   7   9
ATOM      9  N3  non d ame     -35.821   9.343  30.115  0.00  0.00    -0.346 N 
ATOM     10  C7  non d ame     -34.794   9.259  31.124  0.00  0.00     0.240 C 
ATOM     11  O3  non d ame     -34.382   8.215  31.457  0.00  0.00    -0.271 OA
ATOM     12  H10 non d ame     -36.167  10.250  29.839  0.00  0.00     0.163 HD
BRANCH  10  13
ATOM     13  C6  non d ame     -34.237  10.564  31.772  0.00  0.00     0.086 C 
ATOM     14  H6  non d ame     -33.332  10.393  32.355  0.00  0.00     0.086 H 
BRANCH  13  15
ATOM     15  N2  non d ame     -33.881  11.499  30.718  0.00  0.00    -0.343 N 
ATOM     16  C5  non d ame     -32.485  11.919  30.567  0.00  0.00     0.273 C 
ATOM     17  O2  non d ame     -31.658  11.501  31.300  0.00  0.00    -0.266 OA
ATOM     18  H5  non d ame     -34.595  11.855  30.098  0.00  0.00     0.163 HD
BRANCH  16  19
ATOM     19  C4  non d ame     -32.094  12.905  29.456  0.00  0.00     0.154 A 
ATOM     20  C1  non d ame     -32.817  14.067  29.037  0.00  0.00    -0.017 A 
ATOM     21  C2  non d ame     -32.041  14.622  27.994  0.00  0.00     0.077 A 
ATOM     22  H1  non d ame     -33.760  14.449  29.428  0.00  0.00     0.091 H 
ATOM     23  O1  non d ame     -30.996  13.861  27.842  0.00  0.00    -0.218 OA
ATOM     24  N1  non d ame     -31.006  12.853  28.683  0.00  0.00    -0.123 NA
BRANCH  21  25
ATOM     25  C3  non d ame     -32.368  15.878  27.198  0.00  0.00    -0.029 C 
ATOM     26  H2  non d ame     -31.542  16.585  27.279  0.00  0.00     0.036 H 
ATOM     27  H3  non d ame     -32.519  15.616  26.151  0.00  0.00     0.036 H 
ATOM     28  H4  non d ame     -33.275  16.333  27.593  0.00  0.00     0.036 H 
ENDBRANCH  21  25
ENDBRANCH  16  19
ENDBRANCH  13  15
BRANCH  13  29
ATOM     29  C8  non d ame     -35.287  11.172  32.668  0.00  0.00    -0.049 C 
ATOM     30  H7  non d ame     -36.272  11.025  32.225  0.00  0.00     0.030 H 
ATOM     31  H8  non d ame     -35.254  10.689  33.645  0.00  0.00     0.030 H 
ATOM     32  H9  non d ame     -35.095  12.238  32.782  0.00  0.00     0.030 H 
ENDBRANCH  13  29
ENDBRANCH  10  13
ENDBRANCH   7   9
BRANCH   7  33
ATOM     33  C11 non d ame     -37.637   7.681  30.260  0.00  0.00    -0.033 C 
ATOM     34  H12 non d ame     -38.407   7.488  29.512  0.00  0.00     0.042 H 
BRANCH  33  35
ATOM     35  C12 non d ame     -37.409   6.354  31.051  0.00  0.00    -0.071 C 
ATOM     36  H13 non d ame     -36.438   5.936  30.786  0.00  0.00     0.028 H 
ATOM     37  H14 non d ame     -37.437   6.561  32.120  0.00  0.00     0.028 H 
ATOM     38  H15 non d ame     -38.193   5.640  30.797  0.00  0.00     0.028 H 
ENDBRANCH  33  35
BRANCH  33  39
ATOM     39  C13 non d ame     -38.151   8.819  31.199  0.00  0.00    -0.071 C 
ATOM     40  H16 non d ame     -39.240   8.801  31.231  0.00  0.00     0.028 H 
ATOM     41  H17 non d ame     -37.755   8.667  32.205  0.00  0.00     0.028 H 
ATOM     42  H18 non d ame     -37.813   9.783  30.820  0.00  0.00     0.028 H 
ENDBRANCH  33  39
ENDBRANCH   7  33
ENDBRANCH   4   7
ENDBRANCH   1   3
BRANCH   1  43
ATOM     43  C15 non d ame     -35.009   8.116  24.834  0.00  0.00     0.240 C 
ATOM     44  O5  non d ame     -35.484   7.139  24.352  0.00  0.00    -0.271 OA
ATOM     45  N6  non d ame     -33.575   8.441  24.590  0.00  0.00    -0.355 N 
ATOM     46  H46 non d ame     -33.162   9.271  24.990  0.00  0.00     0.162 HD
BRANCH  45  47
ATOM     47  C20 non d ame     -32.750   7.540  23.756  0.00  0.00     0.013 C 
ATOM     48  H30 non d ame     -33.412   6.797  23.310  0.00  0.00     0.072 H 
BRANCH  47  49
ATOM     49  C21 non d ame     -31.719   6.857  24.626  0.00  0.00    -0.038 C 
ATOM     50  H31 non d ame     -31.060   6.324  23.939  0.00  0.00     0.036 H 
ATOM     51  H32 non d ame     -31.318   7.636  25.273  0.00  0.00     0.036 H 
BRANCH  49  52
ATOM     52  C22 non d ame     -32.333   5.789  25.557  0.00  0.00     0.018 C 
ATOM     53  H33 non d ame     -33.359   5.656  25.218  0.00  0.00     0.048 H 
ATOM     54  H34 non d ame     -31.639   4.947  25.537  0.00  0.00     0.048 H 
BRANCH  52  55
ATOM     55  C23 non d ame     -32.426   6.232  27.043  0.00  0.00     0.259 C 
ATOM     56  O7  non d ame     -32.555   7.380  27.324  0.00  0.00    -0.265 OA
BRANCH  55  57
ATOM     57  O8  non d ame     -32.342   5.251  28.070  0.00  0.00    -0.317 OA
BRANCH  57  58
ATOM     58  C29 non d ame     -33.606   4.890  28.635  0.00  0.00     0.052 C 
ATOM     59  H47 non d ame     -34.167   5.820  28.719  0.00  0.00     0.082 H 
ATOM     60  H48 non d ame     -33.985   4.078  28.015  0.00  0.00     0.082 H 
BRANCH  58  61
ATOM     61  C35 non d ame     -33.352   4.339  30.064  0.00  0.00    -0.034 A 
ATOM     62  C30 non d ame     -34.160   4.747  31.121  0.00  0.00    -0.075 A 
ATOM     63  C31 non d ame     -33.931   4.252  32.405  0.00  0.00    -0.082 A 
ATOM     64  H49 non d ame     -34.969   5.454  30.945  0.00  0.00     0.084 H 
ATOM     65  C32 non d ame     -32.890   3.347  32.629  0.00  0.00    -0.083 A 
ATOM     66  H50 non d ame     -34.567   4.573  33.231  0.00  0.00     0.083 H 
ATOM     67  C33 non d ame     -32.086   2.946  31.572  0.00  0.00    -0.082 A 
ATOM     68  H51 non d ame     -32.706   2.955  33.629  0.00  0.00     0.083 H 
ATOM     69  C34 non d ame     -32.311   3.436  30.287  0.00  0.00    -0.075 A 
ATOM     70  H52 non d ame     -31.272   2.241  31.750  0.00  0.00     0.083 H 
ATOM     71  H53 non d ame     -31.675   3.115  29.461  0.00  0.00     0.084 H 
ENDBRANCH  58  61
ENDBRANCH  57  58
ENDBRANCH  55  57
ENDBRANCH  52  55
ENDBRANCH  49  52
ENDBRANCH  47  49
BRANCH  47  72
ATOM     72  C24 non d ame     -32.045   8.345  22.666  0.00  0.00    -0.039 C 
ATOM     73  H35 non d ame     -31.679   7.606  21.952  0.00  0.00     0.036 H 
ATOM     74  H36 non d ame     -32.767   9.097  22.349  0.00  0.00     0.036 H 
BRANCH  72  75
ATOM     75  C25 non d ame     -30.769   9.126  23.238  0.00  0.00    -0.001 C 
ATOM     76  C26 non d ame     -31.167  10.688  23.559  0.00  0.00    -0.035 C 
ATOM     77  C27 non d ame     -30.264  11.501  22.960  0.00  0.00     0.085 C 
ATOM     78  H38 non d ame     -32.106  10.944  23.067  0.00  0.00     0.036 H 
ATOM     79  H39 non d ame     -31.033  10.897  24.621  0.00  0.00     0.036 H 
ATOM     80  N5  non d ame     -29.479  10.650  21.991  0.00  0.00    -0.049 N 
ATOM     81  H40 non d ame     -30.852  12.227  22.399  0.00  0.00     0.075 H 
ATOM     82  H41 non d ame     -29.600  11.836  23.757  0.00  0.00     0.075 H 
ATOM     83  C28 non d ame     -29.796   9.117  22.387  0.00  0.00     0.193 C 
ATOM     84  H42 non d ame     -29.863  10.831  21.075  0.00  0.00     0.280 HD
ATOM     85  H43 non d ame     -28.503  10.834  22.175  0.00  0.00     0.280 HD
ATOM     86  H44 non d ame     -29.064   8.523  22.931  0.00  0.00     0.129 H 
ATOM     87  H37 non d ame     -30.264   8.570  24.027  0.00  0.00     0.046 H 
BRANCH  83  88
ATOM     88  O6  non d ame     -30.110   8.360  21.217  0.00  0.00    -0.369 OA
ATOM     89  H45 non d ame     -31.049   8.160  21.207  0.00  0.00     0.212 HD
ENDBRANCH  83  88
ENDBRANCH  72  75
ENDBRANCH  47  72
ENDBRANCH  45  47
ENDBRANCH   1  43
BRANCH   1  90
ATOM     90  C16 non d ame     -35.569  10.505  25.383  0.00  0.00    -0.035 C 
ATOM     91  H21 non d ame     -34.836  10.466  24.578  0.00  0.00     0.037 H 
ATOM     92  H22 non d ame     -36.533  10.984  25.220  0.00  0.00     0.037 H 
BRANCH  90  93
ATOM     93  C17 non d ame     -34.887  11.274  26.560  0.00  0.00    -0.059 C 
ATOM     94  H23 non d ame     -34.913  10.627  27.437  0.00  0.00     0.038 H 
BRANCH  93  95
ATOM     95  C18 non d ame     -33.392  11.609  26.257  0.00  0.00    -0.073 C 
ATOM     96  H24 non d ame     -32.947  12.100  27.122  0.00  0.00     0.028 H 
ATOM     97  H25 non d ame     -32.849  10.687  26.046  0.00  0.00     0.028 H 
ATOM     98  H26 non d ame     -33.335  12.270  25.394  0.00  0.00     0.028 H 
ENDBRANCH  93  95
BRANCH  93  99
ATOM     99  C19 non d ame     -35.669  12.543  26.909  0.00  0.00    -0.073 C 
ATOM    100  H27 non d ame     -35.307  13.372  26.301  0.00  0.00     0.028 H 
ATOM    101  H28 non d ame     -36.729  12.384  26.709  0.00  0.00     0.028 H 
ATOM    102  H29 non d ame     -35.531  12.777  27.964  0.00  0.00     0.028 H 
ENDBRANCH  93  99
ENDBRANCH  90  93
ENDBRANCH   1  90
TORSDOF 26
ENDMDL
MODEL 15
REMARK VINA RESULT:      -6.6      3.725      7.685
REMARK  26 active torsions:
REMARK  status: ('A' for Active; 'I' for Inactive)
REMARK    1  A    between atoms: C2_2  and  C3_3 
REMARK    2  A    between atoms: C4_6  and  C5_7 
REMARK       I    between atoms: C5_7  and  N2_9 
REMARK    3  A    between atoms: N2_9  and  C6_10 
REMARK    4  A    between atoms: C6_10  and  C7_11 
REMARK    5  A    between atoms: C6_10  and  C8_13 
REMARK       I    between atoms: C7_11  and  N3_14 
REMARK    6  A    between atoms: N3_14  and  C9_15 
REMARK    7  A    between atoms: C9_15  and  C10_16 
REMARK    8  A    between atoms: C9_15  and  C11_18 
REMARK       I    between atoms: C10_16  and  N4_21 
REMARK    9  A    between atoms: C11_18  and  C12_19 
REMARK   10  A    between atoms: C11_18  and  C13_20 
REMARK   11  A    between atoms: N4_21  and  C14_22 
REMARK   12  A    between atoms: C14_22  and  C15_23 
REMARK   13  A    between atoms: C14_22  and  C16_25 
REMARK       I    between atoms: C15_23  and  N6_40 
REMARK   14  A    between atoms: C16_25  and  C17_26 
REMARK   15  A    between atoms: C17_26  and  C18_27 
REMARK   16  A    between atoms: C17_26  and  C19_28 
REMARK   17  A    between atoms: C20_29  and  C21_30 
REMARK   18  A    between atoms: C20_29  and  C24_33 
REMARK   19  A    between atoms: C20_29  and  N6_40 
REMARK   20  A    between atoms: C21_30  and  C22_31 
REMARK   21  A    between atoms: C22_31  and  C23_32 
REMARK   22  A    between atoms: C23_32  and  O8_43 
REMARK   23  A    between atoms: C24_33  and  C25_34 
REMARK   24  A    between atoms: C28_38  and  O6_39 
REMARK   25  A    between atoms: C29_42  and  O8_43 
REMARK   26  A    between atoms: C29_42  and  C35_49 
ROOT
ATOM      1  C14 non d ame     -31.542   7.086  23.485  0.00  0.00     0.089 C 
ATOM      2  H20 non d ame     -30.583   6.915  23.975  0.00  0.00     0.087 H 
ENDROOT
BRANCH   1   3
ATOM      3  N4  non d ame     -32.467   6.072  23.968  0.00  0.00    -0.346 N 
ATOM      4  C10 non d ame     -32.492   5.696  25.428  0.00  0.00     0.241 C 
ATOM      5  O4  non d ame     -31.754   6.221  26.195  0.00  0.00    -0.271 OA
ATOM      6  H19 non d ame     -33.085   5.636  23.298  0.00  0.00     0.163 HD
BRANCH   4   7
ATOM      7  C9  non d ame     -33.460   4.649  25.911  0.00  0.00     0.092 C 
ATOM      8  H11 non d ame     -32.905   3.837  26.382  0.00  0.00     0.088 H 
BRANCH   7   9
ATOM      9  N3  non d ame     -34.336   5.226  26.934  0.00  0.00    -0.346 N 
ATOM     10  C7  non d ame     -34.119   4.919  28.326  0.00  0.00     0.240 C 
ATOM     11  O3  non d ame     -33.245   4.207  28.641  0.00  0.00    -0.271 OA
ATOM     12  H10 non d ame     -35.095   5.840  26.678  0.00  0.00     0.163 HD
BRANCH  10  13
ATOM     13  C6  non d ame     -35.057   5.535  29.410  0.00  0.00     0.086 C 
ATOM     14  H6  non d ame     -34.963   5.042  30.378  0.00  0.00     0.086 H 
BRANCH  13  15
ATOM     15  N2  non d ame     -34.690   6.926  29.615  0.00  0.00    -0.343 N 
ATOM     16  C5  non d ame     -34.776   7.504  30.959  0.00  0.00     0.273 C 
ATOM     17  O2  non d ame     -35.143   6.843  31.866  0.00  0.00    -0.266 OA
ATOM     18  H5  non d ame     -34.381   7.485  28.833  0.00  0.00     0.163 HD
BRANCH  16  19
ATOM     19  C4  non d ame     -34.390   8.973  31.190  0.00  0.00     0.154 A 
ATOM     20  C1  non d ame     -33.615   9.810  30.326  0.00  0.00    -0.017 A 
ATOM     21  C2  non d ame     -33.548  11.056  30.990  0.00  0.00     0.077 A 
ATOM     22  H1  non d ame     -33.168   9.553  29.366  0.00  0.00     0.091 H 
ATOM     23  O1  non d ame     -34.213  10.938  32.102  0.00  0.00    -0.218 OA
ATOM     24  N1  non d ame     -34.713   9.732  32.241  0.00  0.00    -0.123 NA
BRANCH  21  25
ATOM     25  C3  non d ame     -32.832  12.305  30.493  0.00  0.00    -0.029 C 
ATOM     26  H2  non d ame     -33.297  13.188  30.930  0.00  0.00     0.036 H 
ATOM     27  H3  non d ame     -31.784  12.264  30.788  0.00  0.00     0.036 H 
ATOM     28  H4  non d ame     -32.903  12.357  29.407  0.00  0.00     0.036 H 
ENDBRANCH  21  25
ENDBRANCH  16  19
ENDBRANCH  13  15
BRANCH  13  29
ATOM     29  C8  non d ame     -36.491   5.441  28.951  0.00  0.00    -0.049 C 
ATOM     30  H7  non d ame     -37.120   5.134  29.785  0.00  0.00     0.030 H 
ATOM     31  H8  non d ame     -36.819   6.414  28.587  0.00  0.00     0.030 H 
ATOM     32  H9  non d ame     -36.568   4.707  28.148  0.00  0.00     0.030 H 
ENDBRANCH  13  29
ENDBRANCH  10  13
ENDBRANCH   7   9
BRANCH   7  33
ATOM     33  C11 non d ame     -34.322   4.149  24.715  0.00  0.00    -0.033 C 
ATOM     34  H12 non d ame     -34.216   4.875  23.908  0.00  0.00     0.042 H 
BRANCH  33  35
ATOM     35  C12 non d ame     -33.811   2.775  24.179  0.00  0.00    -0.071 C 
ATOM     36  H13 non d ame     -32.825   2.903  23.732  0.00  0.00     0.028 H 
ATOM     37  H14 non d ame     -33.747   2.066  25.004  0.00  0.00     0.028 H 
ATOM     38  H15 non d ame     -34.504   2.398  23.427  0.00  0.00     0.028 H 
ENDBRANCH  33  35
BRANCH  33  39
ATOM     39  C13 non d ame     -35.833   4.079  25.105  0.00  0.00    -0.071 C 
ATOM     40  H16 non d ame     -36.027   3.150  25.642  0.00  0.00     0.028 H 
ATOM     41  H17 non d ame     -36.084   4.927  25.743  0.00  0.00     0.028 H 
ATOM     42  H18 non d ame     -36.443   4.112  24.203  0.00  0.00     0.028 H 
ENDBRANCH  33  39
ENDBRANCH   7  33
ENDBRANCH   4   7
ENDBRANCH   1   3
BRANCH   1  43
ATOM     43  C15 non d ame     -32.128   8.489  23.815  0.00  0.00     0.240 C 
ATOM     44  O5  non d ame     -32.872   9.012  23.050  0.00  0.00    -0.271 OA
ATOM     45  N6  non d ame     -31.768   9.175  25.088  0.00  0.00    -0.355 N 
ATOM     46  H46 non d ame     -31.141   8.737  25.747  0.00  0.00     0.162 HD
BRANCH  45  47
ATOM     47  C20 non d ame     -32.335  10.508  25.388  0.00  0.00     0.013 C 
ATOM     48  H30 non d ame     -32.984  10.791  24.559  0.00  0.00     0.072 H 
BRANCH  47  49
ATOM     49  C21 non d ame     -31.211  11.509  25.529  0.00  0.00    -0.038 C 
ATOM     50  H31 non d ame     -30.305  10.917  25.671  0.00  0.00     0.036 H 
ATOM     51  H32 non d ame     -31.298  12.172  24.669  0.00  0.00     0.036 H 
BRANCH  49  52
ATOM     52  C22 non d ame     -31.352  12.398  26.783  0.00  0.00     0.018 C 
ATOM     53  H33 non d ame     -31.923  11.809  27.499  0.00  0.00     0.048 H 
ATOM     54  H34 non d ame     -30.340  12.724  27.029  0.00  0.00     0.048 H 
BRANCH  52  55
ATOM     55  C23 non d ame     -32.173  13.695  26.542  0.00  0.00     0.259 C 
ATOM     56  O7  non d ame     -32.765  14.209  27.435  0.00  0.00    -0.265 OA
BRANCH  55  57
ATOM     57  O8  non d ame     -32.221  14.257  25.236  0.00  0.00    -0.317 OA
BRANCH  57  58
ATOM     58  C29 non d ame     -31.208  15.235  24.985  0.00  0.00     0.052 C 
ATOM     59  H47 non d ame     -31.682  16.201  25.157  0.00  0.00     0.082 H 
ATOM     60  H48 non d ame     -30.351  14.933  25.587  0.00  0.00     0.082 H 
BRANCH  58  61
ATOM     61  C35 non d ame     -30.812  15.143  23.487  0.00  0.00    -0.034 A 
ATOM     62  C30 non d ame     -31.229  16.126  22.595  0.00  0.00    -0.075 A 
ATOM     63  C31 non d ame     -30.874  16.042  21.249  0.00  0.00    -0.082 A 
ATOM     64  H49 non d ame     -31.834  16.960  22.949  0.00  0.00     0.084 H 
ATOM     65  C32 non d ame     -30.101  14.970  20.796  0.00  0.00    -0.083 A 
ATOM     66  H50 non d ame     -31.201  16.815  20.552  0.00  0.00     0.083 H 
ATOM     67  C33 non d ame     -29.690  13.990  21.690  0.00  0.00    -0.082 A 
ATOM     68  H51 non d ame     -29.818  14.898  19.746  0.00  0.00     0.083 H 
ATOM     69  C34 non d ame     -30.041  14.070  23.036  0.00  0.00    -0.075 A 
ATOM     70  H52 non d ame     -29.089  13.153  21.333  0.00  0.00     0.083 H 
ATOM     71  H53 non d ame     -29.714  13.297  23.731  0.00  0.00     0.084 H 
ENDBRANCH  58  61
ENDBRANCH  57  58
ENDBRANCH  55  57
ENDBRANCH  52  55
ENDBRANCH  49  52
ENDBRANCH  47  49
BRANCH  47  72
ATOM     72  C24 non d ame     -33.132  10.450  26.690  0.00  0.00    -0.039 C 
ATOM     73  H35 non d ame     -32.842   9.511  27.165  0.00  0.00     0.036 H 
ATOM     74  H36 non d ame     -32.937  11.397  27.191  0.00  0.00     0.036 H 
BRANCH  72  75
ATOM     75  C25 non d ame     -34.709  10.375  26.417  0.00  0.00    -0.001 C 
ATOM     76  C26 non d ame     -35.495  11.449  27.381  0.00  0.00    -0.035 C 
ATOM     77  C27 non d ame     -36.494  10.804  28.030  0.00  0.00     0.085 C 
ATOM     78  H38 non d ame     -34.839  11.779  28.186  0.00  0.00     0.036 H 
ATOM     79  H39 non d ame     -36.021  12.184  26.771  0.00  0.00     0.036 H 
ATOM     80  N5  non d ame     -36.254   9.325  27.848  0.00  0.00    -0.049 N 
ATOM     81  H40 non d ame     -36.368  11.057  29.083  0.00  0.00     0.075 H 
ATOM     82  H41 non d ame     -37.408  11.082  27.508  0.00  0.00     0.075 H 
ATOM     83  C28 non d ame     -35.170   9.193  26.660  0.00  0.00     0.193 C 
ATOM     84  H42 non d ame     -35.834   8.995  28.705  0.00  0.00     0.280 HD
ATOM     85  H43 non d ame     -37.129   8.931  27.531  0.00  0.00     0.280 HD
ATOM     86  H44 non d ame     -35.478   8.891  25.660  0.00  0.00     0.129 H 
ATOM     87  H37 non d ame     -34.945  10.397  25.353  0.00  0.00     0.046 H 
BRANCH  83  88
ATOM     88  O6  non d ame     -34.137   8.278  27.034  0.00  0.00    -0.369 OA
ATOM     89  H45 non d ame     -33.759   8.548  27.873  0.00  0.00     0.212 HD
ENDBRANCH  83  88
ENDBRANCH  72  75
ENDBRANCH  47  72
ENDBRANCH  45  47
ENDBRANCH   1  43
BRANCH   1  90
ATOM     90  C16 non d ame     -31.385   6.938  21.980  0.00  0.00    -0.035 C 
ATOM     91  H21 non d ame     -31.577   7.929  21.571  0.00  0.00     0.037 H 
ATOM     92  H22 non d ame     -30.413   6.468  21.836  0.00  0.00     0.037 H 
BRANCH  90  93
ATOM     93  C17 non d ame     -32.438   5.984  21.331  0.00  0.00    -0.059 C 
ATOM     94  H23 non d ame     -33.174   5.734  22.095  0.00  0.00     0.038 H 
BRANCH  93  95
ATOM     95  C18 non d ame     -33.193   6.661  20.143  0.00  0.00    -0.073 C 
ATOM     96  H24 non d ame     -33.844   5.930  19.662  0.00  0.00     0.028 H 
ATOM     97  H25 non d ame     -33.795   7.488  20.520  0.00  0.00     0.028 H 
ATOM     98  H26 non d ame     -32.471   7.037  19.420  0.00  0.00     0.028 H 
ENDBRANCH  93  95
BRANCH  93  99
ATOM     99  C19 non d ame     -31.784   4.673  20.884  0.00  0.00    -0.073 C 
ATOM    100  H27 non d ame     -30.760   4.868  20.563  0.00  0.00     0.028 H 
ATOM    101  H28 non d ame     -31.775   3.969  21.716  0.00  0.00     0.028 H 
ATOM    102  H29 non d ame     -32.351   4.249  20.056  0.00  0.00     0.028 H 
ENDBRANCH  93  99
ENDBRANCH  90  93
ENDBRANCH   1  90
TORSDOF 26
ENDMDL
MODEL 16
REMARK VINA RESULT:      -6.6      3.458      9.008
REMARK  26 active torsions:
REMARK  status: ('A' for Active; 'I' for Inactive)
REMARK    1  A    between atoms: C2_2  and  C3_3 
REMARK    2  A    between atoms: C4_6  and  C5_7 
REMARK       I    between atoms: C5_7  and  N2_9 
REMARK    3  A    between atoms: N2_9  and  C6_10 
REMARK    4  A    between atoms: C6_10  and  C7_11 
REMARK    5  A    between atoms: C6_10  and  C8_13 
REMARK       I    between atoms: C7_11  and  N3_14 
REMARK    6  A    between atoms: N3_14  and  C9_15 
REMARK    7  A    between atoms: C9_15  and  C10_16 
REMARK    8  A    between atoms: C9_15  and  C11_18 
REMARK       I    between atoms: C10_16  and  N4_21 
REMARK    9  A    between atoms: C11_18  and  C12_19 
REMARK   10  A    between atoms: C11_18  and  C13_20 
REMARK   11  A    between atoms: N4_21  and  C14_22 
REMARK   12  A    between atoms: C14_22  and  C15_23 
REMARK   13  A    between atoms: C14_22  and  C16_25 
REMARK       I    between atoms: C15_23  and  N6_40 
REMARK   14  A    between atoms: C16_25  and  C17_26 
REMARK   15  A    between atoms: C17_26  and  C18_27 
REMARK   16  A    between atoms: C17_26  and  C19_28 
REMARK   17  A    between atoms: C20_29  and  C21_30 
REMARK   18  A    between atoms: C20_29  and  C24_33 
REMARK   19  A    between atoms: C20_29  and  N6_40 
REMARK   20  A    between atoms: C21_30  and  C22_31 
REMARK   21  A    between atoms: C22_31  and  C23_32 
REMARK   22  A    between atoms: C23_32  and  O8_43 
REMARK   23  A    between atoms: C24_33  and  C25_34 
REMARK   24  A    between atoms: C28_38  and  O6_39 
REMARK   25  A    between atoms: C29_42  and  O8_43 
REMARK   26  A    between atoms: C29_42  and  C35_49 
ROOT
ATOM      1  C14 non d ame     -35.622   9.121  27.456  0.00  0.00     0.089 C 
ATOM      2  H20 non d ame     -35.498   8.311  28.176  0.00  0.00     0.087 H 
ENDROOT
BRANCH   1   3
ATOM      3  N4  non d ame     -34.666  10.163  27.802  0.00  0.00    -0.346 N 
ATOM      4  C10 non d ame     -33.334   9.804  28.412  0.00  0.00     0.241 C 
ATOM      5  O4  non d ame     -33.055   8.670  28.619  0.00  0.00    -0.271 OA
ATOM      6  H19 non d ame     -34.924  11.123  27.620  0.00  0.00     0.163 HD
BRANCH   4   7
ATOM      7  C9  non d ame     -32.356  10.895  28.758  0.00  0.00     0.092 C 
ATOM      8  H11 non d ame     -31.373  10.633  28.367  0.00  0.00     0.088 H 
BRANCH   7   9
ATOM      9  N3  non d ame     -32.764  12.143  28.106  0.00  0.00    -0.346 N 
ATOM     10  C7  non d ame     -32.003  12.656  26.993  0.00  0.00     0.240 C 
ATOM     11  O3  non d ame     -31.059  12.079  26.611  0.00  0.00    -0.271 OA
ATOM     12  H10 non d ame     -33.574  12.653  28.425  0.00  0.00     0.163 HD
BRANCH  10  13
ATOM     13  C6  non d ame     -32.441  13.987  26.305  0.00  0.00     0.086 C 
ATOM     14  H6  non d ame     -31.981  14.866  26.756  0.00  0.00     0.086 H 
BRANCH  13  15
ATOM     15  N2  non d ame     -32.012  13.961  24.916  0.00  0.00    -0.343 N 
ATOM     16  C5  non d ame     -31.130  15.018  24.413  0.00  0.00     0.273 C 
ATOM     17  O2  non d ame     -30.774  15.884  25.134  0.00  0.00    -0.266 OA
ATOM     18  H5  non d ame     -32.324  13.219  24.306  0.00  0.00     0.163 HD
BRANCH  16  19
ATOM     19  C4  non d ame     -30.668  15.002  22.948  0.00  0.00     0.154 A 
ATOM     20  C1  non d ame     -31.171  15.803  21.874  0.00  0.00    -0.017 A 
ATOM     21  C2  non d ame     -30.419  15.409  20.744  0.00  0.00     0.077 A 
ATOM     22  H1  non d ame     -31.960  16.553  21.909  0.00  0.00     0.091 H 
ATOM     23  O1  non d ame     -29.584  14.492  21.136  0.00  0.00    -0.218 OA
ATOM     24  N1  non d ame     -29.711  14.237  22.417  0.00  0.00    -0.123 NA
BRANCH  21  25
ATOM     25  C3  non d ame     -30.561  15.960  19.331  0.00  0.00    -0.029 C 
ATOM     26  H2  non d ame     -31.086  15.234  18.710  0.00  0.00     0.036 H 
ATOM     27  H3  non d ame     -31.127  16.891  19.359  0.00  0.00     0.036 H 
ATOM     28  H4  non d ame     -29.572  16.147  18.914  0.00  0.00     0.036 H 
ENDBRANCH  21  25
ENDBRANCH  16  19
ENDBRANCH  13  15
BRANCH  13  29
ATOM     29  C8  non d ame     -33.940  14.126  26.380  0.00  0.00    -0.049 C 
ATOM     30  H7  non d ame     -34.195  15.097  26.801  0.00  0.00     0.030 H 
ATOM     31  H8  non d ame     -34.362  14.043  25.378  0.00  0.00     0.030 H 
ATOM     32  H9  non d ame     -34.347  13.336  27.012  0.00  0.00     0.030 H 
ENDBRANCH  13  29
ENDBRANCH  10  13
ENDBRANCH   7   9
BRANCH   7  33
ATOM     33  C11 non d ame     -32.334  11.102  30.300  0.00  0.00    -0.033 C 
ATOM     34  H12 non d ame     -31.901  10.206  30.746  0.00  0.00     0.042 H 
BRANCH  33  35
ATOM     35  C12 non d ame     -31.430  12.309  30.701  0.00  0.00    -0.071 C 
ATOM     36  H13 non d ame     -31.982  13.239  30.563  0.00  0.00     0.028 H 
ATOM     37  H14 non d ame     -31.137  12.212  31.746  0.00  0.00     0.028 H 
ATOM     38  H15 non d ame     -30.539  12.320  30.073  0.00  0.00     0.028 H 
ENDBRANCH  33  35
BRANCH  33  39
ATOM     39  C13 non d ame     -33.783  11.269  30.863  0.00  0.00    -0.071 C 
ATOM     40  H16 non d ame     -33.773  11.122  31.943  0.00  0.00     0.028 H 
ATOM     41  H17 non d ame     -34.148  12.271  30.635  0.00  0.00     0.028 H 
ATOM     42  H18 non d ame     -34.439  10.531  30.402  0.00  0.00     0.028 H 
ENDBRANCH  33  39
ENDBRANCH   7  33
ENDBRANCH   4   7
ENDBRANCH   1   3
BRANCH   1  43
ATOM     43  C15 non d ame     -35.345   8.659  25.997  0.00  0.00     0.240 C 
ATOM     44  O5  non d ame     -36.157   8.854  25.152  0.00  0.00    -0.271 OA
ATOM     45  N6  non d ame     -34.063   7.982  25.652  0.00  0.00    -0.355 N 
ATOM     46  H46 non d ame     -33.363   7.816  26.361  0.00  0.00     0.162 HD
BRANCH  45  47
ATOM     47  C20 non d ame     -33.813   7.551  24.259  0.00  0.00     0.013 C 
ATOM     48  H30 non d ame     -34.339   8.238  23.596  0.00  0.00     0.072 H 
BRANCH  47  49
ATOM     49  C21 non d ame     -34.339   6.146  24.069  0.00  0.00    -0.038 C 
ATOM     50  H31 non d ame     -35.121   6.020  24.820  0.00  0.00     0.036 H 
ATOM     51  H32 non d ame     -34.582   6.063  23.010  0.00  0.00     0.036 H 
BRANCH  49  52
ATOM     52  C22 non d ame     -33.277   5.064  24.360  0.00  0.00     0.018 C 
ATOM     53  H33 non d ame     -33.463   4.267  23.642  0.00  0.00     0.048 H 
ATOM     54  H34 non d ame     -32.318   5.584  24.360  0.00  0.00     0.048 H 
BRANCH  52  55
ATOM     55  C23 non d ame     -33.412   4.415  25.765  0.00  0.00     0.259 C 
ATOM     56  O7  non d ame     -33.676   3.261  25.875  0.00  0.00    -0.265 OA
BRANCH  55  57
ATOM     57  O8  non d ame     -33.232   5.220  26.925  0.00  0.00    -0.317 OA
BRANCH  57  58
ATOM     58  C29 non d ame     -34.384   5.287  27.771  0.00  0.00     0.052 C 
ATOM     59  H47 non d ame     -34.665   6.339  27.804  0.00  0.00     0.082 H 
ATOM     60  H48 non d ame     -35.082   4.548  27.378  0.00  0.00     0.082 H 
BRANCH  58  61
ATOM     61  C35 non d ame     -33.957   4.848  29.197  0.00  0.00    -0.034 A 
ATOM     62  C30 non d ame     -32.867   4.000  29.368  0.00  0.00    -0.075 A 
ATOM     63  C31 non d ame     -32.484   3.606  30.650  0.00  0.00    -0.082 A 
ATOM     64  H49 non d ame     -32.314   3.644  28.499  0.00  0.00     0.084 H 
ATOM     65  C32 non d ame     -33.197   4.061  31.762  0.00  0.00    -0.083 A 
ATOM     66  H50 non d ame     -31.628   2.943  30.780  0.00  0.00     0.083 H 
ATOM     67  C33 non d ame     -34.285   4.904  31.586  0.00  0.00    -0.082 A 
ATOM     68  H51 non d ame     -32.902   3.758  32.767  0.00  0.00     0.083 H 
ATOM     69  C34 non d ame     -34.671   5.302  30.308  0.00  0.00    -0.075 A 
ATOM     70  H52 non d ame     -34.841   5.255  32.456  0.00  0.00     0.083 H 
ATOM     71  H53 non d ame     -35.526   5.965  30.178  0.00  0.00     0.084 H 
ENDBRANCH  58  61
ENDBRANCH  57  58
ENDBRANCH  55  57
ENDBRANCH  52  55
ENDBRANCH  49  52
ENDBRANCH  47  49
BRANCH  47  72
ATOM     72  C24 non d ame     -32.314   7.578  23.970  0.00  0.00    -0.039 C 
ATOM     73  H35 non d ame     -31.832   7.648  24.946  0.00  0.00     0.036 H 
ATOM     74  H36 non d ame     -32.126   6.715  23.331  0.00  0.00     0.036 H 
BRANCH  72  75
ATOM     75  C25 non d ame     -31.894   8.882  23.140  0.00  0.00    -0.001 C 
ATOM     76  C26 non d ame     -30.729   8.497  22.046  0.00  0.00    -0.035 C 
ATOM     77  C27 non d ame     -29.696   9.361  22.185  0.00  0.00     0.085 C 
ATOM     78  H38 non d ame     -30.288   7.531  22.292  0.00  0.00     0.036 H 
ATOM     79  H39 non d ame     -31.088   8.690  21.034  0.00  0.00     0.036 H 
ATOM     80  N5  non d ame     -29.905  10.092  23.489  0.00  0.00    -0.049 N 
ATOM     81  H40 non d ame     -28.804   8.739  22.267  0.00  0.00     0.075 H 
ATOM     82  H41 non d ame     -29.793  10.068  21.362  0.00  0.00     0.075 H 
ATOM     83  C28 non d ame     -31.434   9.804  23.919  0.00  0.00     0.193 C 
ATOM     84  H42 non d ame     -29.294   9.657  24.164  0.00  0.00     0.280 HD
ATOM     85  H43 non d ame     -29.809  11.077  23.283  0.00  0.00     0.280 HD
ATOM     86  H44 non d ame     -32.199  10.569  23.792  0.00  0.00     0.129 H 
ATOM     87  H37 non d ame     -32.758   9.433  22.771  0.00  0.00     0.046 H 
BRANCH  83  88
ATOM     88  O6  non d ame     -31.496   9.427  25.296  0.00  0.00    -0.369 OA
ATOM     89  H45 non d ame     -30.614   9.444  25.673  0.00  0.00     0.212 HD
ENDBRANCH  83  88
ENDBRANCH  72  75
ENDBRANCH  47  72
ENDBRANCH  45  47
ENDBRANCH   1  43
BRANCH   1  90
ATOM     90  C16 non d ame     -37.029   9.686  27.556  0.00  0.00    -0.035 C 
ATOM     91  H21 non d ame     -36.902  10.764  27.654  0.00  0.00     0.037 H 
ATOM     92  H22 non d ame     -37.565   9.277  26.700  0.00  0.00     0.037 H 
BRANCH  90  93
ATOM     93  C17 non d ame     -37.805   9.218  28.828  0.00  0.00    -0.059 C 
ATOM     94  H23 non d ame     -38.870   9.322  28.623  0.00  0.00     0.038 H 
BRANCH  93  95
ATOM     95  C18 non d ame     -37.528   7.718  29.167  0.00  0.00    -0.073 C 
ATOM     96  H24 non d ame     -37.704   7.106  28.283  0.00  0.00     0.028 H 
ATOM     97  H25 non d ame     -36.492   7.603  29.487  0.00  0.00     0.028 H 
ATOM     98  H26 non d ame     -38.193   7.398  29.969  0.00  0.00     0.028 H 
ENDBRANCH  93  95
BRANCH  93  99
ATOM     99  C19 non d ame     -37.483  10.115  30.026  0.00  0.00    -0.073 C 
ATOM    100  H27 non d ame     -37.380   9.502  30.922  0.00  0.00     0.028 H 
ATOM    101  H28 non d ame     -36.549  10.646  29.841  0.00  0.00     0.028 H 
ATOM    102  H29 non d ame     -38.288  10.835  30.167  0.00  0.00     0.028 H 
ENDBRANCH  93  99
ENDBRANCH  90  93
ENDBRANCH   1  90
TORSDOF 26
ENDMDL
MODEL 17
REMARK VINA RESULT:      -6.6      3.402      6.931
REMARK  26 active torsions:
REMARK  status: ('A' for Active; 'I' for Inactive)
REMARK    1  A    between atoms: C2_2  and  C3_3 
REMARK    2  A    between atoms: C4_6  and  C5_7 
REMARK       I    between atoms: C5_7  and  N2_9 
REMARK    3  A    between atoms: N2_9  and  C6_10 
REMARK    4  A    between atoms: C6_10  and  C7_11 
REMARK    5  A    between atoms: C6_10  and  C8_13 
REMARK       I    between atoms: C7_11  and  N3_14 
REMARK    6  A    between atoms: N3_14  and  C9_15 
REMARK    7  A    between atoms: C9_15  and  C10_16 
REMARK    8  A    between atoms: C9_15  and  C11_18 
REMARK       I    between atoms: C10_16  and  N4_21 
REMARK    9  A    between atoms: C11_18  and  C12_19 
REMARK   10  A    between atoms: C11_18  and  C13_20 
REMARK   11  A    between atoms: N4_21  and  C14_22 
REMARK   12  A    between atoms: C14_22  and  C15_23 
REMARK   13  A    between atoms: C14_22  and  C16_25 
REMARK       I    between atoms: C15_23  and  N6_40 
REMARK   14  A    between atoms: C16_25  and  C17_26 
REMARK   15  A    between atoms: C17_26  and  C18_27 
REMARK   16  A    between atoms: C17_26  and  C19_28 
REMARK   17  A    between atoms: C20_29  and  C21_30 
REMARK   18  A    between atoms: C20_29  and  C24_33 
REMARK   19  A    between atoms: C20_29  and  N6_40 
REMARK   20  A    between atoms: C21_30  and  C22_31 
REMARK   21  A    between atoms: C22_31  and  C23_32 
REMARK   22  A    between atoms: C23_32  and  O8_43 
REMARK   23  A    between atoms: C24_33  and  C25_34 
REMARK   24  A    between atoms: C28_38  and  O6_39 
REMARK   25  A    between atoms: C29_42  and  O8_43 
REMARK   26  A    between atoms: C29_42  and  C35_49 
ROOT
ATOM      1  C14 non d ame     -32.548  10.425  26.517  0.00  0.00     0.089 C 
ATOM      2  H20 non d ame     -33.570  10.535  26.154  0.00  0.00     0.087 H 
ENDROOT
BRANCH   1   3
ATOM      3  N4  non d ame     -31.937   9.331  25.777  0.00  0.00    -0.346 N 
ATOM      4  C10 non d ame     -32.331   9.064  24.346  0.00  0.00     0.241 C 
ATOM      5  O4  non d ame     -33.145   9.742  23.812  0.00  0.00    -0.271 OA
ATOM      6  H19 non d ame     -31.247   8.765  26.251  0.00  0.00     0.163 HD
BRANCH   4   7
ATOM      7  C9  non d ame     -31.682   7.932  23.594  0.00  0.00     0.092 C 
ATOM      8  H11 non d ame     -30.723   7.698  24.055  0.00  0.00     0.088 H 
BRANCH   7   9
ATOM      9  N3  non d ame     -32.518   6.733  23.700  0.00  0.00    -0.346 N 
ATOM     10  C7  non d ame     -32.394   5.866  24.845  0.00  0.00     0.240 C 
ATOM     11  O3  non d ame     -31.624   6.118  25.691  0.00  0.00    -0.271 OA
ATOM     12  H10 non d ame     -33.185   6.502  22.978  0.00  0.00     0.163 HD
BRANCH  10  13
ATOM     13  C6  non d ame     -33.284   4.589  24.951  0.00  0.00     0.086 C 
ATOM     14  H6  non d ame     -32.767   3.753  25.422  0.00  0.00     0.086 H 
BRANCH  13  15
ATOM     15  N2  non d ame     -34.438   4.887  25.784  0.00  0.00    -0.343 N 
ATOM     16  C5  non d ame     -34.426   4.502  27.197  0.00  0.00     0.273 C 
ATOM     17  O2  non d ame     -33.485   3.952  27.653  0.00  0.00    -0.266 OA
ATOM     18  H5  non d ame     -35.239   5.354  25.384  0.00  0.00     0.163 HD
BRANCH  16  19
ATOM     19  C4  non d ame     -35.637   4.812  28.089  0.00  0.00     0.154 A 
ATOM     20  C1  non d ame     -35.655   5.607  29.279  0.00  0.00    -0.017 A 
ATOM     21  C2  non d ame     -36.999   5.579  29.715  0.00  0.00     0.077 A 
ATOM     22  H1  non d ame     -34.821   6.123  29.754  0.00  0.00     0.091 H 
ATOM     23  O1  non d ame     -37.667   4.854  28.866  0.00  0.00    -0.218 OA
ATOM     24  N1  non d ame     -36.893   4.394  27.909  0.00  0.00    -0.123 NA
BRANCH  21  25
ATOM     25  C3  non d ame     -37.561   6.273  30.949  0.00  0.00    -0.029 C 
ATOM     26  H2  non d ame     -36.756   6.789  31.474  0.00  0.00     0.036 H 
ATOM     27  H3  non d ame     -38.318   6.996  30.646  0.00  0.00     0.036 H 
ATOM     28  H4  non d ame     -38.009   5.532  31.610  0.00  0.00     0.036 H 
ENDBRANCH  21  25
ENDBRANCH  16  19
ENDBRANCH  13  15
BRANCH  13  29
ATOM     29  C8  non d ame     -33.735   4.172  23.574  0.00  0.00    -0.049 C 
ATOM     30  H7  non d ame     -33.205   4.759  22.825  0.00  0.00     0.030 H 
ATOM     31  H8  non d ame     -33.517   3.114  23.426  0.00  0.00     0.030 H 
ATOM     32  H9  non d ame     -34.808   4.339  23.476  0.00  0.00     0.030 H 
ENDBRANCH  13  29
ENDBRANCH  10  13
ENDBRANCH   7   9
BRANCH   7  33
ATOM     33  C11 non d ame     -31.530   8.325  22.096  0.00  0.00    -0.033 C 
ATOM     34  H12 non d ame     -32.141   9.212  21.925  0.00  0.00     0.042 H 
BRANCH  33  35
ATOM     35  C12 non d ame     -30.054   8.698  21.752  0.00  0.00    -0.071 C 
ATOM     36  H13 non d ame     -30.041   9.591  21.127  0.00  0.00     0.028 H 
ATOM     37  H14 non d ame     -29.505   8.891  22.673  0.00  0.00     0.028 H 
ATOM     38  H15 non d ame     -29.586   7.873  21.215  0.00  0.00     0.028 H 
ENDBRANCH  33  35
BRANCH  33  39
ATOM     39  C13 non d ame     -32.059   7.189  21.163  0.00  0.00    -0.071 C 
ATOM     40  H16 non d ame     -33.083   6.936  21.441  0.00  0.00     0.028 H 
ATOM     41  H17 non d ame     -32.037   7.528  20.127  0.00  0.00     0.028 H 
ATOM     42  H18 non d ame     -31.426   6.308  21.268  0.00  0.00     0.028 H 
ENDBRANCH  33  39
ENDBRANCH   7  33
ENDBRANCH   4   7
ENDBRANCH   1   3
BRANCH   1  43
ATOM     43  C15 non d ame     -31.702  11.710  26.291  0.00  0.00     0.240 C 
ATOM     44  O5  non d ame     -30.916  12.051  27.114  0.00  0.00    -0.271 OA
ATOM     45  N6  non d ame     -31.866  12.510  25.045  0.00  0.00    -0.355 N 
ATOM     46  H46 non d ame     -32.527  12.226  24.336  0.00  0.00     0.162 HD
BRANCH  45  47
ATOM     47  C20 non d ame     -31.052  13.729  24.843  0.00  0.00     0.013 C 
ATOM     48  H30 non d ame     -30.212  13.689  25.536  0.00  0.00     0.072 H 
BRANCH  47  49
ATOM     49  C21 non d ame     -31.900  14.948  25.128  0.00  0.00    -0.038 C 
ATOM     50  H31 non d ame     -31.378  15.786  24.662  0.00  0.00     0.036 H 
ATOM     51  H32 non d ame     -32.908  14.687  24.807  0.00  0.00     0.036 H 
BRANCH  49  52
ATOM     52  C22 non d ame     -31.992  15.276  26.634  0.00  0.00     0.018 C 
ATOM     53  H33 non d ame     -31.269  14.625  27.123  0.00  0.00     0.048 H 
ATOM     54  H34 non d ame     -31.886  16.359  26.707  0.00  0.00     0.048 H 
BRANCH  52  55
ATOM     55  C23 non d ame     -33.370  14.937  27.266  0.00  0.00     0.259 C 
ATOM     56  O7  non d ame     -34.046  14.071  26.813  0.00  0.00    -0.265 OA
BRANCH  55  57
ATOM     57  O8  non d ame     -33.825  15.685  28.388  0.00  0.00    -0.317 OA
BRANCH  57  58
ATOM     58  C29 non d ame     -34.829  16.655  28.072  0.00  0.00     0.052 C 
ATOM     59  H47 non d ame     -35.480  16.177  27.341  0.00  0.00     0.082 H 
ATOM     60  H48 non d ame     -35.232  16.985  29.029  0.00  0.00     0.082 H 
BRANCH  58  61
ATOM     61  C35 non d ame     -34.130  17.863  27.391  0.00  0.00    -0.034 A 
ATOM     62  C30 non d ame     -33.115  18.545  28.055  0.00  0.00    -0.075 A 
ATOM     63  C31 non d ame     -32.488  19.630  27.444  0.00  0.00    -0.082 A 
ATOM     64  H49 non d ame     -32.812  18.230  29.054  0.00  0.00     0.084 H 
ATOM     65  C32 non d ame     -32.881  20.034  26.165  0.00  0.00    -0.083 A 
ATOM     66  H50 non d ame     -31.692  20.162  27.967  0.00  0.00     0.083 H 
ATOM     67  C33 non d ame     -33.896  19.352  25.508  0.00  0.00    -0.082 A 
ATOM     68  H51 non d ame     -32.395  20.881  25.681  0.00  0.00     0.083 H 
ATOM     69  C34 non d ame     -34.525  18.266  26.115  0.00  0.00    -0.075 A 
ATOM     70  H52 non d ame     -34.203  19.671  24.511  0.00  0.00     0.083 H 
ATOM     71  H53 non d ame     -35.320  17.735  25.591  0.00  0.00     0.084 H 
ENDBRANCH  58  61
ENDBRANCH  57  58
ENDBRANCH  55  57
ENDBRANCH  52  55
ENDBRANCH  49  52
ENDBRANCH  47  49
BRANCH  47  72
ATOM     72  C24 non d ame     -30.549  13.783  23.402  0.00  0.00    -0.039 C 
ATOM     73  H35 non d ame     -29.577  13.289  23.417  0.00  0.00     0.036 H 
ATOM     74  H36 non d ame     -31.359  13.375  22.797  0.00  0.00     0.036 H 
BRANCH  72  75
ATOM     75  C25 non d ame     -30.308  15.289  22.914  0.00  0.00    -0.001 C 
ATOM     76  C26 non d ame     -31.333  15.648  21.680  0.00  0.00    -0.035 C 
ATOM     77  C27 non d ame     -30.615  16.160  20.651  0.00  0.00     0.085 C 
ATOM     78  H38 non d ame     -31.755  14.733  21.266  0.00  0.00     0.036 H 
ATOM     79  H39 non d ame     -31.989  16.471  21.966  0.00  0.00     0.036 H 
ATOM     80  N5  non d ame     -29.161  15.878  20.945  0.00  0.00    -0.049 N 
ATOM     81  H40 non d ame     -30.917  15.589  19.772  0.00  0.00     0.075 H 
ATOM     82  H41 non d ame     -30.782  17.236  20.686  0.00  0.00     0.075 H 
ATOM     83  C28 non d ame     -29.095  15.459  22.502  0.00  0.00     0.193 C 
ATOM     84  H42 non d ame     -28.905  15.077  20.385  0.00  0.00     0.280 HD
ATOM     85  H43 non d ame     -28.671  16.754  20.826  0.00  0.00     0.280 HD
ATOM     86  H44 non d ame     -28.729  16.161  23.250  0.00  0.00     0.129 H 
ATOM     87  H37 non d ame     -30.268  15.992  23.746  0.00  0.00     0.046 H 
BRANCH  83  88
ATOM     88  O6  non d ame     -28.302  14.281  22.663  0.00  0.00    -0.369 OA
ATOM     89  H45 non d ame     -27.577  14.295  22.034  0.00  0.00     0.212 HD
ENDBRANCH  83  88
ENDBRANCH  72  75
ENDBRANCH  47  72
ENDBRANCH  45  47
ENDBRANCH   1  43
BRANCH   1  90
ATOM     90  C16 non d ame     -32.563  10.075  27.997  0.00  0.00    -0.035 C 
ATOM     91  H21 non d ame     -31.672   9.469  28.159  0.00  0.00     0.037 H 
ATOM     92  H22 non d ame     -32.677  11.026  28.516  0.00  0.00     0.037 H 
BRANCH  90  93
ATOM     93  C17 non d ame     -33.779   9.192  28.420  0.00  0.00    -0.059 C 
ATOM     94  H23 non d ame     -33.518   8.152  28.224  0.00  0.00     0.038 H 
BRANCH  93  95
ATOM     95  C18 non d ame     -34.100   9.323  29.943  0.00  0.00    -0.073 C 
ATOM     96  H24 non d ame     -35.024   8.790  30.167  0.00  0.00     0.028 H 
ATOM     97  H25 non d ame     -33.284   8.893  30.525  0.00  0.00     0.028 H 
ATOM     98  H26 non d ame     -34.215  10.375  30.202  0.00  0.00     0.028 H 
ENDBRANCH  93  95
BRANCH  93  99
ATOM     99  C19 non d ame     -35.013   9.518  27.574  0.00  0.00    -0.073 C 
ATOM    100  H27 non d ame     -35.912   9.213  28.110  0.00  0.00     0.028 H 
ATOM    101  H28 non d ame     -35.051  10.591  27.385  0.00  0.00     0.028 H 
ATOM    102  H29 non d ame     -34.955   8.985  26.626  0.00  0.00     0.028 H 
ENDBRANCH  93  99
ENDBRANCH  90  93
ENDBRANCH   1  90
TORSDOF 26
ENDMDL
MODEL 18
REMARK VINA RESULT:      -6.5      3.905      9.818
REMARK  26 active torsions:
REMARK  status: ('A' for Active; 'I' for Inactive)
REMARK    1  A    between atoms: C2_2  and  C3_3 
REMARK    2  A    between atoms: C4_6  and  C5_7 
REMARK       I    between atoms: C5_7  and  N2_9 
REMARK    3  A    between atoms: N2_9  and  C6_10 
REMARK    4  A    between atoms: C6_10  and  C7_11 
REMARK    5  A    between atoms: C6_10  and  C8_13 
REMARK       I    between atoms: C7_11  and  N3_14 
REMARK    6  A    between atoms: N3_14  and  C9_15 
REMARK    7  A    between atoms: C9_15  and  C10_16 
REMARK    8  A    between atoms: C9_15  and  C11_18 
REMARK       I    between atoms: C10_16  and  N4_21 
REMARK    9  A    between atoms: C11_18  and  C12_19 
REMARK   10  A    between atoms: C11_18  and  C13_20 
REMARK   11  A    between atoms: N4_21  and  C14_22 
REMARK   12  A    between atoms: C14_22  and  C15_23 
REMARK   13  A    between atoms: C14_22  and  C16_25 
REMARK       I    between atoms: C15_23  and  N6_40 
REMARK   14  A    between atoms: C16_25  and  C17_26 
REMARK   15  A    between atoms: C17_26  and  C18_27 
REMARK   16  A    between atoms: C17_26  and  C19_28 
REMARK   17  A    between atoms: C20_29  and  C21_30 
REMARK   18  A    between atoms: C20_29  and  C24_33 
REMARK   19  A    between atoms: C20_29  and  N6_40 
REMARK   20  A    between atoms: C21_30  and  C22_31 
REMARK   21  A    between atoms: C22_31  and  C23_32 
REMARK   22  A    between atoms: C23_32  and  O8_43 
REMARK   23  A    between atoms: C24_33  and  C25_34 
REMARK   24  A    between atoms: C28_38  and  O6_39 
REMARK   25  A    between atoms: C29_42  and  O8_43 
REMARK   26  A    between atoms: C29_42  and  C35_49 
ROOT
ATOM      1  C14 non d ame     -34.885   8.428  31.259  0.00  0.00     0.089 C 
ATOM      2  H20 non d ame     -34.442   8.452  32.255  0.00  0.00     0.087 H 
ENDROOT
BRANCH   1   3
ATOM      3  N4  non d ame     -34.005   9.173  30.371  0.00  0.00    -0.346 N 
ATOM      4  C10 non d ame     -33.504  10.540  30.764  0.00  0.00     0.241 C 
ATOM      5  O4  non d ame     -33.825  11.022  31.799  0.00  0.00    -0.271 OA
ATOM      6  H19 non d ame     -33.745   8.746  29.493  0.00  0.00     0.163 HD
BRANCH   4   7
ATOM      7  C9  non d ame     -32.589  11.293  29.834  0.00  0.00     0.092 C 
ATOM      8  H11 non d ame     -31.925  10.587  29.335  0.00  0.00     0.088 H 
BRANCH   7   9
ATOM      9  N3  non d ame     -33.384  11.952  28.795  0.00  0.00    -0.346 N 
ATOM     10  C7  non d ame     -33.615  11.289  27.535  0.00  0.00     0.240 C 
ATOM     11  O3  non d ame     -33.168  10.224  27.341  0.00  0.00    -0.271 OA
ATOM     12  H10 non d ame     -33.774  12.871  28.946  0.00  0.00     0.163 HD
BRANCH  10  13
ATOM     13  C6  non d ame     -34.459  11.997  26.430  0.00  0.00     0.086 C 
ATOM     14  H6  non d ame     -35.137  12.749  26.834  0.00  0.00     0.086 H 
BRANCH  13  15
ATOM     15  N2  non d ame     -33.560  12.691  25.523  0.00  0.00    -0.343 N 
ATOM     16  C5  non d ame     -33.080  14.031  25.870  0.00  0.00     0.273 C 
ATOM     17  O2  non d ame     -33.425  14.542  26.878  0.00  0.00    -0.266 OA
ATOM     18  H5  non d ame     -33.274  12.249  24.662  0.00  0.00     0.163 HD
BRANCH  16  19
ATOM     19  C4  non d ame     -32.128  14.776  24.922  0.00  0.00     0.154 A 
ATOM     20  C1  non d ame     -31.007  14.233  24.218  0.00  0.00    -0.017 A 
ATOM     21  C2  non d ame     -30.471  15.319  23.491  0.00  0.00     0.077 A 
ATOM     22  H1  non d ame     -30.637  13.208  24.235  0.00  0.00     0.091 H 
ATOM     23  O1  non d ame     -31.209  16.359  23.750  0.00  0.00    -0.218 OA
ATOM     24  N1  non d ame     -32.181  16.068  24.583  0.00  0.00    -0.123 NA
BRANCH  21  25
ATOM     25  C3  non d ame     -29.258  15.278  22.572  0.00  0.00    -0.029 C 
ATOM     26  H2  non d ame     -28.962  14.242  22.406  0.00  0.00     0.036 H 
ATOM     27  H3  non d ame     -29.510  15.740  21.617  0.00  0.00     0.036 H 
ATOM     28  H4  non d ame     -28.434  15.822  23.032  0.00  0.00     0.036 H 
ENDBRANCH  21  25
ENDBRANCH  16  19
ENDBRANCH  13  15
BRANCH  13  29
ATOM     29  C8  non d ame     -35.264  10.971  25.673  0.00  0.00    -0.049 C 
ATOM     30  H7  non d ame     -36.163  10.725  26.238  0.00  0.00     0.030 H 
ATOM     31  H8  non d ame     -35.546  11.376  24.701  0.00  0.00     0.030 H 
ATOM     32  H9  non d ame     -34.665  10.071  25.532  0.00  0.00     0.030 H 
ENDBRANCH  13  29
ENDBRANCH  10  13
ENDBRANCH   7   9
BRANCH   7  33
ATOM     33  C11 non d ame     -31.801  12.366  30.640  0.00  0.00    -0.033 C 
ATOM     34  H12 non d ame     -32.339  12.537  31.573  0.00  0.00     0.042 H 
BRANCH  33  35
ATOM     35  C12 non d ame     -30.370  11.864  31.009  0.00  0.00    -0.071 C 
ATOM     36  H13 non d ame     -29.676  12.704  30.998  0.00  0.00     0.028 H 
ATOM     37  H14 non d ame     -30.387  11.420  32.004  0.00  0.00     0.028 H 
ATOM     38  H15 non d ame     -30.048  11.117  30.283  0.00  0.00     0.028 H 
ENDBRANCH  33  35
BRANCH  33  39
ATOM     39  C13 non d ame     -31.743  13.719  29.862  0.00  0.00    -0.071 C 
ATOM     40  H16 non d ame     -32.661  14.281  30.038  0.00  0.00     0.028 H 
ATOM     41  H17 non d ame     -30.888  14.302  30.208  0.00  0.00     0.028 H 
ATOM     42  H18 non d ame     -31.637  13.521  28.796  0.00  0.00     0.028 H 
ENDBRANCH  33  39
ENDBRANCH   7  33
ENDBRANCH   4   7
ENDBRANCH   1   3
BRANCH   1  43
ATOM     43  C15 non d ame     -35.029   6.979  30.714  0.00  0.00     0.240 C 
ATOM     44  O5  non d ame     -35.645   6.173  31.334  0.00  0.00    -0.271 OA
ATOM     45  N6  non d ame     -34.406   6.597  29.415  0.00  0.00    -0.355 N 
ATOM     46  H46 non d ame     -33.885   7.275  28.877  0.00  0.00     0.162 HD
BRANCH  45  47
ATOM     47  C20 non d ame     -34.553   5.215  28.909  0.00  0.00     0.013 C 
ATOM     48  H30 non d ame     -34.916   4.595  29.729  0.00  0.00     0.072 H 
BRANCH  47  49
ATOM     49  C21 non d ame     -33.209   4.710  28.435  0.00  0.00    -0.038 C 
ATOM     50  H31 non d ame     -32.469   5.363  28.900  0.00  0.00     0.036 H 
ATOM     51  H32 non d ame     -33.204   3.642  28.648  0.00  0.00     0.036 H 
BRANCH  49  52
ATOM     52  C22 non d ame     -33.018   4.853  26.910  0.00  0.00     0.018 C 
ATOM     53  H33 non d ame     -32.415   3.999  26.607  0.00  0.00     0.048 H 
ATOM     54  H34 non d ame     -34.021   4.985  26.499  0.00  0.00     0.048 H 
BRANCH  52  55
ATOM     55  C23 non d ame     -32.215   6.116  26.494  0.00  0.00     0.259 C 
ATOM     56  O7  non d ame     -32.059   7.011  27.259  0.00  0.00    -0.265 OA
BRANCH  55  57
ATOM     57  O8  non d ame     -31.679   6.198  25.179  0.00  0.00    -0.317 OA
BRANCH  57  58
ATOM     58  C29 non d ame     -32.518   6.893  24.251  0.00  0.00     0.052 C 
ATOM     59  H47 non d ame     -32.684   6.199  23.427  0.00  0.00     0.082 H 
ATOM     60  H48 non d ame     -33.363   7.259  24.834  0.00  0.00     0.082 H 
BRANCH  58  61
ATOM     61  C35 non d ame     -31.728   8.116  23.712  0.00  0.00    -0.034 A 
ATOM     62  C30 non d ame     -32.030   9.395  24.167  0.00  0.00    -0.075 A 
ATOM     63  C31 non d ame     -31.320  10.494  23.683  0.00  0.00    -0.082 A 
ATOM     64  H49 non d ame     -32.822   9.538  24.902  0.00  0.00     0.084 H 
ATOM     65  C32 non d ame     -30.307  10.308  22.738  0.00  0.00    -0.083 A 
ATOM     66  H50 non d ame     -31.558  11.495  24.042  0.00  0.00     0.083 H 
ATOM     67  C33 non d ame     -30.012   9.030  22.285  0.00  0.00    -0.082 A 
ATOM     68  H51 non d ame     -29.747  11.162  22.355  0.00  0.00     0.083 H 
ATOM     69  C34 non d ame     -30.717   7.929  22.768  0.00  0.00    -0.075 A 
ATOM     70  H52 non d ame     -29.222   8.889  21.546  0.00  0.00     0.083 H 
ATOM     71  H53 non d ame     -30.478   6.928  22.407  0.00  0.00     0.084 H 
ENDBRANCH  58  61
ENDBRANCH  57  58
ENDBRANCH  55  57
ENDBRANCH  52  55
ENDBRANCH  49  52
ENDBRANCH  47  49
BRANCH  47  72
ATOM     72  C24 non d ame     -35.545   5.192  27.748  0.00  0.00    -0.039 C 
ATOM     73  H35 non d ame     -35.610   6.225  27.402  0.00  0.00     0.036 H 
ATOM     74  H36 non d ame     -35.185   4.415  27.074  0.00  0.00     0.036 H 
BRANCH  72  75
ATOM     75  C25 non d ame     -37.011   4.760  28.228  0.00  0.00    -0.001 C 
ATOM     76  C26 non d ame     -37.417   3.316  27.556  0.00  0.00    -0.035 C 
ATOM     77  C27 non d ame     -38.631   3.435  26.967  0.00  0.00     0.085 C 
ATOM     78  H38 non d ame     -36.751   3.091  26.723  0.00  0.00     0.036 H 
ATOM     79  H39 non d ame     -37.584   2.574  28.337  0.00  0.00     0.036 H 
ATOM     80  N5  non d ame     -38.943   4.910  26.891  0.00  0.00    -0.049 N 
ATOM     81  H40 non d ame     -38.504   3.046  25.956  0.00  0.00     0.075 H 
ATOM     82  H41 non d ame     -39.334   2.958  27.650  0.00  0.00     0.075 H 
ATOM     83  C28 non d ame     -37.894   5.637  27.881  0.00  0.00     0.193 C 
ATOM     84  H42 non d ame     -38.743   5.197  25.944  0.00  0.00     0.280 HD
ATOM     85  H43 non d ame     -39.873   5.025  27.268  0.00  0.00     0.280 HD
ATOM     86  H44 non d ame     -38.212   5.995  28.858  0.00  0.00     0.129 H 
ATOM     87  H37 non d ame     -37.138   4.859  29.306  0.00  0.00     0.046 H 
BRANCH  83  88
ATOM     88  O6  non d ame     -37.306   6.766  27.232  0.00  0.00    -0.369 OA
ATOM     89  H45 non d ame     -37.977   7.228  26.723  0.00  0.00     0.212 HD
ENDBRANCH  83  88
ENDBRANCH  72  75
ENDBRANCH  47  72
ENDBRANCH  45  47
ENDBRANCH   1  43
BRANCH   1  90
ATOM     90  C16 non d ame     -36.248   9.102  31.286  0.00  0.00    -0.035 C 
ATOM     91  H21 non d ame     -36.819   8.568  32.046  0.00  0.00     0.037 H 
ATOM     92  H22 non d ame     -36.042  10.165  31.407  0.00  0.00     0.037 H 
BRANCH  90  93
ATOM     93  C17 non d ame     -37.047   8.955  29.952  0.00  0.00    -0.059 C 
ATOM     94  H23 non d ame     -36.530   8.220  29.336  0.00  0.00     0.038 H 
BRANCH  93  95
ATOM     95  C18 non d ame     -38.502   8.440  30.191  0.00  0.00    -0.073 C 
ATOM     96  H24 non d ame     -38.753   7.696  29.435  0.00  0.00     0.028 H 
ATOM     97  H25 non d ame     -38.570   7.989  31.181  0.00  0.00     0.028 H 
ATOM     98  H26 non d ame     -39.199   9.275  30.124  0.00  0.00     0.028 H 
ENDBRANCH  93  95
BRANCH  93  99
ATOM     99  C19 non d ame     -37.057  10.274  29.174  0.00  0.00    -0.073 C 
ATOM    100  H27 non d ame     -38.083  10.628  29.072  0.00  0.00     0.028 H 
ATOM    101  H28 non d ame     -36.468  11.018  29.711  0.00  0.00     0.028 H 
ATOM    102  H29 non d ame     -36.626  10.116  28.186  0.00  0.00     0.028 H 
ENDBRANCH  93  99
ENDBRANCH  90  93
ENDBRANCH   1  90
TORSDOF 26
ENDMDL
MODEL 19
REMARK VINA RESULT:      -6.5      2.143      8.080
REMARK  26 active torsions:
REMARK  status: ('A' for Active; 'I' for Inactive)
REMARK    1  A    between atoms: C2_2  and  C3_3 
REMARK    2  A    between atoms: C4_6  and  C5_7 
REMARK       I    between atoms: C5_7  and  N2_9 
REMARK    3  A    between atoms: N2_9  and  C6_10 
REMARK    4  A    between atoms: C6_10  and  C7_11 
REMARK    5  A    between atoms: C6_10  and  C8_13 
REMARK       I    between atoms: C7_11  and  N3_14 
REMARK    6  A    between atoms: N3_14  and  C9_15 
REMARK    7  A    between atoms: C9_15  and  C10_16 
REMARK    8  A    between atoms: C9_15  and  C11_18 
REMARK       I    between atoms: C10_16  and  N4_21 
REMARK    9  A    between atoms: C11_18  and  C12_19 
REMARK   10  A    between atoms: C11_18  and  C13_20 
REMARK   11  A    between atoms: N4_21  and  C14_22 
REMARK   12  A    between atoms: C14_22  and  C15_23 
REMARK   13  A    between atoms: C14_22  and  C16_25 
REMARK       I    between atoms: C15_23  and  N6_40 
REMARK   14  A    between atoms: C16_25  and  C17_26 
REMARK   15  A    between atoms: C17_26  and  C18_27 
REMARK   16  A    between atoms: C17_26  and  C19_28 
REMARK   17  A    between atoms: C20_29  and  C21_30 
REMARK   18  A    between atoms: C20_29  and  C24_33 
REMARK   19  A    between atoms: C20_29  and  N6_40 
REMARK   20  A    between atoms: C21_30  and  C22_31 
REMARK   21  A    between atoms: C22_31  and  C23_32 
REMARK   22  A    between atoms: C23_32  and  O8_43 
REMARK   23  A    between atoms: C24_33  and  C25_34 
REMARK   24  A    between atoms: C28_38  and  O6_39 
REMARK   25  A    between atoms: C29_42  and  O8_43 
REMARK   26  A    between atoms: C29_42  and  C35_49 
ROOT
ATOM      1  C14 non d ame     -35.818  12.880  26.112  0.00  0.00     0.089 C 
ATOM      2  H20 non d ame     -36.552  12.670  26.891  0.00  0.00     0.087 H 
ENDROOT
BRANCH   1   3
ATOM      3  N4  non d ame     -35.621  14.321  26.073  0.00  0.00    -0.346 N 
ATOM      4  C10 non d ame     -36.719  15.253  26.522  0.00  0.00     0.241 C 
ATOM      5  O4  non d ame     -37.754  14.819  26.906  0.00  0.00    -0.271 OA
ATOM      6  H19 non d ame     -34.733  14.670  25.741  0.00  0.00     0.163 HD
BRANCH   4   7
ATOM      7  C9  non d ame     -36.495  16.742  26.481  0.00  0.00     0.092 C 
ATOM      8  H11 non d ame     -36.726  17.167  27.458  0.00  0.00     0.088 H 
BRANCH   7   9
ATOM      9  N3  non d ame     -35.081  17.016  26.212  0.00  0.00    -0.346 N 
ATOM     10  C7  non d ame     -34.212  17.439  27.283  0.00  0.00     0.240 C 
ATOM     11  O3  non d ame     -34.636  17.566  28.367  0.00  0.00    -0.271 OA
ATOM     12  H10 non d ame     -34.701  16.913  25.282  0.00  0.00     0.163 HD
BRANCH  10  13
ATOM     13  C6  non d ame     -32.708  17.733  26.990  0.00  0.00     0.086 C 
ATOM     14  H6  non d ame     -32.038  17.251  27.702  0.00  0.00     0.086 H 
BRANCH  13  15
ATOM     15  N2  non d ame     -32.371  17.204  25.679  0.00  0.00    -0.343 N 
ATOM     16  C5  non d ame     -31.651  15.932  25.577  0.00  0.00     0.273 C 
ATOM     17  O2  non d ame     -31.345  15.345  26.556  0.00  0.00    -0.266 OA
ATOM     18  H5  non d ame     -32.634  17.715  24.848  0.00  0.00     0.163 HD
BRANCH  16  19
ATOM     19  C4  non d ame     -31.290  15.361  24.198  0.00  0.00     0.154 A 
ATOM     20  C1  non d ame     -31.281  16.058  22.948  0.00  0.00    -0.017 A 
ATOM     21  C2  non d ame     -30.882  15.093  21.996  0.00  0.00     0.077 A 
ATOM     22  H1  non d ame     -31.526  17.103  22.760  0.00  0.00     0.091 H 
ATOM     23  O1  non d ame     -30.686  13.976  22.635  0.00  0.00    -0.218 OA
ATOM     24  N1  non d ame     -30.918  14.108  23.921  0.00  0.00    -0.123 NA
BRANCH  21  25
ATOM     25  C3  non d ame     -30.713  15.319  20.500  0.00  0.00    -0.029 C 
ATOM     26  H2  non d ame     -31.381  16.117  20.175  0.00  0.00     0.036 H 
ATOM     27  H3  non d ame     -29.682  15.601  20.289  0.00  0.00     0.036 H 
ATOM     28  H4  non d ame     -30.956  14.402  19.964  0.00  0.00     0.036 H 
ENDBRANCH  21  25
ENDBRANCH  16  19
ENDBRANCH  13  15
BRANCH  13  29
ATOM     29  C8  non d ame     -32.468  19.221  27.024  0.00  0.00    -0.049 C 
ATOM     30  H7  non d ame     -33.383  19.731  27.323  0.00  0.00     0.030 H 
ATOM     31  H8  non d ame     -31.677  19.445  27.741  0.00  0.00     0.030 H 
ATOM     32  H9  non d ame     -32.168  19.563  26.033  0.00  0.00     0.030 H 
ENDBRANCH  13  29
ENDBRANCH  10  13
ENDBRANCH   7   9
BRANCH   7  33
ATOM     33  C11 non d ame     -37.366  17.366  25.351  0.00  0.00    -0.033 C 
ATOM     34  H12 non d ame     -38.397  17.385  25.705  0.00  0.00     0.042 H 
BRANCH  33  35
ATOM     35  C12 non d ame     -36.944  18.839  25.055  0.00  0.00    -0.071 C 
ATOM     36  H13 non d ame     -37.817  19.488  25.125  0.00  0.00     0.028 H 
ATOM     37  H14 non d ame     -36.197  19.155  25.783  0.00  0.00     0.028 H 
ATOM     38  H15 non d ame     -36.524  18.902  24.051  0.00  0.00     0.028 H 
ENDBRANCH  33  35
BRANCH  33  39
ATOM     39  C13 non d ame     -37.315  16.491  24.058  0.00  0.00    -0.071 C 
ATOM     40  H16 non d ame     -36.924  17.086  23.231  0.00  0.00     0.028 H 
ATOM     41  H17 non d ame     -36.666  15.631  24.225  0.00  0.00     0.028 H 
ATOM     42  H18 non d ame     -38.319  16.145  23.814  0.00  0.00     0.028 H 
ENDBRANCH  33  39
ENDBRANCH   7  33
ENDBRANCH   4   7
ENDBRANCH   1   3
BRANCH   1  43
ATOM     43  C15 non d ame     -34.449  12.199  26.395  0.00  0.00     0.240 C 
ATOM     44  O5  non d ame     -33.457  12.646  25.916  0.00  0.00    -0.271 OA
ATOM     45  N6  non d ame     -34.372  10.997  27.272  0.00  0.00    -0.355 N 
ATOM     46  H46 non d ame     -35.208  10.612  27.689  0.00  0.00     0.162 HD
BRANCH  45  47
ATOM     47  C20 non d ame     -33.062  10.362  27.534  0.00  0.00     0.013 C 
ATOM     48  H30 non d ame     -32.308  10.902  26.961  0.00  0.00     0.072 H 
BRANCH  47  49
ATOM     49  C21 non d ame     -33.110   8.917  27.092  0.00  0.00    -0.038 C 
ATOM     50  H31 non d ame     -32.278   8.793  26.397  0.00  0.00     0.036 H 
ATOM     51  H32 non d ame     -33.145   8.330  28.009  0.00  0.00     0.036 H 
BRANCH  49  52
ATOM     52  C22 non d ame     -34.391   8.573  26.303  0.00  0.00     0.018 C 
ATOM     53  H33 non d ame     -35.085   8.159  27.032  0.00  0.00     0.048 H 
ATOM     54  H34 non d ame     -34.653   9.480  25.756  0.00  0.00     0.048 H 
BRANCH  52  55
ATOM     55  C23 non d ame     -34.189   7.469  25.228  0.00  0.00     0.259 C 
ATOM     56  O7  non d ame     -33.972   6.346  25.550  0.00  0.00    -0.265 OA
BRANCH  55  57
ATOM     57  O8  non d ame     -34.250   7.818  23.850  0.00  0.00    -0.317 OA
BRANCH  57  58
ATOM     58  C29 non d ame     -34.002   9.203  23.590  0.00  0.00     0.052 C 
ATOM     59  H47 non d ame     -34.598   9.449  22.711  0.00  0.00     0.082 H 
ATOM     60  H48 non d ame     -34.182   9.718  24.533  0.00  0.00     0.082 H 
BRANCH  58  61
ATOM     61  C35 non d ame     -32.501   9.361  23.224  0.00  0.00    -0.034 A 
ATOM     62  C30 non d ame     -31.919   8.508  22.291  0.00  0.00    -0.075 A 
ATOM     63  C31 non d ame     -30.571   8.650  21.963  0.00  0.00    -0.082 A 
ATOM     64  H49 non d ame     -32.517   7.730  21.818  0.00  0.00     0.084 H 
ATOM     65  C32 non d ame     -29.804   9.646  22.574  0.00  0.00    -0.083 A 
ATOM     66  H50 non d ame     -30.117   7.981  21.231  0.00  0.00     0.083 H 
ATOM     67  C33 non d ame     -30.389  10.491  23.507  0.00  0.00    -0.082 A 
ATOM     68  H51 non d ame     -28.750   9.763  22.322  0.00  0.00     0.083 H 
ATOM     69  C34 non d ame     -31.736  10.355  23.836  0.00  0.00    -0.075 A 
ATOM     70  H52 non d ame     -29.788  11.266  23.983  0.00  0.00     0.083 H 
ATOM     71  H53 non d ame     -32.189  11.024  24.569  0.00  0.00     0.084 H 
ENDBRANCH  58  61
ENDBRANCH  57  58
ENDBRANCH  55  57
ENDBRANCH  52  55
ENDBRANCH  49  52
ENDBRANCH  47  49
BRANCH  47  72
ATOM     72  C24 non d ame     -32.744  10.429  29.026  0.00  0.00    -0.039 C 
ATOM     73  H35 non d ame     -33.558   9.897  29.520  0.00  0.00     0.036 H 
ATOM     74  H36 non d ame     -31.720  10.067  29.120  0.00  0.00     0.036 H 
BRANCH  72  75
ATOM     75  C25 non d ame     -32.764  11.936  29.569  0.00  0.00    -0.001 C 
ATOM     76  C26 non d ame     -31.552  12.799  28.869  0.00  0.00    -0.035 C 
ATOM     77  C27 non d ame     -30.839  13.417  29.841  0.00  0.00     0.085 C 
ATOM     78  H38 non d ame     -30.828  12.124  28.412  0.00  0.00     0.036 H 
ATOM     79  H39 non d ame     -31.967  13.626  28.293  0.00  0.00     0.036 H 
ATOM     80  N5  non d ame     -31.250  12.795  31.153  0.00  0.00    -0.049 N 
ATOM     81  H40 non d ame     -29.796  13.169  29.641  0.00  0.00     0.075 H 
ATOM     82  H41 non d ame     -31.165  14.457  29.824  0.00  0.00     0.075 H 
ATOM     83  C28 non d ame     -32.606  11.973  30.851  0.00  0.00     0.193 C 
ATOM     84  H42 non d ame     -30.523  12.138  31.399  0.00  0.00     0.280 HD
ATOM     85  H43 non d ame     -31.469  13.560  31.776  0.00  0.00     0.280 HD
ATOM     86  H44 non d ame     -33.573  12.368  31.158  0.00  0.00     0.129 H 
ATOM     87  H37 non d ame     -33.762  12.371  29.542  0.00  0.00     0.046 H 
BRANCH  83  88
ATOM     88  O6  non d ame     -32.528  10.666  31.422  0.00  0.00    -0.369 OA
ATOM     89  H45 non d ame     -32.324  10.027  30.735  0.00  0.00     0.212 HD
ENDBRANCH  83  88
ENDBRANCH  72  75
ENDBRANCH  47  72
ENDBRANCH  45  47
ENDBRANCH   1  43
BRANCH   1  90
ATOM     90  C16 non d ame     -36.351  12.416  24.765  0.00  0.00    -0.035 C 
ATOM     91  H21 non d ame     -37.165  13.099  24.526  0.00  0.00     0.037 H 
ATOM     92  H22 non d ame     -35.479  12.359  24.114  0.00  0.00     0.037 H 
BRANCH  90  93
ATOM     93  C17 non d ame     -36.974  10.984  24.797  0.00  0.00    -0.059 C 
ATOM     94  H23 non d ame     -36.158  10.270  24.901  0.00  0.00     0.038 H 
BRANCH  93  95
ATOM     95  C18 non d ame     -37.938  10.788  26.010  0.00  0.00    -0.073 C 
ATOM     96  H24 non d ame     -37.355  10.640  26.918  0.00  0.00     0.028 H 
ATOM     97  H25 non d ame     -38.566  11.672  26.122  0.00  0.00     0.028 H 
ATOM     98  H26 non d ame     -38.568   9.916  25.837  0.00  0.00     0.028 H 
ENDBRANCH  93  95
BRANCH  93  99
ATOM     99  C19 non d ame     -37.687  10.669  23.479  0.00  0.00    -0.073 C 
ATOM    100  H27 non d ame     -38.140  11.580  23.084  0.00  0.00     0.028 H 
ATOM    101  H28 non d ame     -36.966  10.282  22.759  0.00  0.00     0.028 H 
ATOM    102  H29 non d ame     -38.461   9.923  23.653  0.00  0.00     0.028 H 
ENDBRANCH  93  99
ENDBRANCH  90  93
ENDBRANCH   1  90
TORSDOF 26
ENDMDL
MODEL 20
REMARK VINA RESULT:      -6.4      3.389      8.958
REMARK  26 active torsions:
REMARK  status: ('A' for Active; 'I' for Inactive)
REMARK    1  A    between atoms: C2_2  and  C3_3 
REMARK    2  A    between atoms: C4_6  and  C5_7 
REMARK       I    between atoms: C5_7  and  N2_9 
REMARK    3  A    between atoms: N2_9  and  C6_10 
REMARK    4  A    between atoms: C6_10  and  C7_11 
REMARK    5  A    between atoms: C6_10  and  C8_13 
REMARK       I    between atoms: C7_11  and  N3_14 
REMARK    6  A    between atoms: N3_14  and  C9_15 
REMARK    7  A    between atoms: C9_15  and  C10_16 
REMARK    8  A    between atoms: C9_15  and  C11_18 
REMARK       I    between atoms: C10_16  and  N4_21 
REMARK    9  A    between atoms: C11_18  and  C12_19 
REMARK   10  A    between atoms: C11_18  and  C13_20 
REMARK   11  A    between atoms: N4_21  and  C14_22 
REMARK   12  A    between atoms: C14_22  and  C15_23 
REMARK   13  A    between atoms: C14_22  and  C16_25 
REMARK       I    between atoms: C15_23  and  N6_40 
REMARK   14  A    between atoms: C16_25  and  C17_26 
REMARK   15  A    between atoms: C17_26  and  C18_27 
REMARK   16  A    between atoms: C17_26  and  C19_28 
REMARK   17  A    between atoms: C20_29  and  C21_30 
REMARK   18  A    between atoms: C20_29  and  C24_33 
REMARK   19  A    between atoms: C20_29  and  N6_40 
REMARK   20  A    between atoms: C21_30  and  C22_31 
REMARK   21  A    between atoms: C22_31  and  C23_32 
REMARK   22  A    between atoms: C23_32  and  O8_43 
REMARK   23  A    between atoms: C24_33  and  C25_34 
REMARK   24  A    between atoms: C28_38  and  O6_39 
REMARK   25  A    between atoms: C29_42  and  O8_43 
REMARK   26  A    between atoms: C29_42  and  C35_49 
ROOT
ATOM      1  C14 non d ame     -35.564   9.616  27.932  0.00  0.00     0.089 C 
ATOM      2  H20 non d ame     -35.657   9.092  28.883  0.00  0.00     0.087 H 
ENDROOT
BRANCH   1   3
ATOM      3  N4  non d ame     -34.548  10.646  28.097  0.00  0.00    -0.346 N 
ATOM      4  C10 non d ame     -33.210  10.305  28.703  0.00  0.00     0.241 C 
ATOM      5  O4  non d ame     -32.975   9.197  29.054  0.00  0.00    -0.271 OA
ATOM      6  H19 non d ame     -34.770  11.583  27.793  0.00  0.00     0.163 HD
BRANCH   4   7
ATOM      7  C9  non d ame     -32.169  11.382  28.860  0.00  0.00     0.092 C 
ATOM      8  H11 non d ame     -31.260  11.082  28.338  0.00  0.00     0.088 H 
BRANCH   7   9
ATOM      9  N3  non d ame     -32.644  12.617  28.231  0.00  0.00    -0.346 N 
ATOM     10  C7  non d ame     -32.290  12.912  26.863  0.00  0.00     0.240 C 
ATOM     11  O3  non d ame     -31.623  12.166  26.256  0.00  0.00    -0.271 OA
ATOM     12  H10 non d ame     -33.218  13.271  28.742  0.00  0.00     0.163 HD
BRANCH  10  13
ATOM     13  C6  non d ame     -32.796  14.230  26.199  0.00  0.00     0.086 C 
ATOM     14  H6  non d ame     -32.476  15.122  26.736  0.00  0.00     0.086 H 
BRANCH  13  15
ATOM     15  N2  non d ame     -32.237  14.327  24.861  0.00  0.00    -0.343 N 
ATOM     16  C5  non d ame     -31.329  15.430  24.537  0.00  0.00     0.273 C 
ATOM     17  O2  non d ame     -31.056  16.234  25.359  0.00  0.00    -0.266 OA
ATOM     18  H5  non d ame     -32.479  13.638  24.163  0.00  0.00     0.163 HD
BRANCH  16  19
ATOM     19  C4  non d ame     -30.729  15.544  23.127  0.00  0.00     0.154 A 
ATOM     20  C1  non d ame     -31.441  15.692  21.894  0.00  0.00    -0.017 A 
ATOM     21  C2  non d ame     -30.438  15.750  20.900  0.00  0.00     0.077 A 
ATOM     22  H1  non d ame     -32.518  15.746  21.743  0.00  0.00     0.091 H 
ATOM     23  O1  non d ame     -29.289  15.650  21.503  0.00  0.00    -0.218 OA
ATOM     24  N1  non d ame     -29.434  15.528  22.802  0.00  0.00    -0.123 NA
BRANCH  21  25
ATOM     25  C3  non d ame     -30.662  15.904  19.402  0.00  0.00    -0.029 C 
ATOM     26  H2  non d ame     -31.570  16.481  19.227  0.00  0.00     0.036 H 
ATOM     27  H3  non d ame     -29.812  16.422  18.959  0.00  0.00     0.036 H 
ATOM     28  H4  non d ame     -30.765  14.919  18.947  0.00  0.00     0.036 H 
ENDBRANCH  21  25
ENDBRANCH  16  19
ENDBRANCH  13  15
BRANCH  13  29
ATOM     29  C8  non d ame     -34.302  14.215  26.130  0.00  0.00    -0.049 C 
ATOM     30  H7  non d ame     -34.621  14.385  25.102  0.00  0.00     0.030 H 
ATOM     31  H8  non d ame     -34.672  13.247  26.468  0.00  0.00     0.030 H 
ATOM     32  H9  non d ame     -34.703  15.001  26.770  0.00  0.00     0.030 H 
ENDBRANCH  13  29
ENDBRANCH  10  13
ENDBRANCH   7   9
BRANCH   7  33
ATOM     33  C11 non d ame     -31.914  11.639  30.374  0.00  0.00    -0.033 C 
ATOM     34  H12 non d ame     -31.331  10.801  30.756  0.00  0.00     0.042 H 
BRANCH  33  35
ATOM     35  C12 non d ame     -31.074  12.936  30.598  0.00  0.00    -0.071 C 
ATOM     36  H13 non d ame     -31.457  13.471  31.467  0.00  0.00     0.028 H 
ATOM     37  H14 non d ame     -30.032  12.668  30.766  0.00  0.00     0.028 H 
ATOM     38  H15 non d ame     -31.149  13.574  29.718  0.00  0.00     0.028 H 
ENDBRANCH  33  35
BRANCH  33  39
ATOM     39  C13 non d ame     -33.259  11.692  31.167  0.00  0.00    -0.071 C 
ATOM     40  H16 non d ame     -33.419  10.741  31.676  0.00  0.00     0.028 H 
ATOM     41  H17 non d ame     -33.217  12.495  31.903  0.00  0.00     0.028 H 
ATOM     42  H18 non d ame     -34.081  11.878  30.476  0.00  0.00     0.028 H 
ENDBRANCH  33  39
ENDBRANCH   7  33
ENDBRANCH   4   7
ENDBRANCH   1   3
BRANCH   1  43
ATOM     43  C15 non d ame     -35.127   8.669  26.779  0.00  0.00     0.240 C 
ATOM     44  O5  non d ame     -35.426   8.925  25.658  0.00  0.00    -0.271 OA
ATOM     45  N6  non d ame     -34.326   7.446  27.071  0.00  0.00    -0.355 N 
ATOM     46  H46 non d ame     -34.061   7.221  28.019  0.00  0.00     0.162 HD
BRANCH  45  47
ATOM     47  C20 non d ame     -33.916   6.556  25.963  0.00  0.00     0.013 C 
ATOM     48  H30 non d ame     -34.561   6.764  25.110  0.00  0.00     0.072 H 
BRANCH  47  49
ATOM     49  C21 non d ame     -34.077   5.115  26.394  0.00  0.00    -0.038 C 
ATOM     50  H31 non d ame     -35.012   5.079  26.955  0.00  0.00     0.036 H 
ATOM     51  H32 non d ame     -33.962   4.522  25.487  0.00  0.00     0.036 H 
BRANCH  49  52
ATOM     52  C22 non d ame     -32.968   4.652  27.363  0.00  0.00     0.018 C 
ATOM     53  H33 non d ame     -32.753   3.619  27.093  0.00  0.00     0.048 H 
ATOM     54  H34 non d ame     -32.183   5.407  27.296  0.00  0.00     0.048 H 
BRANCH  52  55
ATOM     55  C23 non d ame     -33.409   4.624  28.852  0.00  0.00     0.259 C 
ATOM     56  O7  non d ame     -32.873   3.900  29.627  0.00  0.00    -0.265 OA
BRANCH  55  57
ATOM     57  O8  non d ame     -34.474   5.465  29.280  0.00  0.00    -0.317 OA
BRANCH  57  58
ATOM     58  C29 non d ame     -34.734   5.404  30.686  0.00  0.00     0.052 C 
ATOM     59  H47 non d ame     -35.305   4.489  30.840  0.00  0.00     0.082 H 
ATOM     60  H48 non d ame     -33.767   5.533  31.171  0.00  0.00     0.082 H 
BRANCH  58  61
ATOM     61  C35 non d ame     -35.634   6.613  31.059  0.00  0.00    -0.034 A 
ATOM     62  C30 non d ame     -37.019   6.489  31.017  0.00  0.00    -0.075 A 
ATOM     63  C31 non d ame     -37.828   7.574  31.351  0.00  0.00    -0.082 A 
ATOM     64  H49 non d ame     -37.471   5.542  30.720  0.00  0.00     0.084 H 
ATOM     65  C32 non d ame     -37.246   8.788  31.728  0.00  0.00    -0.083 A 
ATOM     66  H50 non d ame     -38.913   7.473  31.318  0.00  0.00     0.083 H 
ATOM     67  C33 non d ame     -35.864   8.908  31.765  0.00  0.00    -0.082 A 
ATOM     68  H51 non d ame     -37.872   9.641  31.992  0.00  0.00     0.083 H 
ATOM     69  C34 non d ame     -35.052   7.825  31.433  0.00  0.00    -0.075 A 
ATOM     70  H52 non d ame     -35.413   9.857  32.057  0.00  0.00     0.083 H 
ATOM     71  H53 non d ame     -33.967   7.927  31.467  0.00  0.00     0.084 H 
ENDBRANCH  58  61
ENDBRANCH  57  58
ENDBRANCH  55  57
ENDBRANCH  52  55
ENDBRANCH  49  52
ENDBRANCH  47  49
BRANCH  47  72
ATOM     72  C24 non d ame     -32.456   6.820  25.600  0.00  0.00    -0.039 C 
ATOM     73  H35 non d ame     -32.100   7.539  26.340  0.00  0.00     0.036 H 
ATOM     74  H36 non d ame     -31.992   5.836  25.530  0.00  0.00     0.036 H 
BRANCH  72  75
ATOM     75  C25 non d ame     -32.318   7.512  24.163  0.00  0.00    -0.001 C 
ATOM     76  C26 non d ame     -31.207   6.706  23.258  0.00  0.00    -0.035 C 
ATOM     77  C27 non d ame     -30.313   7.598  22.768  0.00  0.00     0.085 C 
ATOM     78  H38 non d ame     -30.601   6.063  23.896  0.00  0.00     0.036 H 
ATOM     79  H39 non d ame     -31.678   6.300  22.363  0.00  0.00     0.036 H 
ATOM     80  N5  non d ame     -30.521   8.890  23.521  0.00  0.00    -0.049 N 
ATOM     81  H40 non d ame     -29.331   7.195  23.019  0.00  0.00     0.075 H 
ATOM     82  H41 non d ame     -30.591   7.747  21.725  0.00  0.00     0.075 H 
ATOM     83  C28 non d ame     -31.943   8.744  24.270  0.00  0.00     0.193 C 
ATOM     84  H42 non d ame     -29.792   8.936  24.219  0.00  0.00     0.280 HD
ATOM     85  H43 non d ame     -30.598   9.618  22.824  0.00  0.00     0.280 HD
ATOM     86  H44 non d ame     -32.826   9.254  23.888  0.00  0.00     0.129 H 
ATOM     87  H37 non d ame     -33.287   7.705  23.702  0.00  0.00     0.046 H 
BRANCH  83  88
ATOM     88  O6  non d ame     -31.826   9.154  25.634  0.00  0.00    -0.369 OA
ATOM     89  H45 non d ame     -32.701   9.254  26.015  0.00  0.00     0.212 HD
ENDBRANCH  83  88
ENDBRANCH  72  75
ENDBRANCH  47  72
ENDBRANCH  45  47
ENDBRANCH   1  43
BRANCH   1  90
ATOM     90  C16 non d ame     -36.887  10.277  27.577  0.00  0.00    -0.035 C 
ATOM     91  H21 non d ame     -36.798  11.306  27.924  0.00  0.00     0.037 H 
ATOM     92  H22 non d ame     -37.037  10.071  26.518  0.00  0.00     0.037 H 
BRANCH  90  93
ATOM     93  C17 non d ame     -38.114   9.666  28.325  0.00  0.00    -0.059 C 
ATOM     94  H23 non d ame     -37.732   8.991  29.092  0.00  0.00     0.038 H 
BRANCH  93  95
ATOM     95  C18 non d ame     -38.975  10.758  29.036  0.00  0.00    -0.073 C 
ATOM     96  H24 non d ame     -40.030  10.497  28.959  0.00  0.00     0.028 H 
ATOM     97  H25 non d ame     -38.692  10.816  30.088  0.00  0.00     0.028 H 
ATOM     98  H26 non d ame     -38.803  11.723  28.561  0.00  0.00     0.028 H 
ENDBRANCH  93  95
BRANCH  93  99
ATOM     99  C19 non d ame     -38.973   8.830  27.373  0.00  0.00    -0.073 C 
ATOM    100  H27 non d ame     -38.854   7.772  27.608  0.00  0.00     0.028 H 
ATOM    101  H28 non d ame     -40.020   9.111  27.487  0.00  0.00     0.028 H 
ATOM    102  H29 non d ame     -38.659   9.012  26.345  0.00  0.00     0.028 H 
ENDBRANCH  93  99
ENDBRANCH  90  93
ENDBRANCH   1  90
TORSDOF 26
ENDMDL
