REMARK  26 active torsions:
REMARK  status: ('A' for Active; 'I' for Inactive)
REMARK    1  A    between atoms: C2_2  and  C3_3 
REMARK    2  A    between atoms: C4_6  and  C5_7 
REMARK       I    between atoms: C5_7  and  N2_9 
REMARK    3  A    between atoms: N2_9  and  C6_10 
REMARK    4  A    between atoms: C6_10  and  C7_11 
REMARK    5  A    between atoms: C6_10  and  C8_13 
REMARK       I    between atoms: C7_11  and  N3_14 
REMARK    6  A    between atoms: N3_14  and  C9_15 
REMARK    7  A    between atoms: C9_15  and  C10_16 
REMARK    8  A    between atoms: C9_15  and  C11_18 
REMARK       I    between atoms: C10_16  and  N4_21 
REMARK    9  A    between atoms: C11_18  and  C12_19 
REMARK   10  A    between atoms: C11_18  and  C13_20 
REMARK   11  A    between atoms: N4_21  and  C14_22 
REMARK   12  A    between atoms: C14_22  and  C15_23 
REMARK   13  A    between atoms: C14_22  and  C16_25 
REMARK       I    between atoms: C15_23  and  N6_40 
REMARK   14  A    between atoms: C16_25  and  C17_26 
REMARK   15  A    between atoms: C17_26  and  C18_27 
REMARK   16  A    between atoms: C17_26  and  C19_28 
REMARK   17  A    between atoms: C20_29  and  C21_30 
REMARK   18  A    between atoms: C20_29  and  C24_33 
REMARK   19  A    between atoms: C20_29  and  N6_40 
REMARK   20  A    between atoms: C21_30  and  C22_31 
REMARK   21  A    between atoms: C22_31  and  C23_32 
REMARK   22  A    between atoms: C23_32  and  O8_43 
REMARK   23  A    between atoms: C24_33  and  C25_34 
REMARK   24  A    between atoms: C28_38  and  O6_39 
REMARK   25  A    between atoms: C29_42  and  O8_43 
REMARK   26  A    between atoms: C29_42  and  C35_49 
ROOT
ATOM      1  C14 non d ame     -35.506  20.825  28.344  0.00  0.00     0.089 C 
ATOM      2  H20 non d ame     -34.649  20.156  28.260  0.00  0.00     0.087 H 
ENDROOT
BRANCH   1   3
ATOM      3  N4  non d ame     -36.707  20.004  28.307  0.00  0.00    -0.346 N 
ATOM      4  C10 non d ame     -36.613  18.529  28.006  0.00  0.00     0.241 C 
ATOM      5  O4  non d ame     -35.560  18.026  27.793  0.00  0.00    -0.271 OA
ATOM      6  H19 non d ame     -37.594  20.452  28.489  0.00  0.00     0.163 HD
BRANCH   4   7
ATOM      7  C9  non d ame     -37.866  17.694  27.978  0.00  0.00     0.092 C 
ATOM      8  H11 non d ame     -38.603  18.130  28.653  0.00  0.00     0.088 H 
BRANCH   7   9
ATOM      9  N3  non d ame     -38.442  17.721  26.631  0.00  0.00    -0.346 N 
ATOM     10  C7  non d ame     -39.715  18.360  26.404  0.00  0.00     0.240 C 
ATOM     11  O3  non d ame     -40.290  18.856  27.295  0.00  0.00    -0.271 OA
ATOM     12  H10 non d ame     -37.959  17.296  25.853  0.00  0.00     0.163 HD
BRANCH  10  13
ATOM     13  C6  non d ame     -40.325  18.383  24.968  0.00  0.00     0.086 C 
ATOM     14  H6  non d ame     -41.270  18.924  24.920  0.00  0.00     0.086 H 
BRANCH  13  15
ATOM     15  N2  non d ame     -39.406  19.072  24.077  0.00  0.00    -0.343 N 
ATOM     16  C5  non d ame     -39.933  20.005  23.078  0.00  0.00     0.273 C 
ATOM     17  O2  non d ame     -41.097  20.192  22.998  0.00  0.00    -0.266 OA
ATOM     18  H5  non d ame     -38.413  18.903  24.150  0.00  0.00     0.163 HD
BRANCH  16  19
ATOM     19  C4  non d ame     -38.973  20.741  22.131  0.00  0.00     0.154 A 
ATOM     20  C1  non d ame     -38.262  21.955  22.392  0.00  0.00    -0.017 A 
ATOM     21  C2  non d ame     -37.525  22.206  21.213  0.00  0.00     0.077 A 
ATOM     22  H1  non d ame     -38.279  22.562  23.297  0.00  0.00     0.091 H 
ATOM     23  O1  non d ame     -37.787  21.241  20.380  0.00  0.00    -0.218 OA
ATOM     24  N1  non d ame     -38.630  20.375  20.893  0.00  0.00    -0.123 NA
BRANCH  21  25
ATOM     25  C3  non d ame     -36.595  23.386  20.965  0.00  0.00    -0.029 C 
ATOM     26  H2  non d ame     -35.562  23.038  20.950  0.00  0.00     0.036 H 
ATOM     27  H3  non d ame     -36.837  23.844  20.006  0.00  0.00     0.036 H 
ATOM     28  H4  non d ame     -36.719  24.120  21.760  0.00  0.00     0.036 H 
ENDBRANCH  21  25
ENDBRANCH  16  19
ENDBRANCH  13  15
BRANCH  13  29
ATOM     29  C8  non d ame     -40.546  16.970  24.490  0.00  0.00    -0.049 C 
ATOM     30  H7  non d ame     -39.597  16.435  24.486  0.00  0.00     0.030 H 
ATOM     31  H8  non d ame     -41.244  16.466  25.159  0.00  0.00     0.030 H 
ATOM     32  H9  non d ame     -40.958  16.988  23.481  0.00  0.00     0.030 H 
ENDBRANCH  13  29
ENDBRANCH  10  13
ENDBRANCH   7   9
BRANCH   7  33
ATOM     33  C11 non d ame     -37.519  16.226  28.362  0.00  0.00    -0.033 C 
ATOM     34  H12 non d ame     -36.562  15.983  27.899  0.00  0.00     0.042 H 
BRANCH  33  35
ATOM     35  C12 non d ame     -37.348  16.066  29.905  0.00  0.00    -0.071 C 
ATOM     36  H13 non d ame     -36.287  16.058  30.154  0.00  0.00     0.028 H 
ATOM     37  H14 non d ame     -37.834  16.899  30.412  0.00  0.00     0.028 H 
ATOM     38  H15 non d ame     -37.803  15.129  30.226  0.00  0.00     0.028 H 
ENDBRANCH  33  35
BRANCH  33  39
ATOM     39  C13 non d ame     -38.590  15.234  27.805  0.00  0.00    -0.071 C 
ATOM     40  H16 non d ame     -39.207  15.743  27.064  0.00  0.00     0.028 H 
ATOM     41  H17 non d ame     -38.091  14.383  27.340  0.00  0.00     0.028 H 
ATOM     42  H18 non d ame     -39.219  14.882  28.622  0.00  0.00     0.028 H 
ENDBRANCH  33  39
ENDBRANCH   7  33
ENDBRANCH   4   7
ENDBRANCH   1   3
BRANCH   1  43
ATOM     43  C15 non d ame     -35.496  21.629  29.675  0.00  0.00     0.240 C 
ATOM     44  O5  non d ame     -34.854  21.239  30.596  0.00  0.00    -0.271 OA
ATOM     45  N6  non d ame     -36.279  22.891  29.799  0.00  0.00    -0.355 N 
ATOM     46  H46 non d ame     -36.824  23.235  29.021  0.00  0.00     0.162 HD
BRANCH  45  47
ATOM     47  C20 non d ame     -36.258  23.646  31.071  0.00  0.00     0.013 C 
ATOM     48  H30 non d ame     -35.369  23.344  31.625  0.00  0.00     0.072 H 
BRANCH  47  49
ATOM     49  C21 non d ame     -37.500  23.317  31.868  0.00  0.00    -0.038 C 
ATOM     50  H31 non d ame     -38.000  22.518  31.318  0.00  0.00     0.036 H 
ATOM     51  H32 non d ame     -37.158  23.145  32.888  0.00  0.00     0.036 H 
BRANCH  49  52
ATOM     52  C22 non d ame     -38.499  24.492  31.934  0.00  0.00     0.018 C 
ATOM     53  H33 non d ame     -38.602  24.733  32.991  0.00  0.00     0.048 H 
ATOM     54  H34 non d ame     -38.118  25.242  31.239  0.00  0.00     0.048 H 
BRANCH  52  55
ATOM     55  C23 non d ame     -39.925  24.131  31.435  0.00  0.00     0.259 C 
ATOM     56  O7  non d ame     -40.086  23.662  30.355  0.00  0.00    -0.265 OA
BRANCH  55  57
ATOM     57  O8  non d ame     -41.043  24.381  32.279  0.00  0.00    -0.317 OA
BRANCH  57  58
ATOM     58  C29 non d ame     -41.639  23.198  32.820  0.00  0.00     0.052 C 
ATOM     59  H47 non d ame     -42.710  23.396  32.852  0.00  0.00     0.082 H 
ATOM     60  H48 non d ame     -41.254  22.373  32.221  0.00  0.00     0.082 H 
BRANCH  58  61
ATOM     61  C35 non d ame     -41.128  23.027  34.276  0.00  0.00    -0.034 A 
ATOM     62  C30 non d ame     -39.765  22.900  34.525  0.00  0.00    -0.075 A 
ATOM     63  C31 non d ame     -39.306  22.746  35.833  0.00  0.00    -0.082 A 
ATOM     64  H49 non d ame     -39.057  22.920  33.697  0.00  0.00     0.084 H 
ATOM     65  C32 non d ame     -40.216  22.717  36.893  0.00  0.00    -0.083 A 
ATOM     66  H50 non d ame     -38.237  22.648  36.025  0.00  0.00     0.083 H 
ATOM     67  C33 non d ame     -41.575  22.841  36.639  0.00  0.00    -0.082 A 
ATOM     68  H51 non d ame     -39.865  22.598  37.918  0.00  0.00     0.083 H 
ATOM     69  C34 non d ame     -42.038  22.997  35.334  0.00  0.00    -0.075 A 
ATOM     70  H52 non d ame     -42.283  22.816  37.468  0.00  0.00     0.083 H 
ATOM     71  H53 non d ame     -43.107  23.095  35.143  0.00  0.00     0.084 H 
ENDBRANCH  58  61
ENDBRANCH  57  58
ENDBRANCH  55  57
ENDBRANCH  52  55
ENDBRANCH  49  52
ENDBRANCH  47  49
BRANCH  47  72
ATOM     72  C24 non d ame     -36.219  25.145  30.782  0.00  0.00    -0.039 C 
ATOM     73  H35 non d ame     -37.068  25.335  30.124  0.00  0.00     0.036 H 
ATOM     74  H36 non d ame     -36.168  25.627  31.758  0.00  0.00     0.036 H 
BRANCH  72  75
ATOM     75  C25 non d ame     -34.896  25.560  29.980  0.00  0.00    -0.001 C 
ATOM     76  C26 non d ame     -34.391  27.047  30.466  0.00  0.00    -0.035 C 
ATOM     77  C27 non d ame     -34.205  27.824  29.372  0.00  0.00     0.085 C 
ATOM     78  H38 non d ame     -35.189  27.555  31.007  0.00  0.00     0.036 H 
ATOM     79  H39 non d ame     -33.394  26.979  30.902  0.00  0.00     0.036 H 
ATOM     80  N5  non d ame     -34.850  27.110  28.209  0.00  0.00    -0.049 N 
ATOM     81  H40 non d ame     -34.754  28.745  29.572  0.00  0.00     0.075 H 
ATOM     82  H41 non d ame     -33.127  27.855  29.216  0.00  0.00     0.075 H 
ATOM     83  C28 non d ame     -35.113  25.597  28.707  0.00  0.00     0.193 C 
ATOM     84  H42 non d ame     -35.742  27.558  28.056  0.00  0.00     0.280 HD
ATOM     85  H43 non d ame     -34.162  27.090  27.469  0.00  0.00     0.280 HD
ATOM     86  H44 non d ame     -34.470  24.784  28.373  0.00  0.00     0.129 H 
ATOM     87  H37 non d ame     -34.153  24.763  29.968  0.00  0.00     0.046 H 
BRANCH  83  88
ATOM     88  O6  non d ame     -36.443  25.193  28.375  0.00  0.00    -0.369 OA
ATOM     89  H45 non d ame     -36.521  25.100  27.423  0.00  0.00     0.212 HD
ENDBRANCH  83  88
ENDBRANCH  72  75
ENDBRANCH  47  72
ENDBRANCH  45  47
ENDBRANCH   1  43
BRANCH   1  90
ATOM     90  C16 non d ame     -35.526  21.786  27.166  0.00  0.00    -0.035 C 
ATOM     91  H21 non d ame     -35.855  21.192  26.314  0.00  0.00     0.037 H 
ATOM     92  H22 non d ame     -36.120  22.637  27.498  0.00  0.00     0.037 H 
BRANCH  90  93
ATOM     93  C17 non d ame     -34.118  22.349  26.792  0.00  0.00    -0.059 C 
ATOM     94  H23 non d ame     -33.727  21.746  25.973  0.00  0.00     0.038 H 
BRANCH  93  95
ATOM     95  C18 non d ame     -34.187  23.831  26.303  0.00  0.00    -0.073 C 
ATOM     96  H24 non d ame     -33.177  24.227  26.199  0.00  0.00     0.028 H 
ATOM     97  H25 non d ame     -34.693  23.872  25.338  0.00  0.00     0.028 H 
ATOM     98  H26 non d ame     -34.739  24.428  27.028  0.00  0.00     0.028 H 
ENDBRANCH  93  95
BRANCH  93  99
ATOM     99  C19 non d ame     -33.144  22.208  27.965  0.00  0.00    -0.073 C 
ATOM    100  H27 non d ame     -32.541  23.113  28.048  0.00  0.00     0.028 H 
ATOM    101  H28 non d ame     -33.705  22.061  28.888  0.00  0.00     0.028 H 
ATOM    102  H29 non d ame     -32.493  21.351  27.796  0.00  0.00     0.028 H 
ENDBRANCH  93  99
ENDBRANCH  90  93
ENDBRANCH   1  90
TORSDOF 26
