MODEL 1
REMARK VINA RESULT:      -7.5      0.000      0.000
REMARK  26 active torsions:
REMARK  status: ('A' for Active; 'I' for Inactive)
REMARK    1  A    between atoms: C2_2  and  C3_3 
REMARK    2  A    between atoms: C4_6  and  C5_7 
REMARK       I    between atoms: C5_7  and  N2_9 
REMARK    3  A    between atoms: N2_9  and  C6_10 
REMARK    4  A    between atoms: C6_10  and  C7_11 
REMARK    5  A    between atoms: C6_10  and  C8_13 
REMARK       I    between atoms: C7_11  and  N3_14 
REMARK    6  A    between atoms: N3_14  and  C9_15 
REMARK    7  A    between atoms: C9_15  and  C10_16 
REMARK    8  A    between atoms: C9_15  and  C11_18 
REMARK       I    between atoms: C10_16  and  N4_21 
REMARK    9  A    between atoms: C11_18  and  C12_19 
REMARK   10  A    between atoms: C11_18  and  C13_20 
REMARK   11  A    between atoms: N4_21  and  C14_22 
REMARK   12  A    between atoms: C14_22  and  C15_23 
REMARK   13  A    between atoms: C14_22  and  C16_25 
REMARK       I    between atoms: C15_23  and  N6_40 
REMARK   14  A    between atoms: C16_25  and  C17_26 
REMARK   15  A    between atoms: C17_26  and  C18_27 
REMARK   16  A    between atoms: C17_26  and  C19_28 
REMARK   17  A    between atoms: C20_29  and  C21_30 
REMARK   18  A    between atoms: C20_29  and  C24_33 
REMARK   19  A    between atoms: C20_29  and  N6_40 
REMARK   20  A    between atoms: C21_30  and  C22_31 
REMARK   21  A    between atoms: C22_31  and  C23_32 
REMARK   22  A    between atoms: C23_32  and  O8_43 
REMARK   23  A    between atoms: C24_33  and  C25_34 
REMARK   24  A    between atoms: C28_38  and  O6_39 
REMARK   25  A    between atoms: C29_42  and  O8_43 
REMARK   26  A    between atoms: C29_42  and  C35_49 
ROOT
ATOM      1  C14 non d ame     -30.716  14.301  23.811  0.00  0.00     0.089 C 
ATOM      2  H20 non d ame     -29.637  14.323  23.649  0.00  0.00     0.087 H 
ENDROOT
BRANCH   1   3
ATOM      3  N4  non d ame     -31.095  12.916  24.046  0.00  0.00    -0.346 N 
ATOM      4  C10 non d ame     -30.466  11.806  23.242  0.00  0.00     0.241 C 
ATOM      5  O4  non d ame     -29.658  12.053  22.409  0.00  0.00    -0.271 OA
ATOM      6  H19 non d ame     -31.786  12.728  24.758  0.00  0.00     0.163 HD
BRANCH   4   7
ATOM      7  C9  non d ame     -30.867  10.378  23.504  0.00  0.00     0.092 C 
ATOM      8  H11 non d ame     -30.334  10.011  24.381  0.00  0.00     0.088 H 
BRANCH   7   9
ATOM      9  N3  non d ame     -32.298  10.321  23.810  0.00  0.00    -0.346 N 
ATOM     10  C7  non d ame     -32.737  10.065  25.160  0.00  0.00     0.240 C 
ATOM     11  O3  non d ame     -31.950   9.902  26.012  0.00  0.00    -0.271 OA
ATOM     12  H10 non d ame     -32.988  10.457  23.086  0.00  0.00     0.163 HD
BRANCH  10  13
ATOM     13  C6  non d ame     -34.263  10.001  25.480  0.00  0.00     0.086 C 
ATOM     14  H6  non d ame     -34.466   9.695  26.506  0.00  0.00     0.086 H 
BRANCH  13  15
ATOM     15  N2  non d ame     -34.833  11.329  25.322  0.00  0.00    -0.343 N 
ATOM     16  C5  non d ame     -35.593  11.924  26.424  0.00  0.00     0.273 C 
ATOM     17  O2  non d ame     -35.742  11.325  27.432  0.00  0.00    -0.266 OA
ATOM     18  H5  non d ame     -34.703  11.832  24.456  0.00  0.00     0.163 HD
BRANCH  16  19
ATOM     19  C4  non d ame     -36.200  13.327  26.271  0.00  0.00     0.154 A 
ATOM     20  C1  non d ame     -35.798  14.348  25.353  0.00  0.00    -0.017 A 
ATOM     21  C2  non d ame     -36.663  15.434  25.614  0.00  0.00     0.077 A 
ATOM     22  H1  non d ame     -35.000  14.308  24.611  0.00  0.00     0.091 H 
ATOM     23  O1  non d ame     -37.466  15.067  26.570  0.00  0.00    -0.218 OA
ATOM     24  N1  non d ame     -37.214  13.843  26.971  0.00  0.00    -0.123 NA
BRANCH  21  25
ATOM     25  C3  non d ame     -36.657  16.781  24.905  0.00  0.00    -0.029 C 
ATOM     26  H2  non d ame     -36.074  16.707  23.987  0.00  0.00     0.036 H 
ATOM     27  H3  non d ame     -37.681  17.068  24.662  0.00  0.00     0.036 H 
ATOM     28  H4  non d ame     -36.214  17.533  25.557  0.00  0.00     0.036 H 
ENDBRANCH  21  25
ENDBRANCH  16  19
ENDBRANCH  13  15
BRANCH  13  29
ATOM     29  C8  non d ame     -34.937   9.035  24.539  0.00  0.00    -0.049 C 
ATOM     30  H7  non d ame     -34.359   8.112  24.491  0.00  0.00     0.030 H 
ATOM     31  H8  non d ame     -35.941   8.816  24.903  0.00  0.00     0.030 H 
ATOM     32  H9  non d ame     -34.998   9.478  23.545  0.00  0.00     0.030 H 
ENDBRANCH  13  29
ENDBRANCH  10  13
ENDBRANCH   7   9
BRANCH   7  33
ATOM     33  C11 non d ame     -30.574   9.518  22.240  0.00  0.00    -0.033 C 
ATOM     34  H12 non d ame     -30.522  10.195  21.387  0.00  0.00     0.042 H 
BRANCH  33  35
ATOM     35  C12 non d ame     -29.195   8.796  22.350  0.00  0.00    -0.071 C 
ATOM     36  H13 non d ame     -28.393   9.525  22.239  0.00  0.00     0.028 H 
ATOM     37  H14 non d ame     -29.115   8.313  23.323  0.00  0.00     0.028 H 
ATOM     38  H15 non d ame     -29.114   8.045  21.563  0.00  0.00     0.028 H 
ENDBRANCH  33  35
BRANCH  33  39
ATOM     39  C13 non d ame     -31.728   8.499  21.978  0.00  0.00    -0.071 C 
ATOM     40  H16 non d ame     -32.565   8.717  22.642  0.00  0.00     0.028 H 
ATOM     41  H17 non d ame     -32.056   8.579  20.941  0.00  0.00     0.028 H 
ATOM     42  H18 non d ame     -31.370   7.487  22.166  0.00  0.00     0.028 H 
ENDBRANCH  33  39
ENDBRANCH   7  33
ENDBRANCH   4   7
ENDBRANCH   1   3
BRANCH   1  43
ATOM     43  C15 non d ame     -31.143  15.149  25.043  0.00  0.00     0.240 C 
ATOM     44  O5  non d ame     -30.805  16.285  25.124  0.00  0.00    -0.271 OA
ATOM     45  N6  non d ame     -31.981  14.546  26.117  0.00  0.00    -0.355 N 
ATOM     46  H46 non d ame     -32.279  13.583  26.056  0.00  0.00     0.162 HD
BRANCH  45  47
ATOM     47  C20 non d ame     -32.381  15.365  27.282  0.00  0.00     0.013 C 
ATOM     48  H30 non d ame     -31.476  15.776  27.730  0.00  0.00     0.072 H 
BRANCH  47  49
ATOM     49  C21 non d ame     -33.102  14.492  28.284  0.00  0.00    -0.038 C 
ATOM     50  H31 non d ame     -33.823  15.144  28.779  0.00  0.00     0.036 H 
ATOM     51  H32 non d ame     -33.447  13.624  27.723  0.00  0.00     0.036 H 
BRANCH  49  52
ATOM     52  C22 non d ame     -32.169  13.954  29.391  0.00  0.00     0.018 C 
ATOM     53  H33 non d ame     -31.307  14.619  29.399  0.00  0.00     0.048 H 
ATOM     54  H34 non d ame     -32.793  13.860  30.281  0.00  0.00     0.048 H 
BRANCH  52  55
ATOM     55  C23 non d ame     -31.612  12.532  29.105  0.00  0.00     0.259 C 
ATOM     56  O7  non d ame     -30.951  12.326  28.140  0.00  0.00    -0.265 OA
BRANCH  55  57
ATOM     57  O8  non d ame     -31.914  11.472  30.005  0.00  0.00    -0.317 OA
BRANCH  57  58
ATOM     58  C29 non d ame     -32.880  10.543  29.506  0.00  0.00     0.052 C 
ATOM     59  H47 non d ame     -33.446  11.085  28.749  0.00  0.00     0.082 H 
ATOM     60  H48 non d ame     -32.318   9.650  29.231  0.00  0.00     0.082 H 
BRANCH  58  61
ATOM     61  C35 non d ame     -33.841  10.179  30.670  0.00  0.00    -0.034 A 
ATOM     62  C30 non d ame     -34.387   8.902  30.748  0.00  0.00    -0.075 A 
ATOM     63  C31 non d ame     -35.251   8.575  31.793  0.00  0.00    -0.082 A 
ATOM     64  H49 non d ame     -34.141   8.158  29.991  0.00  0.00     0.084 H 
ATOM     65  C32 non d ame     -35.568   9.531  32.761  0.00  0.00    -0.083 A 
ATOM     66  H50 non d ame     -35.676   7.573  31.853  0.00  0.00     0.083 H 
ATOM     67  C33 non d ame     -35.023  10.805  32.677  0.00  0.00    -0.082 A 
ATOM     68  H51 non d ame     -36.241   9.283  33.582  0.00  0.00     0.083 H 
ATOM     69  C34 non d ame     -34.158  11.135  31.635  0.00  0.00    -0.075 A 
ATOM     70  H52 non d ame     -35.274  11.550  33.433  0.00  0.00     0.083 H 
ATOM     71  H53 non d ame     -33.733  12.138  31.577  0.00  0.00     0.084 H 
ENDBRANCH  58  61
ENDBRANCH  57  58
ENDBRANCH  55  57
ENDBRANCH  52  55
ENDBRANCH  49  52
ENDBRANCH  47  49
BRANCH  47  72
ATOM     72  C24 non d ame     -33.307  16.492  26.829  0.00  0.00    -0.039 C 
ATOM     73  H35 non d ame     -32.768  17.006  26.032  0.00  0.00     0.036 H 
ATOM     74  H36 non d ame     -34.264  16.014  26.619  0.00  0.00     0.036 H 
BRANCH  72  75
ATOM     75  C25 non d ame     -33.557  17.560  27.996  0.00  0.00    -0.001 C 
ATOM     76  C26 non d ame     -35.162  17.900  28.109  0.00  0.00    -0.035 C 
ATOM     77  C27 non d ame     -35.326  19.244  28.082  0.00  0.00     0.085 C 
ATOM     78  H38 non d ame     -35.680  17.562  27.211  0.00  0.00     0.036 H 
ATOM     79  H39 non d ame     -35.536  17.617  29.093  0.00  0.00     0.036 H 
ATOM     80  N5  non d ame     -34.014  19.840  27.632  0.00  0.00    -0.049 N 
ATOM     81  H40 non d ame     -36.082  19.430  27.318  0.00  0.00     0.075 H 
ATOM     82  H41 non d ame     -35.513  19.536  29.115  0.00  0.00     0.075 H 
ATOM     83  C28 non d ame     -32.921  18.661  27.768  0.00  0.00     0.193 C 
ATOM     84  H42 non d ame     -34.123  20.068  26.654  0.00  0.00     0.280 HD
ATOM     85  H43 non d ame     -33.788  20.567  28.297  0.00  0.00     0.280 HD
ATOM     86  H44 non d ame     -32.212  18.654  28.595  0.00  0.00     0.129 H 
ATOM     87  H37 non d ame     -33.041  17.293  28.918  0.00  0.00     0.046 H 
BRANCH  83  88
ATOM     88  O6  non d ame     -32.125  18.587  26.583  0.00  0.00    -0.369 OA
ATOM     89  H45 non d ame     -32.655  18.236  25.863  0.00  0.00     0.212 HD
ENDBRANCH  83  88
ENDBRANCH  72  75
ENDBRANCH  47  72
ENDBRANCH  45  47
ENDBRANCH   1  43
BRANCH   1  90
ATOM     90  C16 non d ame     -31.432  14.808  22.569  0.00  0.00    -0.035 C 
ATOM     91  H21 non d ame     -31.724  13.914  22.019  0.00  0.00     0.037 H 
ATOM     92  H22 non d ame     -32.194  15.495  22.935  0.00  0.00     0.037 H 
BRANCH  90  93
ATOM     93  C17 non d ame     -30.516  15.633  21.610  0.00  0.00    -0.059 C 
ATOM     94  H23 non d ame     -30.803  16.681  21.699  0.00  0.00     0.038 H 
BRANCH  93  95
ATOM     95  C18 non d ame     -29.006  15.517  21.992  0.00  0.00    -0.073 C 
ATOM     96  H24 non d ame     -28.515  16.476  21.829  0.00  0.00     0.028 H 
ATOM     97  H25 non d ame     -28.917  15.239  23.042  0.00  0.00     0.028 H 
ATOM     98  H26 non d ame     -28.532  14.756  21.373  0.00  0.00     0.028 H 
ENDBRANCH  93  95
BRANCH  93  99
ATOM     99  C19 non d ame     -30.742  15.224  20.152  0.00  0.00    -0.073 C 
ATOM    100  H27 non d ame     -29.936  14.563  19.831  0.00  0.00     0.028 H 
ATOM    101  H28 non d ame     -31.695  14.701  20.064  0.00  0.00     0.028 H 
ATOM    102  H29 non d ame     -30.756  16.113  19.522  0.00  0.00     0.028 H 
ENDBRANCH  93  99
ENDBRANCH  90  93
ENDBRANCH   1  90
TORSDOF 26
ENDMDL
MODEL 2
REMARK VINA RESULT:      -7.4      1.695      2.646
REMARK  26 active torsions:
REMARK  status: ('A' for Active; 'I' for Inactive)
REMARK    1  A    between atoms: C2_2  and  C3_3 
REMARK    2  A    between atoms: C4_6  and  C5_7 
REMARK       I    between atoms: C5_7  and  N2_9 
REMARK    3  A    between atoms: N2_9  and  C6_10 
REMARK    4  A    between atoms: C6_10  and  C7_11 
REMARK    5  A    between atoms: C6_10  and  C8_13 
REMARK       I    between atoms: C7_11  and  N3_14 
REMARK    6  A    between atoms: N3_14  and  C9_15 
REMARK    7  A    between atoms: C9_15  and  C10_16 
REMARK    8  A    between atoms: C9_15  and  C11_18 
REMARK       I    between atoms: C10_16  and  N4_21 
REMARK    9  A    between atoms: C11_18  and  C12_19 
REMARK   10  A    between atoms: C11_18  and  C13_20 
REMARK   11  A    between atoms: N4_21  and  C14_22 
REMARK   12  A    between atoms: C14_22  and  C15_23 
REMARK   13  A    between atoms: C14_22  and  C16_25 
REMARK       I    between atoms: C15_23  and  N6_40 
REMARK   14  A    between atoms: C16_25  and  C17_26 
REMARK   15  A    between atoms: C17_26  and  C18_27 
REMARK   16  A    between atoms: C17_26  and  C19_28 
REMARK   17  A    between atoms: C20_29  and  C21_30 
REMARK   18  A    between atoms: C20_29  and  C24_33 
REMARK   19  A    between atoms: C20_29  and  N6_40 
REMARK   20  A    between atoms: C21_30  and  C22_31 
REMARK   21  A    between atoms: C22_31  and  C23_32 
REMARK   22  A    between atoms: C23_32  and  O8_43 
REMARK   23  A    between atoms: C24_33  and  C25_34 
REMARK   24  A    between atoms: C28_38  and  O6_39 
REMARK   25  A    between atoms: C29_42  and  O8_43 
REMARK   26  A    between atoms: C29_42  and  C35_49 
ROOT
ATOM      1  C14 non d ame     -31.104  14.148  24.380  0.00  0.00     0.089 C 
ATOM      2  H20 non d ame     -30.116  13.746  24.607  0.00  0.00     0.087 H 
ENDROOT
BRANCH   1   3
ATOM      3  N4  non d ame     -32.071  13.082  24.594  0.00  0.00    -0.346 N 
ATOM      4  C10 non d ame     -31.875  12.089  25.713  0.00  0.00     0.241 C 
ATOM      5  O4  non d ame     -30.930  12.167  26.426  0.00  0.00    -0.271 OA
ATOM      6  H19 non d ame     -32.867  13.032  23.974  0.00  0.00     0.163 HD
BRANCH   4   7
ATOM      7  C9  non d ame     -32.889  10.996  25.923  0.00  0.00     0.092 C 
ATOM      8  H11 non d ame     -33.048  10.854  26.992  0.00  0.00     0.088 H 
BRANCH   7   9
ATOM      9  N3  non d ame     -34.173  11.401  25.344  0.00  0.00    -0.346 N 
ATOM     10  C7  non d ame     -35.177  12.016  26.176  0.00  0.00     0.240 C 
ATOM     11  O3  non d ame     -34.970  12.190  27.315  0.00  0.00    -0.271 OA
ATOM     12  H10 non d ame     -34.367  11.255  24.364  0.00  0.00     0.163 HD
BRANCH  10  13
ATOM     13  C6  non d ame     -36.544  12.442  25.554  0.00  0.00     0.086 C 
ATOM     14  H6  non d ame     -37.391  12.206  26.197  0.00  0.00     0.086 H 
BRANCH  13  15
ATOM     15  N2  non d ame     -36.549  13.884  25.373  0.00  0.00    -0.343 N 
ATOM     16  C5  non d ame     -37.518  14.700  26.108  0.00  0.00     0.273 C 
ATOM     17  O2  non d ame     -38.291  14.187  26.840  0.00  0.00    -0.266 OA
ATOM     18  H5  non d ame     -35.887  14.314  24.743  0.00  0.00     0.163 HD
BRANCH  16  19
ATOM     19  C4  non d ame     -37.534  16.226  25.927  0.00  0.00     0.154 A 
ATOM     20  C1  non d ame     -37.117  16.965  24.775  0.00  0.00    -0.017 A 
ATOM     21  C2  non d ame     -37.330  18.319  25.114  0.00  0.00     0.077 A 
ATOM     22  H1  non d ame     -36.720  16.578  23.836  0.00  0.00     0.091 H 
ATOM     23  O1  non d ame     -37.816  18.344  26.321  0.00  0.00    -0.218 OA
ATOM     24  N1  non d ame     -37.943  17.135  26.816  0.00  0.00    -0.123 NA
BRANCH  21  25
ATOM     25  C3  non d ame     -37.046  19.526  24.229  0.00  0.00    -0.029 C 
ATOM     26  H2  non d ame     -36.880  20.404  24.854  0.00  0.00     0.036 H 
ATOM     27  H3  non d ame     -36.156  19.335  23.629  0.00  0.00     0.036 H 
ATOM     28  H4  non d ame     -37.896  19.703  23.572  0.00  0.00     0.036 H 
ENDBRANCH  21  25
ENDBRANCH  16  19
ENDBRANCH  13  15
BRANCH  13  29
ATOM     29  C8  non d ame     -36.731  11.754  24.226  0.00  0.00    -0.049 C 
ATOM     30  H7  non d ame     -36.130  12.256  23.468  0.00  0.00     0.030 H 
ATOM     31  H8  non d ame     -36.416  10.714  24.309  0.00  0.00     0.030 H 
ATOM     32  H9  non d ame     -37.783  11.794  23.941  0.00  0.00     0.030 H 
ENDBRANCH  13  29
ENDBRANCH  10  13
ENDBRANCH   7   9
BRANCH   7  33
ATOM     33  C11 non d ame     -32.397   9.693  25.228  0.00  0.00    -0.033 C 
ATOM     34  H12 non d ame     -31.312   9.754  25.146  0.00  0.00     0.042 H 
BRANCH  33  35
ATOM     35  C12 non d ame     -32.733   8.430  26.082  0.00  0.00    -0.071 C 
ATOM     36  H13 non d ame     -31.808   7.936  26.379  0.00  0.00     0.028 H 
ATOM     37  H14 non d ame     -33.286   8.730  26.972  0.00  0.00     0.028 H 
ATOM     38  H15 non d ame     -33.338   7.742  25.492  0.00  0.00     0.028 H 
ENDBRANCH  33  35
BRANCH  33  39
ATOM     39  C13 non d ame     -32.984   9.572  23.785  0.00  0.00    -0.071 C 
ATOM     40  H16 non d ame     -33.621  10.433  23.578  0.00  0.00     0.028 H 
ATOM     41  H17 non d ame     -32.169   9.541  23.062  0.00  0.00     0.028 H 
ATOM     42  H18 non d ame     -33.572   8.658  23.707  0.00  0.00     0.028 H 
ENDBRANCH  33  39
ENDBRANCH   7  33
ENDBRANCH   4   7
ENDBRANCH   1   3
BRANCH   1  43
ATOM     43  C15 non d ame     -31.476  15.346  25.299  0.00  0.00     0.240 C 
ATOM     44  O5  non d ame     -31.086  16.437  25.034  0.00  0.00    -0.271 OA
ATOM     45  N6  non d ame     -32.327  15.135  26.504  0.00  0.00    -0.355 N 
ATOM     46  H46 non d ame     -32.668  14.213  26.736  0.00  0.00     0.162 HD
BRANCH  45  47
ATOM     47  C20 non d ame     -32.674  16.285  27.368  0.00  0.00     0.013 C 
ATOM     48  H30 non d ame     -31.928  17.063  27.206  0.00  0.00     0.072 H 
BRANCH  47  49
ATOM     49  C21 non d ame     -32.658  15.846  28.815  0.00  0.00    -0.038 C 
ATOM     50  H31 non d ame     -31.763  16.295  29.249  0.00  0.00     0.036 H 
ATOM     51  H32 non d ame     -33.641  16.099  29.210  0.00  0.00     0.036 H 
BRANCH  49  52
ATOM     52  C22 non d ame     -32.501  14.319  28.976  0.00  0.00     0.018 C 
ATOM     53  H33 non d ame     -33.312  14.007  29.633  0.00  0.00     0.048 H 
ATOM     54  H34 non d ame     -32.438  13.920  27.963  0.00  0.00     0.048 H 
BRANCH  52  55
ATOM     55  C23 non d ame     -31.187  13.895  29.687  0.00  0.00     0.259 C 
ATOM     56  O7  non d ame     -30.494  14.708  30.209  0.00  0.00    -0.265 OA
BRANCH  55  57
ATOM     57  O8  non d ame     -30.809  12.523  29.695  0.00  0.00    -0.317 OA
BRANCH  57  58
ATOM     58  C29 non d ame     -31.173  11.828  30.891  0.00  0.00     0.052 C 
ATOM     59  H47 non d ame     -30.400  11.075  31.041  0.00  0.00     0.082 H 
ATOM     60  H48 non d ame     -31.337  12.599  31.643  0.00  0.00     0.082 H 
BRANCH  58  61
ATOM     61  C35 non d ame     -32.521  11.101  30.632  0.00  0.00    -0.034 A 
ATOM     62  C30 non d ame     -32.677  10.308  29.499  0.00  0.00    -0.075 A 
ATOM     63  C31 non d ame     -33.888   9.656  29.266  0.00  0.00    -0.082 A 
ATOM     64  H49 non d ame     -31.853  10.198  28.795  0.00  0.00     0.084 H 
ATOM     65  C32 non d ame     -34.944   9.801  30.169  0.00  0.00    -0.083 A 
ATOM     66  H50 non d ame     -34.007   9.034  28.378  0.00  0.00     0.083 H 
ATOM     67  C33 non d ame     -34.784  10.596  31.295  0.00  0.00    -0.082 A 
ATOM     68  H51 non d ame     -35.893   9.294  29.994  0.00  0.00     0.083 H 
ATOM     69  C34 non d ame     -33.576  11.248  31.534  0.00  0.00    -0.075 A 
ATOM     70  H52 non d ame     -35.611  10.709  31.997  0.00  0.00     0.083 H 
ATOM     71  H53 non d ame     -33.457  11.870  32.422  0.00  0.00     0.084 H 
ENDBRANCH  58  61
ENDBRANCH  57  58
ENDBRANCH  55  57
ENDBRANCH  52  55
ENDBRANCH  49  52
ENDBRANCH  47  49
BRANCH  47  72
ATOM     72  C24 non d ame     -34.065  16.801  27.007  0.00  0.00    -0.039 C 
ATOM     73  H35 non d ame     -34.321  16.310  26.067  0.00  0.00     0.036 H 
ATOM     74  H36 non d ame     -34.676  16.633  27.893  0.00  0.00     0.036 H 
BRANCH  72  75
ATOM     75  C25 non d ame     -34.058  18.379  26.729  0.00  0.00    -0.001 C 
ATOM     76  C26 non d ame     -32.529  18.965  26.870  0.00  0.00    -0.035 C 
ATOM     77  C27 non d ame     -32.544  20.029  27.708  0.00  0.00     0.085 C 
ATOM     78  H38 non d ame     -31.897  18.242  27.386  0.00  0.00     0.036 H 
ATOM     79  H39 non d ame     -32.204  19.393  25.921  0.00  0.00     0.036 H 
ATOM     80  N5  non d ame     -33.881  20.020  28.408  0.00  0.00    -0.049 N 
ATOM     81  H40 non d ame     -31.759  19.834  28.440  0.00  0.00     0.075 H 
ATOM     82  H41 non d ame     -32.485  20.907  27.066  0.00  0.00     0.075 H 
ATOM     83  C28 non d ame     -34.815  19.005  27.569  0.00  0.00     0.193 C 
ATOM     84  H42 non d ame     -33.723  19.628  29.325  0.00  0.00     0.280 HD
ATOM     85  H43 non d ame     -34.258  20.953  28.316  0.00  0.00     0.280 HD
ATOM     86  H44 non d ame     -35.583  19.385  26.897  0.00  0.00     0.129 H 
ATOM     87  H37 non d ame     -34.610  18.642  25.827  0.00  0.00     0.046 H 
BRANCH  83  88
ATOM     88  O6  non d ame     -35.491  18.111  28.455  0.00  0.00    -0.369 OA
ATOM     89  H45 non d ame     -34.989  17.297  28.533  0.00  0.00     0.212 HD
ENDBRANCH  83  88
ENDBRANCH  72  75
ENDBRANCH  47  72
ENDBRANCH  45  47
ENDBRANCH   1  43
BRANCH   1  90
ATOM     90  C16 non d ame     -31.160  14.583  22.924  0.00  0.00    -0.035 C 
ATOM     91  H21 non d ame     -31.935  13.968  22.468  0.00  0.00     0.037 H 
ATOM     92  H22 non d ame     -31.271  15.667  22.951  0.00  0.00     0.037 H 
BRANCH  90  93
ATOM     93  C17 non d ame     -29.846  14.294  22.132  0.00  0.00    -0.059 C 
ATOM     94  H23 non d ame     -29.998  14.626  21.105  0.00  0.00     0.038 H 
BRANCH  93  95
ATOM     95  C18 non d ame     -28.624  15.076  22.711  0.00  0.00    -0.073 C 
ATOM     96  H24 non d ame     -28.977  15.962  23.239  0.00  0.00     0.028 H 
ATOM     97  H25 non d ame     -28.078  14.436  23.404  0.00  0.00     0.028 H 
ATOM     98  H26 non d ame     -27.965  15.376  21.897  0.00  0.00     0.028 H 
ENDBRANCH  93  95
BRANCH  93  99
ATOM     99  C19 non d ame     -29.556  12.791  22.084  0.00  0.00    -0.073 C 
ATOM    100  H27 non d ame     -28.799  12.590  21.326  0.00  0.00     0.028 H 
ATOM    101  H28 non d ame     -29.191  12.460  23.057  0.00  0.00     0.028 H 
ATOM    102  H29 non d ame     -30.471  12.252  21.838  0.00  0.00     0.028 H 
ENDBRANCH  93  99
ENDBRANCH  90  93
ENDBRANCH   1  90
TORSDOF 26
ENDMDL
MODEL 3
REMARK VINA RESULT:      -7.3      3.307      6.548
REMARK  26 active torsions:
REMARK  status: ('A' for Active; 'I' for Inactive)
REMARK    1  A    between atoms: C2_2  and  C3_3 
REMARK    2  A    between atoms: C4_6  and  C5_7 
REMARK       I    between atoms: C5_7  and  N2_9 
REMARK    3  A    between atoms: N2_9  and  C6_10 
REMARK    4  A    between atoms: C6_10  and  C7_11 
REMARK    5  A    between atoms: C6_10  and  C8_13 
REMARK       I    between atoms: C7_11  and  N3_14 
REMARK    6  A    between atoms: N3_14  and  C9_15 
REMARK    7  A    between atoms: C9_15  and  C10_16 
REMARK    8  A    between atoms: C9_15  and  C11_18 
REMARK       I    between atoms: C10_16  and  N4_21 
REMARK    9  A    between atoms: C11_18  and  C12_19 
REMARK   10  A    between atoms: C11_18  and  C13_20 
REMARK   11  A    between atoms: N4_21  and  C14_22 
REMARK   12  A    between atoms: C14_22  and  C15_23 
REMARK   13  A    between atoms: C14_22  and  C16_25 
REMARK       I    between atoms: C15_23  and  N6_40 
REMARK   14  A    between atoms: C16_25  and  C17_26 
REMARK   15  A    between atoms: C17_26  and  C18_27 
REMARK   16  A    between atoms: C17_26  and  C19_28 
REMARK   17  A    between atoms: C20_29  and  C21_30 
REMARK   18  A    between atoms: C20_29  and  C24_33 
REMARK   19  A    between atoms: C20_29  and  N6_40 
REMARK   20  A    between atoms: C21_30  and  C22_31 
REMARK   21  A    between atoms: C22_31  and  C23_32 
REMARK   22  A    between atoms: C23_32  and  O8_43 
REMARK   23  A    between atoms: C24_33  and  C25_34 
REMARK   24  A    between atoms: C28_38  and  O6_39 
REMARK   25  A    between atoms: C29_42  and  O8_43 
REMARK   26  A    between atoms: C29_42  and  C35_49 
ROOT
ATOM      1  C14 non d ame     -32.926  10.435  25.618  0.00  0.00     0.089 C 
ATOM      2  H20 non d ame     -33.653  10.512  24.809  0.00  0.00     0.087 H 
ENDROOT
BRANCH   1   3
ATOM      3  N4  non d ame     -32.365   9.093  25.576  0.00  0.00    -0.346 N 
ATOM      4  C10 non d ame     -33.070   7.995  24.821  0.00  0.00     0.241 C 
ATOM      5  O4  non d ame     -34.091   8.215  24.257  0.00  0.00    -0.271 OA
ATOM      6  H19 non d ame     -31.496   8.926  26.065  0.00  0.00     0.163 HD
BRANCH   4   7
ATOM      7  C9  non d ame     -32.472   6.614  24.784  0.00  0.00     0.092 C 
ATOM      8  H11 non d ame     -31.407   6.678  25.009  0.00  0.00     0.088 H 
BRANCH   7   9
ATOM      9  N3  non d ame     -33.086   5.786  25.825  0.00  0.00    -0.346 N 
ATOM     10  C7  non d ame     -32.631   5.888  27.189  0.00  0.00     0.240 C 
ATOM     11  O3  non d ame     -31.770   6.631  27.467  0.00  0.00    -0.271 OA
ATOM     12  H10 non d ame     -33.829   5.140  25.601  0.00  0.00     0.163 HD
BRANCH  10  13
ATOM     13  C6  non d ame     -33.288   5.002  28.293  0.00  0.00     0.086 C 
ATOM     14  H6  non d ame     -32.656   4.889  29.174  0.00  0.00     0.086 H 
BRANCH  13  15
ATOM     15  N2  non d ame     -34.515   5.640  28.741  0.00  0.00    -0.343 N 
ATOM     16  C5  non d ame     -34.908   5.539  30.149  0.00  0.00     0.273 C 
ATOM     17  O2  non d ame     -34.231   4.942  30.912  0.00  0.00    -0.266 OA
ATOM     18  H5  non d ame     -35.089   6.145  28.082  0.00  0.00     0.163 HD
BRANCH  16  19
ATOM     19  C4  non d ame     -36.201   6.210  30.636  0.00  0.00     0.154 A 
ATOM     20  C1  non d ame     -36.485   7.611  30.682  0.00  0.00    -0.017 A 
ATOM     21  C2  non d ame     -37.795   7.701  31.204  0.00  0.00     0.077 A 
ATOM     22  H1  non d ame     -35.840   8.437  30.383  0.00  0.00     0.091 H 
ATOM     23  O1  non d ame     -38.207   6.486  31.426  0.00  0.00    -0.218 OA
ATOM     24  N1  non d ame     -37.294   5.600  31.103  0.00  0.00    -0.123 NA
BRANCH  21  25
ATOM     25  C3  non d ame     -38.579   8.981  31.457  0.00  0.00    -0.029 C 
ATOM     26  H2  non d ame     -37.993   9.838  31.125  0.00  0.00     0.036 H 
ATOM     27  H3  non d ame     -39.518   8.948  30.904  0.00  0.00     0.036 H 
ATOM     28  H4  non d ame     -38.788   9.075  32.522  0.00  0.00     0.036 H 
ENDBRANCH  21  25
ENDBRANCH  16  19
ENDBRANCH  13  15
BRANCH  13  29
ATOM     29  C8  non d ame     -33.591   3.636  27.731  0.00  0.00    -0.049 C 
ATOM     30  H7  non d ame     -34.098   3.037  28.486  0.00  0.00     0.030 H 
ATOM     31  H8  non d ame     -34.234   3.739  26.856  0.00  0.00     0.030 H 
ATOM     32  H9  non d ame     -32.660   3.147  27.443  0.00  0.00     0.030 H 
ENDBRANCH  13  29
ENDBRANCH  10  13
ENDBRANCH   7   9
BRANCH   7  33
ATOM     33  C11 non d ame     -32.736   5.972  23.390  0.00  0.00    -0.033 C 
ATOM     34  H12 non d ame     -33.566   6.510  22.933  0.00  0.00     0.042 H 
BRANCH  33  35
ATOM     35  C12 non d ame     -31.500   6.126  22.449  0.00  0.00    -0.071 C 
ATOM     36  H13 non d ame     -31.726   6.854  21.670  0.00  0.00     0.028 H 
ATOM     37  H14 non d ame     -30.643   6.467  23.029  0.00  0.00     0.028 H 
ATOM     38  H15 non d ame     -31.270   5.164  21.991  0.00  0.00     0.028 H 
ENDBRANCH  33  35
BRANCH  33  39
ATOM     39  C13 non d ame     -33.154   4.473  23.535  0.00  0.00    -0.071 C 
ATOM     40  H16 non d ame     -33.276   4.230  24.591  0.00  0.00     0.028 H 
ATOM     41  H17 non d ame     -34.097   4.306  23.013  0.00  0.00     0.028 H 
ATOM     42  H18 non d ame     -32.383   3.837  23.102  0.00  0.00     0.028 H 
ENDBRANCH  33  39
ENDBRANCH   7  33
ENDBRANCH   4   7
ENDBRANCH   1   3
BRANCH   1  43
ATOM     43  C15 non d ame     -31.768  11.462  25.466  0.00  0.00     0.240 C 
ATOM     44  O5  non d ame     -30.673  11.174  25.828  0.00  0.00    -0.271 OA
ATOM     45  N6  non d ame     -32.021  12.800  24.861  0.00  0.00    -0.355 N 
ATOM     46  H46 non d ame     -32.946  13.053  24.545  0.00  0.00     0.162 HD
BRANCH  45  47
ATOM     47  C20 non d ame     -30.908  13.765  24.722  0.00  0.00     0.013 C 
ATOM     48  H30 non d ame     -30.084  13.418  25.346  0.00  0.00     0.072 H 
BRANCH  47  49
ATOM     49  C21 non d ame     -31.369  15.129  25.184  0.00  0.00    -0.038 C 
ATOM     50  H31 non d ame     -31.079  15.197  26.234  0.00  0.00     0.036 H 
ATOM     51  H32 non d ame     -30.965  15.836  24.461  0.00  0.00     0.036 H 
BRANCH  49  52
ATOM     52  C22 non d ame     -32.904  15.289  25.144  0.00  0.00     0.018 C 
ATOM     53  H33 non d ame     -33.109  15.954  24.306  0.00  0.00     0.048 H 
ATOM     54  H34 non d ame     -33.306  14.274  25.145  0.00  0.00     0.048 H 
BRANCH  52  55
ATOM     55  C23 non d ame     -33.494  15.985  26.400  0.00  0.00     0.259 C 
ATOM     56  O7  non d ame     -34.271  16.878  26.287  0.00  0.00    -0.265 OA
BRANCH  55  57
ATOM     57  O8  non d ame     -33.086  15.554  27.693  0.00  0.00    -0.317 OA
BRANCH  57  58
ATOM     58  C29 non d ame     -33.683  14.323  28.111  0.00  0.00     0.052 C 
ATOM     59  H47 non d ame     -34.489  14.602  28.789  0.00  0.00     0.082 H 
ATOM     60  H48 non d ame     -33.905  13.776  27.195  0.00  0.00     0.082 H 
BRANCH  58  61
ATOM     61  C35 non d ame     -32.622  13.524  28.914  0.00  0.00    -0.034 A 
ATOM     62  C30 non d ame     -33.001  12.796  30.038  0.00  0.00    -0.075 A 
ATOM     63  C31 non d ame     -32.047  12.079  30.759  0.00  0.00    -0.082 A 
ATOM     64  H49 non d ame     -34.044  12.789  30.354  0.00  0.00     0.084 H 
ATOM     65  C32 non d ame     -30.710  12.092  30.354  0.00  0.00    -0.083 A 
ATOM     66  H50 non d ame     -32.348  11.509  31.639  0.00  0.00     0.083 H 
ATOM     67  C33 non d ame     -30.336  12.822  29.234  0.00  0.00    -0.082 A 
ATOM     68  H51 non d ame     -29.959  11.533  30.912  0.00  0.00     0.083 H 
ATOM     69  C34 non d ame     -31.286  13.539  28.509  0.00  0.00    -0.075 A 
ATOM     70  H52 non d ame     -29.291  12.832  28.921  0.00  0.00     0.083 H 
ATOM     71  H53 non d ame     -30.984  14.108  27.629  0.00  0.00     0.084 H 
ENDBRANCH  58  61
ENDBRANCH  57  58
ENDBRANCH  55  57
ENDBRANCH  52  55
ENDBRANCH  49  52
ENDBRANCH  47  49
BRANCH  47  72
ATOM     72  C24 non d ame     -30.470  13.842  23.261  0.00  0.00    -0.039 C 
ATOM     73  H35 non d ame     -29.538  13.278  23.208  0.00  0.00     0.036 H 
ATOM     74  H36 non d ame     -31.335  13.519  22.682  0.00  0.00     0.036 H 
BRANCH  72  75
ATOM     75  C25 non d ame     -30.140  15.346  22.819  0.00  0.00    -0.001 C 
ATOM     76  C26 non d ame     -31.251  15.863  21.723  0.00  0.00    -0.035 C 
ATOM     77  C27 non d ame     -30.600  16.366  20.647  0.00  0.00     0.085 C 
ATOM     78  H38 non d ame     -31.799  15.014  21.316  0.00  0.00     0.036 H 
ATOM     79  H39 non d ame     -31.792  16.724  22.117  0.00  0.00     0.036 H 
ATOM     80  N5  non d ame     -29.157  15.940  20.765  0.00  0.00    -0.049 N 
ATOM     81  H40 non d ame     -31.046  15.874  19.781  0.00  0.00     0.075 H 
ATOM     82  H41 non d ame     -30.660  17.449  20.749  0.00  0.00     0.075 H 
ATOM     83  C28 non d ame     -28.967  15.430  22.285  0.00  0.00     0.193 C 
ATOM     84  H42 non d ame     -29.038  15.152  20.144  0.00  0.00     0.280 HD
ATOM     85  H43 non d ame     -28.601  16.774  20.634  0.00  0.00     0.280 HD
ATOM     86  H44 non d ame     -28.459  16.053  23.019  0.00  0.00     0.129 H 
ATOM     87  H37 non d ame     -29.947  15.994  23.674  0.00  0.00     0.046 H 
BRANCH  83  88
ATOM     88  O6  non d ame     -28.276  14.179  22.302  0.00  0.00    -0.369 OA
ATOM     89  H45 non d ame     -28.752  13.543  21.764  0.00  0.00     0.212 HD
ENDBRANCH  83  88
ENDBRANCH  72  75
ENDBRANCH  47  72
ENDBRANCH  45  47
ENDBRANCH   1  43
BRANCH   1  90
ATOM     90  C16 non d ame     -33.620  10.641  26.954  0.00  0.00    -0.035 C 
ATOM     91  H21 non d ame     -32.863  11.069  27.611  0.00  0.00     0.037 H 
ATOM     92  H22 non d ame     -34.524  11.205  26.726  0.00  0.00     0.037 H 
BRANCH  90  93
ATOM     93  C17 non d ame     -34.087   9.313  27.630  0.00  0.00    -0.059 C 
ATOM     94  H23 non d ame     -33.597   8.488  27.113  0.00  0.00     0.038 H 
BRANCH  93  95
ATOM     95  C18 non d ame     -33.679   9.242  29.136  0.00  0.00    -0.073 C 
ATOM     96  H24 non d ame     -34.296   9.930  29.713  0.00  0.00     0.028 H 
ATOM     97  H25 non d ame     -33.826   8.227  29.505  0.00  0.00     0.028 H 
ATOM     98  H26 non d ame     -32.630   9.518  29.242  0.00  0.00     0.028 H 
ENDBRANCH  93  95
BRANCH  93  99
ATOM     99  C19 non d ame     -35.597   9.118  27.466  0.00  0.00    -0.073 C 
ATOM    100  H27 non d ame     -36.118  10.017  27.797  0.00  0.00     0.028 H 
ATOM    101  H28 non d ame     -35.828   8.930  26.418  0.00  0.00     0.028 H 
ATOM    102  H29 non d ame     -35.921   8.268  28.066  0.00  0.00     0.028 H 
ENDBRANCH  93  99
ENDBRANCH  90  93
ENDBRANCH   1  90
TORSDOF 26
ENDMDL
MODEL 4
REMARK VINA RESULT:      -7.3      1.410      2.059
REMARK  26 active torsions:
REMARK  status: ('A' for Active; 'I' for Inactive)
REMARK    1  A    between atoms: C2_2  and  C3_3 
REMARK    2  A    between atoms: C4_6  and  C5_7 
REMARK       I    between atoms: C5_7  and  N2_9 
REMARK    3  A    between atoms: N2_9  and  C6_10 
REMARK    4  A    between atoms: C6_10  and  C7_11 
REMARK    5  A    between atoms: C6_10  and  C8_13 
REMARK       I    between atoms: C7_11  and  N3_14 
REMARK    6  A    between atoms: N3_14  and  C9_15 
REMARK    7  A    between atoms: C9_15  and  C10_16 
REMARK    8  A    between atoms: C9_15  and  C11_18 
REMARK       I    between atoms: C10_16  and  N4_21 
REMARK    9  A    between atoms: C11_18  and  C12_19 
REMARK   10  A    between atoms: C11_18  and  C13_20 
REMARK   11  A    between atoms: N4_21  and  C14_22 
REMARK   12  A    between atoms: C14_22  and  C15_23 
REMARK   13  A    between atoms: C14_22  and  C16_25 
REMARK       I    between atoms: C15_23  and  N6_40 
REMARK   14  A    between atoms: C16_25  and  C17_26 
REMARK   15  A    between atoms: C17_26  and  C18_27 
REMARK   16  A    between atoms: C17_26  and  C19_28 
REMARK   17  A    between atoms: C20_29  and  C21_30 
REMARK   18  A    between atoms: C20_29  and  C24_33 
REMARK   19  A    between atoms: C20_29  and  N6_40 
REMARK   20  A    between atoms: C21_30  and  C22_31 
REMARK   21  A    between atoms: C22_31  and  C23_32 
REMARK   22  A    between atoms: C23_32  and  O8_43 
REMARK   23  A    between atoms: C24_33  and  C25_34 
REMARK   24  A    between atoms: C28_38  and  O6_39 
REMARK   25  A    between atoms: C29_42  and  O8_43 
REMARK   26  A    between atoms: C29_42  and  C35_49 
ROOT
ATOM      1  C14 non d ame     -30.738  13.888  24.020  0.00  0.00     0.089 C 
ATOM      2  H20 non d ame     -29.660  13.897  23.856  0.00  0.00     0.087 H 
ENDROOT
BRANCH   1   3
ATOM      3  N4  non d ame     -31.156  12.496  24.103  0.00  0.00    -0.346 N 
ATOM      4  C10 non d ame     -30.520  11.456  23.215  0.00  0.00     0.241 C 
ATOM      5  O4  non d ame     -29.677  11.763  22.439  0.00  0.00    -0.271 OA
ATOM      6  H19 non d ame     -31.876  12.255  24.769  0.00  0.00     0.163 HD
BRANCH   4   7
ATOM      7  C9  non d ame     -30.960  10.019  23.319  0.00  0.00     0.092 C 
ATOM      8  H11 non d ame     -30.644   9.616  24.281  0.00  0.00     0.088 H 
BRANCH   7   9
ATOM      9  N3  non d ame     -32.423   9.952  23.279  0.00  0.00    -0.346 N 
ATOM     10  C7  non d ame     -33.152   9.440  24.414  0.00  0.00     0.240 C 
ATOM     11  O3  non d ame     -32.576   9.077  25.366  0.00  0.00    -0.271 OA
ATOM     12  H10 non d ame     -32.934  10.260  22.465  0.00  0.00     0.163 HD
BRANCH  10  13
ATOM     13  C6  non d ame     -34.710   9.368  24.365  0.00  0.00     0.086 C 
ATOM     14  H6  non d ame     -35.130   8.770  25.174  0.00  0.00     0.086 H 
BRANCH  13  15
ATOM     15  N2  non d ame     -35.249  10.709  24.518  0.00  0.00    -0.343 N 
ATOM     16  C5  non d ame     -35.760  11.137  25.822  0.00  0.00     0.273 C 
ATOM     17  O2  non d ame     -35.736  10.395  26.741  0.00  0.00    -0.266 OA
ATOM     18  H5  non d ame     -35.269  11.336  23.726  0.00  0.00     0.163 HD
BRANCH  16  19
ATOM     19  C4  non d ame     -36.331  12.553  25.998  0.00  0.00     0.154 A 
ATOM     20  C1  non d ame     -36.239  13.643  25.075  0.00  0.00    -0.017 A 
ATOM     21  C2  non d ame     -36.919  14.710  25.704  0.00  0.00     0.077 A 
ATOM     22  H1  non d ame     -35.753  13.658  24.100  0.00  0.00     0.091 H 
ATOM     23  O1  non d ame     -37.349  14.272  26.852  0.00  0.00    -0.218 OA
ATOM     24  N1  non d ame     -37.017  13.017  27.045  0.00  0.00    -0.123 NA
BRANCH  21  25
ATOM     25  C3  non d ame     -37.113  16.112  25.141  0.00  0.00    -0.029 C 
ATOM     26  H2  non d ame     -38.170  16.377  25.183  0.00  0.00     0.036 H 
ATOM     27  H3  non d ame     -36.538  16.824  25.733  0.00  0.00     0.036 H 
ATOM     28  H4  non d ame     -36.773  16.139  24.107  0.00  0.00     0.036 H 
ENDBRANCH  21  25
ENDBRANCH  16  19
ENDBRANCH  13  15
BRANCH  13  29
ATOM     29  C8  non d ame     -35.148   8.782  23.047  0.00  0.00    -0.049 C 
ATOM     30  H7  non d ame     -35.227   9.576  22.305  0.00  0.00     0.030 H 
ATOM     31  H8  non d ame     -34.414   8.047  22.715  0.00  0.00     0.030 H 
ATOM     32  H9  non d ame     -36.118   8.299  23.168  0.00  0.00     0.030 H 
ENDBRANCH  13  29
ENDBRANCH  10  13
ENDBRANCH   7   9
BRANCH   7  33
ATOM     33  C11 non d ame     -30.373   9.210  22.125  0.00  0.00    -0.033 C 
ATOM     34  H12 non d ame     -30.196   9.911  21.309  0.00  0.00     0.042 H 
BRANCH  33  35
ATOM     35  C12 non d ame     -29.002   8.564  22.495  0.00  0.00    -0.071 C 
ATOM     36  H13 non d ame     -28.826   7.696  21.859  0.00  0.00     0.028 H 
ATOM     37  H14 non d ame     -28.205   9.292  22.344  0.00  0.00     0.028 H 
ATOM     38  H15 non d ame     -29.017   8.251  23.539  0.00  0.00     0.028 H 
ENDBRANCH  33  35
BRANCH  33  39
ATOM     39  C13 non d ame     -31.390   8.134  21.626  0.00  0.00    -0.071 C 
ATOM     40  H16 non d ame     -31.277   7.999  20.549  0.00  0.00     0.028 H 
ATOM     41  H17 non d ame     -31.198   7.188  22.133  0.00  0.00     0.028 H 
ATOM     42  H18 non d ame     -32.405   8.463  21.846  0.00  0.00     0.028 H 
ENDBRANCH  33  39
ENDBRANCH   7  33
ENDBRANCH   4   7
ENDBRANCH   1   3
BRANCH   1  43
ATOM     43  C15 non d ame     -31.139  14.604  25.341  0.00  0.00     0.240 C 
ATOM     44  O5  non d ame     -30.660  14.255  26.371  0.00  0.00    -0.271 OA
ATOM     45  N6  non d ame     -32.111  15.734  25.321  0.00  0.00    -0.355 N 
ATOM     46  H46 non d ame     -32.520  16.043  24.450  0.00  0.00     0.162 HD
BRANCH  45  47
ATOM     47  C20 non d ame     -32.481  16.407  26.585  0.00  0.00     0.013 C 
ATOM     48  H30 non d ame     -31.657  16.275  27.288  0.00  0.00     0.072 H 
BRANCH  47  49
ATOM     49  C21 non d ame     -33.738  15.775  27.139  0.00  0.00    -0.038 C 
ATOM     50  H31 non d ame     -34.477  16.577  27.180  0.00  0.00     0.036 H 
ATOM     51  H32 non d ame     -33.921  14.896  26.523  0.00  0.00     0.036 H 
BRANCH  49  52
ATOM     52  C22 non d ame     -33.566  15.267  28.586  0.00  0.00     0.018 C 
ATOM     53  H33 non d ame     -34.324  15.784  29.173  0.00  0.00     0.048 H 
ATOM     54  H34 non d ame     -33.578  14.178  28.520  0.00  0.00     0.048 H 
BRANCH  52  55
ATOM     55  C23 non d ame     -32.200  15.642  29.225  0.00  0.00     0.259 C 
ATOM     56  O7  non d ame     -32.045  16.701  29.739  0.00  0.00    -0.265 OA
BRANCH  55  57
ATOM     57  O8  non d ame     -31.128  14.707  29.175  0.00  0.00    -0.317 OA
BRANCH  57  58
ATOM     58  C29 non d ame     -31.072  13.827  30.302  0.00  0.00     0.052 C 
ATOM     59  H47 non d ame     -30.016  13.599  30.444  0.00  0.00     0.082 H 
ATOM     60  H48 non d ame     -31.635  14.322  31.092  0.00  0.00     0.082 H 
BRANCH  58  61
ATOM     61  C35 non d ame     -31.810  12.515  29.922  0.00  0.00    -0.034 A 
ATOM     62  C30 non d ame     -32.511  11.805  30.891  0.00  0.00    -0.075 A 
ATOM     63  C31 non d ame     -33.174  10.626  30.550  0.00  0.00    -0.082 A 
ATOM     64  H49 non d ame     -32.541  12.171  31.917  0.00  0.00     0.084 H 
ATOM     65  C32 non d ame     -33.132  10.158  29.234  0.00  0.00    -0.083 A 
ATOM     66  H50 non d ame     -33.724  10.073  31.312  0.00  0.00     0.083 H 
ATOM     67  C33 non d ame     -32.428  10.868  28.271  0.00  0.00    -0.082 A 
ATOM     68  H51 non d ame     -33.648   9.238  28.960  0.00  0.00     0.083 H 
ATOM     69  C34 non d ame     -31.766  12.047  28.607  0.00  0.00    -0.075 A 
ATOM     70  H52 non d ame     -32.395  10.499  27.246  0.00  0.00     0.083 H 
ATOM     71  H53 non d ame     -31.217  12.600  27.845  0.00  0.00     0.084 H 
ENDBRANCH  58  61
ENDBRANCH  57  58
ENDBRANCH  55  57
ENDBRANCH  52  55
ENDBRANCH  49  52
ENDBRANCH  47  49
BRANCH  47  72
ATOM     72  C24 non d ame     -32.726  17.892  26.328  0.00  0.00    -0.039 C 
ATOM     73  H35 non d ame     -31.914  18.412  26.838  0.00  0.00     0.036 H 
ATOM     74  H36 non d ame     -32.838  17.984  25.248  0.00  0.00     0.036 H 
BRANCH  72  75
ATOM     75  C25 non d ame     -34.097  18.390  26.990  0.00  0.00    -0.001 C 
ATOM     76  C26 non d ame     -35.033  19.123  25.854  0.00  0.00    -0.035 C 
ATOM     77  C27 non d ame     -35.421  20.333  26.323  0.00  0.00     0.085 C 
ATOM     78  H38 non d ame     -34.433  19.370  24.978  0.00  0.00     0.036 H 
ATOM     79  H39 non d ame     -35.972  18.582  25.737  0.00  0.00     0.036 H 
ATOM     80  N5  non d ame     -34.570  20.631  27.534  0.00  0.00    -0.049 N 
ATOM     81  H40 non d ame     -35.176  21.044  25.533  0.00  0.00     0.075 H 
ATOM     82  H41 non d ame     -36.456  20.204  26.639  0.00  0.00     0.075 H 
ATOM     83  C28 non d ame     -33.877  19.232  27.945  0.00  0.00     0.193 C 
ATOM     84  H42 non d ame     -33.850  21.269  27.229  0.00  0.00     0.280 HD
ATOM     85  H43 non d ame     -35.207  20.902  28.270  0.00  0.00     0.280 HD
ATOM     86  H44 non d ame     -34.241  18.662  28.798  0.00  0.00     0.129 H 
ATOM     87  H37 non d ame     -34.568  17.616  27.596  0.00  0.00     0.046 H 
BRANCH  83  88
ATOM     88  O6  non d ame     -32.481  19.424  28.182  0.00  0.00    -0.369 OA
ATOM     89  H45 non d ame     -32.346  20.257  28.640  0.00  0.00     0.212 HD
ENDBRANCH  83  88
ENDBRANCH  72  75
ENDBRANCH  47  72
ENDBRANCH  45  47
ENDBRANCH   1  43
BRANCH   1  90
ATOM     90  C16 non d ame     -31.444  14.548  22.846  0.00  0.00    -0.035 C 
ATOM     91  H21 non d ame     -31.771  13.728  22.208  0.00  0.00     0.037 H 
ATOM     92  H22 non d ame     -32.179  15.218  23.291  0.00  0.00     0.037 H 
BRANCH  90  93
ATOM     93  C17 non d ame     -30.505  15.439  21.972  0.00  0.00    -0.059 C 
ATOM     94  H23 non d ame     -30.774  16.479  22.152  0.00  0.00     0.038 H 
BRANCH  93  95
ATOM     95  C18 non d ame     -29.001  15.262  22.353  0.00  0.00    -0.073 C 
ATOM     96  H24 non d ame     -28.915  14.548  23.172  0.00  0.00     0.028 H 
ATOM     97  H25 non d ame     -28.449  14.889  21.490  0.00  0.00     0.028 H 
ATOM     98  H26 non d ame     -28.588  16.221  22.661  0.00  0.00     0.028 H 
ENDBRANCH  93  95
BRANCH  93  99
ATOM     99  C19 non d ame     -30.725  15.164  20.481  0.00  0.00    -0.073 C 
ATOM    100  H27 non d ame     -31.532  14.442  20.359  0.00  0.00     0.028 H 
ATOM    101  H28 non d ame     -30.990  16.093  19.976  0.00  0.00     0.028 H 
ATOM    102  H29 non d ame     -29.809  14.764  20.047  0.00  0.00     0.028 H 
ENDBRANCH  93  99
ENDBRANCH  90  93
ENDBRANCH   1  90
TORSDOF 26
ENDMDL
MODEL 5
REMARK VINA RESULT:      -7.3      2.288      5.822
REMARK  26 active torsions:
REMARK  status: ('A' for Active; 'I' for Inactive)
REMARK    1  A    between atoms: C2_2  and  C3_3 
REMARK    2  A    between atoms: C4_6  and  C5_7 
REMARK       I    between atoms: C5_7  and  N2_9 
REMARK    3  A    between atoms: N2_9  and  C6_10 
REMARK    4  A    between atoms: C6_10  and  C7_11 
REMARK    5  A    between atoms: C6_10  and  C8_13 
REMARK       I    between atoms: C7_11  and  N3_14 
REMARK    6  A    between atoms: N3_14  and  C9_15 
REMARK    7  A    between atoms: C9_15  and  C10_16 
REMARK    8  A    between atoms: C9_15  and  C11_18 
REMARK       I    between atoms: C10_16  and  N4_21 
REMARK    9  A    between atoms: C11_18  and  C12_19 
REMARK   10  A    between atoms: C11_18  and  C13_20 
REMARK   11  A    between atoms: N4_21  and  C14_22 
REMARK   12  A    between atoms: C14_22  and  C15_23 
REMARK   13  A    between atoms: C14_22  and  C16_25 
REMARK       I    between atoms: C15_23  and  N6_40 
REMARK   14  A    between atoms: C16_25  and  C17_26 
REMARK   15  A    between atoms: C17_26  and  C18_27 
REMARK   16  A    between atoms: C17_26  and  C19_28 
REMARK   17  A    between atoms: C20_29  and  C21_30 
REMARK   18  A    between atoms: C20_29  and  C24_33 
REMARK   19  A    between atoms: C20_29  and  N6_40 
REMARK   20  A    between atoms: C21_30  and  C22_31 
REMARK   21  A    between atoms: C22_31  and  C23_32 
REMARK   22  A    between atoms: C23_32  and  O8_43 
REMARK   23  A    between atoms: C24_33  and  C25_34 
REMARK   24  A    between atoms: C28_38  and  O6_39 
REMARK   25  A    between atoms: C29_42  and  O8_43 
REMARK   26  A    between atoms: C29_42  and  C35_49 
ROOT
ATOM      1  C14 non d ame     -31.121  13.999  24.621  0.00  0.00     0.089 C 
ATOM      2  H20 non d ame     -30.170  13.927  25.149  0.00  0.00     0.087 H 
ENDROOT
BRANCH   1   3
ATOM      3  N4  non d ame     -31.473  12.662  24.168  0.00  0.00    -0.346 N 
ATOM      4  C10 non d ame     -31.239  11.469  25.060  0.00  0.00     0.241 C 
ATOM      5  O4  non d ame     -30.764  11.609  26.138  0.00  0.00    -0.271 OA
ATOM      6  H19 non d ame     -31.875  12.563  23.246  0.00  0.00     0.163 HD
BRANCH   4   7
ATOM      7  C9  non d ame     -31.615  10.093  24.577  0.00  0.00     0.092 C 
ATOM      8  H11 non d ame     -30.948   9.359  25.030  0.00  0.00     0.088 H 
BRANCH   7   9
ATOM      9  N3  non d ame     -32.975   9.773  25.018  0.00  0.00    -0.346 N 
ATOM     10  C7  non d ame     -33.189   8.752  26.014  0.00  0.00     0.240 C 
ATOM     11  O3  non d ame     -32.277   8.176  26.469  0.00  0.00    -0.271 OA
ATOM     12  H10 non d ame     -33.772  10.260  24.634  0.00  0.00     0.163 HD
BRANCH  10  13
ATOM     13  C6  non d ame     -34.639   8.414  26.478  0.00  0.00     0.086 C 
ATOM     14  H6  non d ame     -34.825   7.341  26.535  0.00  0.00     0.086 H 
BRANCH  13  15
ATOM     15  N2  non d ame     -34.840   8.941  27.818  0.00  0.00    -0.343 N 
ATOM     16  C5  non d ame     -34.655   8.061  28.975  0.00  0.00     0.273 C 
ATOM     17  O2  non d ame     -34.348   6.931  28.816  0.00  0.00    -0.266 OA
ATOM     18  H5  non d ame     -35.107   9.907  27.944  0.00  0.00     0.163 HD
BRANCH  16  19
ATOM     19  C4  non d ame     -34.862   8.606  30.396  0.00  0.00     0.154 A 
ATOM     20  C1  non d ame     -35.120   9.961  30.774  0.00  0.00    -0.017 A 
ATOM     21  C2  non d ame     -35.230   9.932  32.183  0.00  0.00     0.077 A 
ATOM     22  H1  non d ame     -35.212  10.833  30.127  0.00  0.00     0.091 H 
ATOM     23  O1  non d ame     -35.057   8.698  32.559  0.00  0.00    -0.218 OA
ATOM     24  N1  non d ame     -34.840   7.906  31.534  0.00  0.00    -0.123 NA
BRANCH  21  25
ATOM     25  C3  non d ame     -35.503  11.124  33.091  0.00  0.00    -0.029 C 
ATOM     26  H2  non d ame     -35.797  10.768  34.079  0.00  0.00     0.036 H 
ATOM     27  H3  non d ame     -34.601  11.729  33.177  0.00  0.00     0.036 H 
ATOM     28  H4  non d ame     -36.306  11.726  32.669  0.00  0.00     0.036 H 
ENDBRANCH  21  25
ENDBRANCH  16  19
ENDBRANCH  13  15
BRANCH  13  29
ATOM     29  C8  non d ame     -35.632   9.032  25.526  0.00  0.00    -0.049 C 
ATOM     30  H7  non d ame     -35.106   9.672  24.818  0.00  0.00     0.030 H 
ATOM     31  H8  non d ame     -36.154   8.244  24.984  0.00  0.00     0.030 H 
ATOM     32  H9  non d ame     -36.353   9.626  26.088  0.00  0.00     0.030 H 
ENDBRANCH  13  29
ENDBRANCH  10  13
ENDBRANCH   7   9
BRANCH   7  33
ATOM     33  C11 non d ame     -31.555  10.056  23.022  0.00  0.00    -0.033 C 
ATOM     34  H12 non d ame     -32.003  10.980  22.654  0.00  0.00     0.042 H 
BRANCH  33  35
ATOM     35  C12 non d ame     -30.081  10.012  22.510  0.00  0.00    -0.071 C 
ATOM     36  H13 non d ame     -29.561  10.918  22.822  0.00  0.00     0.028 H 
ATOM     37  H14 non d ame     -29.578   9.141  22.928  0.00  0.00     0.028 H 
ATOM     38  H15 non d ame     -30.076   9.948  21.422  0.00  0.00     0.028 H 
ENDBRANCH  33  35
BRANCH  33  39
ATOM     39  C13 non d ame     -32.386   8.859  22.458  0.00  0.00    -0.071 C 
ATOM     40  H16 non d ame     -33.000   8.436  23.253  0.00  0.00     0.028 H 
ATOM     41  H17 non d ame     -33.029   9.210  21.650  0.00  0.00     0.028 H 
ATOM     42  H18 non d ame     -31.709   8.095  22.076  0.00  0.00     0.028 H 
ENDBRANCH  33  39
ENDBRANCH   7  33
ENDBRANCH   4   7
ENDBRANCH   1   3
BRANCH   1  43
ATOM     43  C15 non d ame     -32.262  14.529  25.536  0.00  0.00     0.240 C 
ATOM     44  O5  non d ame     -33.364  14.100  25.413  0.00  0.00    -0.271 OA
ATOM     45  N6  non d ame     -31.980  15.563  26.571  0.00  0.00    -0.355 N 
ATOM     46  H46 non d ame     -31.046  15.930  26.688  0.00  0.00     0.162 HD
BRANCH  45  47
ATOM     47  C20 non d ame     -33.075  16.055  27.435  0.00  0.00     0.013 C 
ATOM     48  H30 non d ame     -34.019  15.847  26.931  0.00  0.00     0.072 H 
BRANCH  47  49
ATOM     49  C21 non d ame     -32.917  17.544  27.642  0.00  0.00    -0.038 C 
ATOM     50  H31 non d ame     -33.902  17.906  27.940  0.00  0.00     0.036 H 
ATOM     51  H32 non d ame     -32.068  17.659  28.315  0.00  0.00     0.036 H 
BRANCH  49  52
ATOM     52  C22 non d ame     -32.551  18.295  26.344  0.00  0.00     0.018 C 
ATOM     53  H33 non d ame     -31.520  18.621  26.472  0.00  0.00     0.048 H 
ATOM     54  H34 non d ame     -32.811  17.617  25.529  0.00  0.00     0.048 H 
BRANCH  52  55
ATOM     55  C23 non d ame     -33.385  19.585  26.110  0.00  0.00     0.259 C 
ATOM     56  O7  non d ame     -33.260  20.523  26.829  0.00  0.00    -0.265 OA
BRANCH  55  57
ATOM     57  O8  non d ame     -34.313  19.629  25.033  0.00  0.00    -0.317 OA
BRANCH  57  58
ATOM     58  C29 non d ame     -35.682  19.684  25.447  0.00  0.00     0.052 C 
ATOM     59  H47 non d ame     -35.706  20.370  26.293  0.00  0.00     0.082 H 
ATOM     60  H48 non d ame     -36.253  19.908  24.546  0.00  0.00     0.082 H 
BRANCH  58  61
ATOM     61  C35 non d ame     -36.088  18.272  25.947  0.00  0.00    -0.034 A 
ATOM     62  C30 non d ame     -36.559  18.102  27.245  0.00  0.00    -0.075 A 
ATOM     63  C31 non d ame     -36.924  16.833  27.695  0.00  0.00    -0.082 A 
ATOM     64  H49 non d ame     -36.642  18.961  27.910  0.00  0.00     0.084 H 
ATOM     65  C32 non d ame     -36.813  15.732  26.841  0.00  0.00    -0.083 A 
ATOM     66  H50 non d ame     -37.294  16.704  28.712  0.00  0.00     0.083 H 
ATOM     67  C33 non d ame     -36.340  15.906  25.548  0.00  0.00    -0.082 A 
ATOM     68  H51 non d ame     -37.097  14.738  27.185  0.00  0.00     0.083 H 
ATOM     69  C34 non d ame     -35.976  17.173  25.094  0.00  0.00    -0.075 A 
ATOM     70  H52 non d ame     -36.253  15.045  24.885  0.00  0.00     0.083 H 
ATOM     71  H53 non d ame     -35.607  17.301  24.076  0.00  0.00     0.084 H 
ENDBRANCH  58  61
ENDBRANCH  57  58
ENDBRANCH  55  57
ENDBRANCH  52  55
ENDBRANCH  49  52
ENDBRANCH  47  49
BRANCH  47  72
ATOM     72  C24 non d ame     -33.027  15.344  28.786  0.00  0.00    -0.039 C 
ATOM     73  H35 non d ame     -32.999  16.140  29.531  0.00  0.00     0.036 H 
ATOM     74  H36 non d ame     -33.859  14.640  28.772  0.00  0.00     0.036 H 
BRANCH  72  75
ATOM     75  C25 non d ame     -31.685  14.486  28.958  0.00  0.00    -0.001 C 
ATOM     76  C26 non d ame     -32.059  12.937  29.360  0.00  0.00    -0.035 C 
ATOM     77  C27 non d ame     -31.346  12.586  30.457  0.00  0.00     0.085 C 
ATOM     78  H38 non d ame     -33.094  12.877  29.698  0.00  0.00     0.036 H 
ATOM     79  H39 non d ame     -31.696  12.253  28.592  0.00  0.00     0.036 H 
ATOM     80  N5  non d ame     -30.770  13.857  31.033  0.00  0.00    -0.049 N 
ATOM     81  H40 non d ame     -32.074  12.176  31.158  0.00  0.00     0.075 H 
ATOM     82  H41 non d ame     -30.533  11.962  30.089  0.00  0.00     0.075 H 
ATOM     83  C28 non d ame     -30.931  14.979  29.883  0.00  0.00     0.193 C 
ATOM     84  H42 non d ame     -31.358  14.110  31.814  0.00  0.00     0.280 HD
ATOM     85  H43 non d ame     -29.785  13.684  31.178  0.00  0.00     0.280 HD
ATOM     86  H44 non d ame     -30.072  15.294  29.292  0.00  0.00     0.129 H 
ATOM     87  H37 non d ame     -30.994  14.631  28.128  0.00  0.00     0.046 H 
BRANCH  83  88
ATOM     88  O6  non d ame     -31.473  16.179  30.438  0.00  0.00    -0.369 OA
ATOM     89  H45 non d ame     -31.003  16.937  30.083  0.00  0.00     0.212 HD
ENDBRANCH  83  88
ENDBRANCH  72  75
ENDBRANCH  47  72
ENDBRANCH  45  47
ENDBRANCH   1  43
BRANCH   1  90
ATOM     90  C16 non d ame     -30.971  14.909  23.412  0.00  0.00    -0.035 C 
ATOM     91  H21 non d ame     -31.952  14.923  22.938  0.00  0.00     0.037 H 
ATOM     92  H22 non d ame     -30.540  15.832  23.797  0.00  0.00     0.037 H 
BRANCH  90  93
ATOM     93  C17 non d ame     -29.973  14.368  22.340  0.00  0.00    -0.059 C 
ATOM     94  H23 non d ame     -30.024  13.280  22.359  0.00  0.00     0.038 H 
BRANCH  93  95
ATOM     95  C18 non d ame     -30.344  14.839  20.898  0.00  0.00    -0.073 C 
ATOM     96  H24 non d ame     -31.381  15.173  20.880  0.00  0.00     0.028 H 
ATOM     97  H25 non d ame     -29.693  15.663  20.605  0.00  0.00     0.028 H 
ATOM     98  H26 non d ame     -30.217  14.011  20.201  0.00  0.00     0.028 H 
ENDBRANCH  93  95
BRANCH  93  99
ATOM     99  C19 non d ame     -28.534  14.760  22.687  0.00  0.00    -0.073 C 
ATOM    100  H27 non d ame     -28.503  15.180  23.693  0.00  0.00     0.028 H 
ATOM    101  H28 non d ame     -27.895  13.878  22.643  0.00  0.00     0.028 H 
ATOM    102  H29 non d ame     -28.177  15.502  21.972  0.00  0.00     0.028 H 
ENDBRANCH  93  99
ENDBRANCH  90  93
ENDBRANCH   1  90
TORSDOF 26
ENDMDL
MODEL 6
REMARK VINA RESULT:      -7.2      1.807      3.485
REMARK  26 active torsions:
REMARK  status: ('A' for Active; 'I' for Inactive)
REMARK    1  A    between atoms: C2_2  and  C3_3 
REMARK    2  A    between atoms: C4_6  and  C5_7 
REMARK       I    between atoms: C5_7  and  N2_9 
REMARK    3  A    between atoms: N2_9  and  C6_10 
REMARK    4  A    between atoms: C6_10  and  C7_11 
REMARK    5  A    between atoms: C6_10  and  C8_13 
REMARK       I    between atoms: C7_11  and  N3_14 
REMARK    6  A    between atoms: N3_14  and  C9_15 
REMARK    7  A    between atoms: C9_15  and  C10_16 
REMARK    8  A    between atoms: C9_15  and  C11_18 
REMARK       I    between atoms: C10_16  and  N4_21 
REMARK    9  A    between atoms: C11_18  and  C12_19 
REMARK   10  A    between atoms: C11_18  and  C13_20 
REMARK   11  A    between atoms: N4_21  and  C14_22 
REMARK   12  A    between atoms: C14_22  and  C15_23 
REMARK   13  A    between atoms: C14_22  and  C16_25 
REMARK       I    between atoms: C15_23  and  N6_40 
REMARK   14  A    between atoms: C16_25  and  C17_26 
REMARK   15  A    between atoms: C17_26  and  C18_27 
REMARK   16  A    between atoms: C17_26  and  C19_28 
REMARK   17  A    between atoms: C20_29  and  C21_30 
REMARK   18  A    between atoms: C20_29  and  C24_33 
REMARK   19  A    between atoms: C20_29  and  N6_40 
REMARK   20  A    between atoms: C21_30  and  C22_31 
REMARK   21  A    between atoms: C22_31  and  C23_32 
REMARK   22  A    between atoms: C23_32  and  O8_43 
REMARK   23  A    between atoms: C24_33  and  C25_34 
REMARK   24  A    between atoms: C28_38  and  O6_39 
REMARK   25  A    between atoms: C29_42  and  O8_43 
REMARK   26  A    between atoms: C29_42  and  C35_49 
ROOT
ATOM      1  C14 non d ame     -30.665  14.019  23.867  0.00  0.00     0.089 C 
ATOM      2  H20 non d ame     -29.582  13.901  23.811  0.00  0.00     0.087 H 
ENDROOT
BRANCH   1   3
ATOM      3  N4  non d ame     -31.238  12.700  24.087  0.00  0.00    -0.346 N 
ATOM      4  C10 non d ame     -30.655  11.491  23.399  0.00  0.00     0.241 C 
ATOM      5  O4  non d ame     -29.726  11.605  22.670  0.00  0.00    -0.271 OA
ATOM      6  H19 non d ame     -32.030  12.625  24.709  0.00  0.00     0.163 HD
BRANCH   4   7
ATOM      7  C9  non d ame     -31.258  10.133  23.644  0.00  0.00     0.092 C 
ATOM      8  H11 non d ame     -30.753   9.663  24.489  0.00  0.00     0.088 H 
BRANCH   7   9
ATOM      9  N3  non d ame     -32.669  10.283  24.010  0.00  0.00    -0.346 N 
ATOM     10  C7  non d ame     -33.078  10.123  25.384  0.00  0.00     0.240 C 
ATOM     11  O3  non d ame     -32.285   9.872  26.207  0.00  0.00    -0.271 OA
ATOM     12  H10 non d ame     -33.365  10.497  23.311  0.00  0.00     0.163 HD
BRANCH  10  13
ATOM     13  C6  non d ame     -34.582  10.280  25.767  0.00  0.00     0.086 C 
ATOM     14  H6  non d ame     -35.256   9.973  24.967  0.00  0.00     0.086 H 
BRANCH  13  15
ATOM     15  N2  non d ame     -34.871   9.423  26.905  0.00  0.00    -0.343 N 
ATOM     16  C5  non d ame     -35.425   8.086  26.678  0.00  0.00     0.273 C 
ATOM     17  O2  non d ame     -35.637   7.711  25.578  0.00  0.00    -0.266 OA
ATOM     18  H5  non d ame     -34.690   9.753  27.842  0.00  0.00     0.163 HD
BRANCH  16  19
ATOM     19  C4  non d ame     -35.732   7.168  27.872  0.00  0.00     0.154 A 
ATOM     20  C1  non d ame     -36.887   7.206  28.716  0.00  0.00    -0.017 A 
ATOM     21  C2  non d ame     -36.688   6.165  29.651  0.00  0.00     0.077 A 
ATOM     22  H1  non d ame     -37.738   7.885  28.661  0.00  0.00     0.091 H 
ATOM     23  O1  non d ame     -35.551   5.600  29.365  0.00  0.00    -0.218 OA
ATOM     24  N1  non d ame     -34.975   6.169  28.332  0.00  0.00    -0.123 NA
BRANCH  21  25
ATOM     25  C3  non d ame     -37.632   5.776  30.781  0.00  0.00    -0.029 C 
ATOM     26  H2  non d ame     -38.233   6.639  31.066  0.00  0.00     0.036 H 
ATOM     27  H3  non d ame     -38.288   4.972  30.446  0.00  0.00     0.036 H 
ATOM     28  H4  non d ame     -37.052   5.438  31.638  0.00  0.00     0.036 H 
ENDBRANCH  21  25
ENDBRANCH  16  19
ENDBRANCH  13  15
BRANCH  13  29
ATOM     29  C8  non d ame     -34.866  11.719  26.119  0.00  0.00    -0.049 C 
ATOM     30  H7  non d ame     -34.342  12.374  25.424  0.00  0.00     0.030 H 
ATOM     31  H8  non d ame     -35.939  11.903  26.053  0.00  0.00     0.030 H 
ATOM     32  H9  non d ame     -34.525  11.918  27.135  0.00  0.00     0.030 H 
ENDBRANCH  13  29
ENDBRANCH  10  13
ENDBRANCH   7   9
BRANCH   7  33
ATOM     33  C11 non d ame     -31.148   9.276  22.349  0.00  0.00    -0.033 C 
ATOM     34  H12 non d ame     -30.961   9.959  21.519  0.00  0.00     0.042 H 
BRANCH  33  35
ATOM     35  C12 non d ame     -29.945   8.285  22.421  0.00  0.00    -0.071 C 
ATOM     36  H13 non d ame     -29.745   8.032  23.462  0.00  0.00     0.028 H 
ATOM     37  H14 non d ame     -30.188   7.379  21.868  0.00  0.00     0.028 H 
ATOM     38  H15 non d ame     -29.062   8.752  21.986  0.00  0.00     0.028 H 
ENDBRANCH  33  35
BRANCH  33  39
ATOM     39  C13 non d ame     -32.486   8.523  22.061  0.00  0.00    -0.071 C 
ATOM     40  H16 non d ame     -32.706   7.845  22.886  0.00  0.00     0.028 H 
ATOM     41  H17 non d ame     -33.297   9.246  21.959  0.00  0.00     0.028 H 
ATOM     42  H18 non d ame     -32.392   7.953  21.138  0.00  0.00     0.028 H 
ENDBRANCH  33  39
ENDBRANCH   7  33
ENDBRANCH   4   7
ENDBRANCH   1   3
BRANCH   1  43
ATOM     43  C15 non d ame     -31.096  14.949  25.036  0.00  0.00     0.240 C 
ATOM     44  O5  non d ame     -30.805  16.101  25.013  0.00  0.00    -0.271 OA
ATOM     45  N6  non d ame     -31.880  14.405  26.181  0.00  0.00    -0.355 N 
ATOM     46  H46 non d ame     -32.137  13.428  26.209  0.00  0.00     0.162 HD
BRANCH  45  47
ATOM     47  C20 non d ame     -32.284  15.302  27.286  0.00  0.00     0.013 C 
ATOM     48  H30 non d ame     -31.384  15.769  27.685  0.00  0.00     0.072 H 
BRANCH  47  49
ATOM     49  C21 non d ame     -32.967  14.491  28.364  0.00  0.00    -0.038 C 
ATOM     50  H31 non d ame     -33.657  15.177  28.857  0.00  0.00     0.036 H 
ATOM     51  H32 non d ame     -33.348  13.600  27.865  0.00  0.00     0.036 H 
BRANCH  49  52
ATOM     52  C22 non d ame     -31.990  13.998  29.453  0.00  0.00     0.018 C 
ATOM     53  H33 non d ame     -31.115  14.642  29.378  0.00  0.00     0.048 H 
ATOM     54  H34 non d ame     -32.568  13.970  30.378  0.00  0.00     0.048 H 
BRANCH  52  55
ATOM     55  C23 non d ame     -31.476  12.549  29.226  0.00  0.00     0.259 C 
ATOM     56  O7  non d ame     -30.762  12.299  28.310  0.00  0.00    -0.265 OA
BRANCH  55  57
ATOM     57  O8  non d ame     -31.883  11.518  30.118  0.00  0.00    -0.317 OA
BRANCH  57  58
ATOM     58  C29 non d ame     -32.888  10.650  29.584  0.00  0.00     0.052 C 
ATOM     59  H47 non d ame     -33.448  11.253  28.870  0.00  0.00     0.082 H 
ATOM     60  H48 non d ame     -32.360   9.758  29.250  0.00  0.00     0.082 H 
BRANCH  58  61
ATOM     61  C35 non d ame     -33.841  10.251  30.743  0.00  0.00    -0.034 A 
ATOM     62  C30 non d ame     -34.331   8.952  30.825  0.00  0.00    -0.075 A 
ATOM     63  C31 non d ame     -35.188   8.594  31.866  0.00  0.00    -0.082 A 
ATOM     64  H49 non d ame     -34.046   8.215  30.074  0.00  0.00     0.084 H 
ATOM     65  C32 non d ame     -35.555   9.541  32.825  0.00  0.00    -0.083 A 
ATOM     66  H50 non d ame     -35.569   7.574  31.928  0.00  0.00     0.083 H 
ATOM     67  C33 non d ame     -35.065  10.837  32.737  0.00  0.00    -0.082 A 
ATOM     68  H51 non d ame     -36.223   9.269  33.642  0.00  0.00     0.083 H 
ATOM     69  C34 non d ame     -34.208  11.199  31.700  0.00  0.00    -0.075 A 
ATOM     70  H52 non d ame     -35.355  11.575  33.485  0.00  0.00     0.083 H 
ATOM     71  H53 non d ame     -33.827  12.219  31.638  0.00  0.00     0.084 H 
ENDBRANCH  58  61
ENDBRANCH  57  58
ENDBRANCH  55  57
ENDBRANCH  52  55
ENDBRANCH  49  52
ENDBRANCH  47  49
BRANCH  47  72
ATOM     72  C24 non d ame     -33.246  16.366  26.762  0.00  0.00    -0.039 C 
ATOM     73  H35 non d ame     -32.713  16.863  25.951  0.00  0.00     0.036 H 
ATOM     74  H36 non d ame     -34.178  15.840  26.560  0.00  0.00     0.036 H 
BRANCH  72  75
ATOM     75  C25 non d ame     -33.562  17.477  27.872  0.00  0.00    -0.001 C 
ATOM     76  C26 non d ame     -35.182  17.747  27.947  0.00  0.00    -0.035 C 
ATOM     77  C27 non d ame     -35.407  19.079  27.852  0.00  0.00     0.085 C 
ATOM     78  H38 non d ame     -35.671  17.341  27.062  0.00  0.00     0.036 H 
ATOM     79  H39 non d ame     -35.556  17.496  28.940  0.00  0.00     0.036 H 
ATOM     80  N5  non d ame     -34.118  19.713  27.389  0.00  0.00    -0.049 N 
ATOM     81  H40 non d ame     -36.160  19.192  27.070  0.00  0.00     0.075 H 
ATOM     82  H41 non d ame     -35.622  19.412  28.867  0.00  0.00     0.075 H 
ATOM     83  C28 non d ame     -32.973  18.594  27.596  0.00  0.00     0.193 C 
ATOM     84  H42 non d ame     -34.223  19.887  26.400  0.00  0.00     0.280 HD
ATOM     85  H43 non d ame     -33.935  20.481  28.019  0.00  0.00     0.280 HD
ATOM     86  H44 non d ame     -32.277  18.662  28.431  0.00  0.00     0.129 H 
ATOM     87  H37 non d ame     -33.047  17.281  28.812  0.00  0.00     0.046 H 
BRANCH  83  88
ATOM     88  O6  non d ame     -32.159  18.499  26.426  0.00  0.00    -0.369 OA
ATOM     89  H45 non d ame     -32.629  18.011  25.747  0.00  0.00     0.212 HD
ENDBRANCH  83  88
ENDBRANCH  72  75
ENDBRANCH  47  72
ENDBRANCH  45  47
ENDBRANCH   1  43
BRANCH   1  90
ATOM     90  C16 non d ame     -31.190  14.575  22.552  0.00  0.00    -0.035 C 
ATOM     91  H21 non d ame     -31.902  13.835  22.190  0.00  0.00     0.037 H 
ATOM     92  H22 non d ame     -31.524  15.587  22.779  0.00  0.00     0.037 H 
BRANCH  90  93
ATOM     93  C17 non d ame     -30.095  14.709  21.446  0.00  0.00    -0.059 C 
ATOM     94  H23 non d ame     -29.812  13.704  21.136  0.00  0.00     0.038 H 
BRANCH  93  95
ATOM     95  C18 non d ame     -30.620  15.468  20.186  0.00  0.00    -0.073 C 
ATOM     96  H24 non d ame     -30.115  15.090  19.297  0.00  0.00     0.028 H 
ATOM     97  H25 non d ame     -31.694  15.307  20.087  0.00  0.00     0.028 H 
ATOM     98  H26 non d ame     -30.421  16.533  20.293  0.00  0.00     0.028 H 
ENDBRANCH  93  95
BRANCH  93  99
ATOM     99  C19 non d ame     -28.837  15.384  22.002  0.00  0.00    -0.073 C 
ATOM    100  H27 non d ame     -28.543  14.896  22.932  0.00  0.00     0.028 H 
ATOM    101  H28 non d ame     -28.028  15.298  21.277  0.00  0.00     0.028 H 
ATOM    102  H29 non d ame     -29.043  16.436  22.192  0.00  0.00     0.028 H 
ENDBRANCH  93  99
ENDBRANCH  90  93
ENDBRANCH   1  90
TORSDOF 26
ENDMDL
MODEL 7
REMARK VINA RESULT:      -7.2      1.856      5.685
REMARK  26 active torsions:
REMARK  status: ('A' for Active; 'I' for Inactive)
REMARK    1  A    between atoms: C2_2  and  C3_3 
REMARK    2  A    between atoms: C4_6  and  C5_7 
REMARK       I    between atoms: C5_7  and  N2_9 
REMARK    3  A    between atoms: N2_9  and  C6_10 
REMARK    4  A    between atoms: C6_10  and  C7_11 
REMARK    5  A    between atoms: C6_10  and  C8_13 
REMARK       I    between atoms: C7_11  and  N3_14 
REMARK    6  A    between atoms: N3_14  and  C9_15 
REMARK    7  A    between atoms: C9_15  and  C10_16 
REMARK    8  A    between atoms: C9_15  and  C11_18 
REMARK       I    between atoms: C10_16  and  N4_21 
REMARK    9  A    between atoms: C11_18  and  C12_19 
REMARK   10  A    between atoms: C11_18  and  C13_20 
REMARK   11  A    between atoms: N4_21  and  C14_22 
REMARK   12  A    between atoms: C14_22  and  C15_23 
REMARK   13  A    between atoms: C14_22  and  C16_25 
REMARK       I    between atoms: C15_23  and  N6_40 
REMARK   14  A    between atoms: C16_25  and  C17_26 
REMARK   15  A    between atoms: C17_26  and  C18_27 
REMARK   16  A    between atoms: C17_26  and  C19_28 
REMARK   17  A    between atoms: C20_29  and  C21_30 
REMARK   18  A    between atoms: C20_29  and  C24_33 
REMARK   19  A    between atoms: C20_29  and  N6_40 
REMARK   20  A    between atoms: C21_30  and  C22_31 
REMARK   21  A    between atoms: C22_31  and  C23_32 
REMARK   22  A    between atoms: C23_32  and  O8_43 
REMARK   23  A    between atoms: C24_33  and  C25_34 
REMARK   24  A    between atoms: C28_38  and  O6_39 
REMARK   25  A    between atoms: C29_42  and  O8_43 
REMARK   26  A    between atoms: C29_42  and  C35_49 
ROOT
ATOM      1  C14 non d ame     -30.958  13.974  24.679  0.00  0.00     0.089 C 
ATOM      2  H20 non d ame     -29.982  13.814  25.138  0.00  0.00     0.087 H 
ENDROOT
BRANCH   1   3
ATOM      3  N4  non d ame     -31.420  12.690  24.174  0.00  0.00    -0.346 N 
ATOM      4  C10 non d ame     -31.346  11.458  25.042  0.00  0.00     0.241 C 
ATOM      5  O4  non d ame     -30.908  11.525  26.142  0.00  0.00    -0.271 OA
ATOM      6  H19 non d ame     -31.788  12.654  23.234  0.00  0.00     0.163 HD
BRANCH   4   7
ATOM      7  C9  non d ame     -31.835  10.139  24.504  0.00  0.00     0.092 C 
ATOM      8  H11 non d ame     -31.488   9.336  25.155  0.00  0.00     0.088 H 
BRANCH   7   9
ATOM      9  N3  non d ame     -33.300  10.113  24.528  0.00  0.00    -0.346 N 
ATOM     10  C7  non d ame     -33.993   9.598  25.682  0.00  0.00     0.240 C 
ATOM     11  O3  non d ame     -33.388   9.198  26.601  0.00  0.00    -0.271 OA
ATOM     12  H10 non d ame     -33.836  10.453  23.743  0.00  0.00     0.163 HD
BRANCH  10  13
ATOM     13  C6  non d ame     -35.553   9.570  25.700  0.00  0.00     0.086 C 
ATOM     14  H6  non d ame     -35.957   9.153  26.623  0.00  0.00     0.086 H 
BRANCH  13  15
ATOM     15  N2  non d ame     -36.050  10.933  25.608  0.00  0.00    -0.343 N 
ATOM     16  C5  non d ame     -36.422  11.650  26.830  0.00  0.00     0.273 C 
ATOM     17  O2  non d ame     -36.321  11.120  27.882  0.00  0.00    -0.266 OA
ATOM     18  H5  non d ame     -36.136  11.377  24.705  0.00  0.00     0.163 HD
BRANCH  16  19
ATOM     19  C4  non d ame     -36.947  13.091  26.748  0.00  0.00     0.154 A 
ATOM     20  C1  non d ame     -36.175  14.284  26.575  0.00  0.00    -0.017 A 
ATOM     21  C2  non d ame     -37.122  15.332  26.564  0.00  0.00     0.077 A 
ATOM     22  H1  non d ame     -35.094  14.376  26.475  0.00  0.00     0.091 H 
ATOM     23  O1  non d ame     -38.298  14.793  26.710  0.00  0.00    -0.218 OA
ATOM     24  N1  non d ame     -38.220  13.487  26.820  0.00  0.00    -0.123 NA
BRANCH  21  25
ATOM     25  C3  non d ame     -36.823  16.817  26.407  0.00  0.00    -0.029 C 
ATOM     26  H2  non d ame     -36.188  17.149  27.229  0.00  0.00     0.036 H 
ATOM     27  H3  non d ame     -36.308  16.985  25.461  0.00  0.00     0.036 H 
ATOM     28  H4  non d ame     -37.755  17.379  26.418  0.00  0.00     0.036 H 
ENDBRANCH  21  25
ENDBRANCH  16  19
ENDBRANCH  13  15
BRANCH  13  29
ATOM     29  C8  non d ame     -36.058   8.757  24.535  0.00  0.00    -0.049 C 
ATOM     30  H7  non d ame     -37.107   8.991  24.356  0.00  0.00     0.030 H 
ATOM     31  H8  non d ame     -35.475   8.997  23.646  0.00  0.00     0.030 H 
ATOM     32  H9  non d ame     -35.955   7.695  24.761  0.00  0.00     0.030 H 
ENDBRANCH  13  29
ENDBRANCH  10  13
ENDBRANCH   7   9
BRANCH   7  33
ATOM     33  C11 non d ame     -31.339   9.960  23.040  0.00  0.00    -0.033 C 
ATOM     34  H12 non d ame     -31.576  10.877  22.499  0.00  0.00     0.042 H 
BRANCH  33  35
ATOM     35  C12 non d ame     -29.791   9.769  22.982  0.00  0.00    -0.071 C 
ATOM     36  H13 non d ame     -29.561   8.776  22.597  0.00  0.00     0.028 H 
ATOM     37  H14 non d ame     -29.357  10.523  22.326  0.00  0.00     0.028 H 
ATOM     38  H15 non d ame     -29.374   9.875  23.984  0.00  0.00     0.028 H 
ENDBRANCH  33  35
BRANCH  33  39
ATOM     39  C13 non d ame     -32.082   8.779  22.338  0.00  0.00    -0.071 C 
ATOM     40  H16 non d ame     -33.068   8.652  22.785  0.00  0.00     0.028 H 
ATOM     41  H17 non d ame     -32.190   8.997  21.275  0.00  0.00     0.028 H 
ATOM     42  H18 non d ame     -31.506   7.862  22.462  0.00  0.00     0.028 H 
ENDBRANCH  33  39
ENDBRANCH   7  33
ENDBRANCH   4   7
ENDBRANCH   1   3
BRANCH   1  43
ATOM     43  C15 non d ame     -32.004  14.512  25.695  0.00  0.00     0.240 C 
ATOM     44  O5  non d ame     -33.056  14.906  25.307  0.00  0.00    -0.271 OA
ATOM     45  N6  non d ame     -31.699  14.529  27.154  0.00  0.00    -0.355 N 
ATOM     46  H46 non d ame     -30.809  14.192  27.496  0.00  0.00     0.162 HD
BRANCH  45  47
ATOM     47  C20 non d ame     -32.705  15.043  28.109  0.00  0.00     0.013 C 
ATOM     48  H30 non d ame     -33.691  14.887  27.672  0.00  0.00     0.072 H 
BRANCH  47  49
ATOM     49  C21 non d ame     -32.469  16.518  28.339  0.00  0.00    -0.038 C 
ATOM     50  H31 non d ame     -32.499  16.657  29.421  0.00  0.00     0.036 H 
ATOM     51  H32 non d ame     -31.563  16.761  27.784  0.00  0.00     0.036 H 
BRANCH  49  52
ATOM     52  C22 non d ame     -33.590  17.403  27.754  0.00  0.00     0.018 C 
ATOM     53  H33 non d ame     -34.359  16.714  27.407  0.00  0.00     0.048 H 
ATOM     54  H34 non d ame     -33.824  18.134  28.530  0.00  0.00     0.048 H 
BRANCH  52  55
ATOM     55  C23 non d ame     -33.156  18.225  26.509  0.00  0.00     0.259 C 
ATOM     56  O7  non d ame     -32.133  17.984  25.954  0.00  0.00    -0.265 OA
BRANCH  55  57
ATOM     57  O8  non d ame     -33.989  19.282  26.046  0.00  0.00    -0.317 OA
BRANCH  57  58
ATOM     58  C29 non d ame     -34.350  20.224  27.060  0.00  0.00     0.052 C 
ATOM     59  H47 non d ame     -34.084  19.754  28.007  0.00  0.00     0.082 H 
ATOM     60  H48 non d ame     -33.884  21.165  26.768  0.00  0.00     0.082 H 
BRANCH  58  61
ATOM     61  C35 non d ame     -35.891  20.405  27.019  0.00  0.00    -0.034 A 
ATOM     62  C30 non d ame     -36.550  20.480  25.796  0.00  0.00    -0.075 A 
ATOM     63  C31 non d ame     -37.935  20.644  25.759  0.00  0.00    -0.082 A 
ATOM     64  H49 non d ame     -35.984  20.412  24.868  0.00  0.00     0.084 H 
ATOM     65  C32 non d ame     -38.659  20.734  26.950  0.00  0.00    -0.083 A 
ATOM     66  H50 non d ame     -38.449  20.701  24.798  0.00  0.00     0.083 H 
ATOM     67  C33 non d ame     -37.997  20.662  28.167  0.00  0.00    -0.082 A 
ATOM     68  H51 non d ame     -39.742  20.861  26.929  0.00  0.00     0.083 H 
ATOM     69  C34 non d ame     -36.614  20.497  28.210  0.00  0.00    -0.075 A 
ATOM     70  H52 non d ame     -38.564  20.735  29.096  0.00  0.00     0.083 H 
ATOM     71  H53 non d ame     -36.100  20.440  29.170  0.00  0.00     0.084 H 
ENDBRANCH  58  61
ENDBRANCH  57  58
ENDBRANCH  55  57
ENDBRANCH  52  55
ENDBRANCH  49  52
ENDBRANCH  47  49
BRANCH  47  72
ATOM     72  C24 non d ame     -32.588  14.294  29.435  0.00  0.00    -0.039 C 
ATOM     73  H35 non d ame     -31.919  14.898  30.050  0.00  0.00     0.036 H 
ATOM     74  H36 non d ame     -33.613  14.118  29.759  0.00  0.00     0.036 H 
BRANCH  72  75
ATOM     75  C25 non d ame     -31.897  12.861  29.249  0.00  0.00    -0.001 C 
ATOM     76  C26 non d ame     -33.044  11.683  29.252  0.00  0.00    -0.035 C 
ATOM     77  C27 non d ame     -32.688  10.730  30.146  0.00  0.00     0.085 C 
ATOM     78  H38 non d ame     -33.979  12.073  29.654  0.00  0.00     0.036 H 
ATOM     79  H39 non d ame     -33.038  11.153  28.299  0.00  0.00     0.036 H 
ATOM     80  N5  non d ame     -31.576  11.308  30.987  0.00  0.00    -0.049 N 
ATOM     81  H40 non d ame     -33.566  10.577  30.775  0.00  0.00     0.075 H 
ATOM     82  H41 non d ame     -32.292   9.906  29.552  0.00  0.00     0.075 H 
ATOM     83  C28 non d ame     -31.058  12.619  30.200  0.00  0.00     0.193 C 
ATOM     84  H42 non d ame     -31.996  11.600  31.858  0.00  0.00     0.280 HD
ATOM     85  H43 non d ame     -30.834  10.621  30.991  0.00  0.00     0.280 HD
ATOM     86  H44 non d ame     -30.125  12.597  29.640  0.00  0.00     0.129 H 
ATOM     87  H37 non d ame     -31.179  12.852  28.429  0.00  0.00     0.046 H 
BRANCH  83  88
ATOM     88  O6  non d ame     -30.936  13.719  31.104  0.00  0.00    -0.369 OA
ATOM     89  H45 non d ame     -30.019  13.811  31.374  0.00  0.00     0.212 HD
ENDBRANCH  83  88
ENDBRANCH  72  75
ENDBRANCH  47  72
ENDBRANCH  45  47
ENDBRANCH   1  43
BRANCH   1  90
ATOM     90  C16 non d ame     -30.826  14.945  23.517  0.00  0.00    -0.035 C 
ATOM     91  H21 non d ame     -31.818  14.994  23.067  0.00  0.00     0.037 H 
ATOM     92  H22 non d ame     -30.376  15.843  23.940  0.00  0.00     0.037 H 
BRANCH  90  93
ATOM     93  C17 non d ame     -29.859  14.453  22.394  0.00  0.00    -0.059 C 
ATOM     94  H23 non d ame     -29.854  13.364  22.415  0.00  0.00     0.038 H 
BRANCH  93  95
ATOM     95  C18 non d ame     -30.328  14.902  20.973  0.00  0.00    -0.073 C 
ATOM     96  H24 non d ame     -29.520  15.438  20.476  0.00  0.00     0.028 H 
ATOM     97  H25 non d ame     -30.596  14.024  20.385  0.00  0.00     0.028 H 
ATOM     98  H26 non d ame     -31.195  15.555  21.066  0.00  0.00     0.028 H 
ENDBRANCH  93  95
BRANCH  93  99
ATOM     99  C19 non d ame     -28.425  14.918  22.666  0.00  0.00    -0.073 C 
ATOM    100  H27 non d ame     -27.908  15.074  21.718  0.00  0.00     0.028 H 
ATOM    101  H28 non d ame     -28.446  15.853  23.225  0.00  0.00     0.028 H 
ATOM    102  H29 non d ame     -27.901  14.160  23.246  0.00  0.00     0.028 H 
ENDBRANCH  93  99
ENDBRANCH  90  93
ENDBRANCH   1  90
TORSDOF 26
ENDMDL
MODEL 8
REMARK VINA RESULT:      -7.1      3.036      7.707
REMARK  26 active torsions:
REMARK  status: ('A' for Active; 'I' for Inactive)
REMARK    1  A    between atoms: C2_2  and  C3_3 
REMARK    2  A    between atoms: C4_6  and  C5_7 
REMARK       I    between atoms: C5_7  and  N2_9 
REMARK    3  A    between atoms: N2_9  and  C6_10 
REMARK    4  A    between atoms: C6_10  and  C7_11 
REMARK    5  A    between atoms: C6_10  and  C8_13 
REMARK       I    between atoms: C7_11  and  N3_14 
REMARK    6  A    between atoms: N3_14  and  C9_15 
REMARK    7  A    between atoms: C9_15  and  C10_16 
REMARK    8  A    between atoms: C9_15  and  C11_18 
REMARK       I    between atoms: C10_16  and  N4_21 
REMARK    9  A    between atoms: C11_18  and  C12_19 
REMARK   10  A    between atoms: C11_18  and  C13_20 
REMARK   11  A    between atoms: N4_21  and  C14_22 
REMARK   12  A    between atoms: C14_22  and  C15_23 
REMARK   13  A    between atoms: C14_22  and  C16_25 
REMARK       I    between atoms: C15_23  and  N6_40 
REMARK   14  A    between atoms: C16_25  and  C17_26 
REMARK   15  A    between atoms: C17_26  and  C18_27 
REMARK   16  A    between atoms: C17_26  and  C19_28 
REMARK   17  A    between atoms: C20_29  and  C21_30 
REMARK   18  A    between atoms: C20_29  and  C24_33 
REMARK   19  A    between atoms: C20_29  and  N6_40 
REMARK   20  A    between atoms: C21_30  and  C22_31 
REMARK   21  A    between atoms: C22_31  and  C23_32 
REMARK   22  A    between atoms: C23_32  and  O8_43 
REMARK   23  A    between atoms: C24_33  and  C25_34 
REMARK   24  A    between atoms: C28_38  and  O6_39 
REMARK   25  A    between atoms: C29_42  and  O8_43 
REMARK   26  A    between atoms: C29_42  and  C35_49 
ROOT
ATOM      1  C14 non d ame     -31.255  14.203  24.267  0.00  0.00     0.089 C 
ATOM      2  H20 non d ame     -30.244  14.146  24.672  0.00  0.00     0.087 H 
ENDROOT
BRANCH   1   3
ATOM      3  N4  non d ame     -31.776  12.846  24.202  0.00  0.00    -0.346 N 
ATOM      4  C10 non d ame     -31.567  11.892  25.352  0.00  0.00     0.241 C 
ATOM      5  O4  non d ame     -30.972  12.239  26.318  0.00  0.00    -0.271 OA
ATOM      6  H19 non d ame     -32.278  12.569  23.370  0.00  0.00     0.163 HD
BRANCH   4   7
ATOM      7  C9  non d ame     -32.119  10.494  25.270  0.00  0.00     0.092 C 
ATOM      8  H11 non d ame     -33.016  10.498  24.650  0.00  0.00     0.088 H 
BRANCH   7   9
ATOM      9  N3  non d ame     -31.143   9.620  24.613  0.00  0.00    -0.346 N 
ATOM     10  C7  non d ame     -31.395   9.130  23.281  0.00  0.00     0.240 C 
ATOM     11  O3  non d ame     -32.381   9.427  22.723  0.00  0.00    -0.271 OA
ATOM     12  H10 non d ame     -30.289   9.354  25.082  0.00  0.00     0.163 HD
BRANCH  10  13
ATOM     13  C6  non d ame     -30.354   8.197  22.588  0.00  0.00     0.086 C 
ATOM     14  H6  non d ame     -29.996   7.404  23.244  0.00  0.00     0.086 H 
BRANCH  13  15
ATOM     15  N2  non d ame     -30.987   7.544  21.454  0.00  0.00    -0.343 N 
ATOM     16  C5  non d ame     -31.692   6.276  21.653  0.00  0.00     0.273 C 
ATOM     17  O2  non d ame     -31.741   5.788  22.728  0.00  0.00    -0.266 OA
ATOM     18  H5  non d ame     -30.936   7.967  20.538  0.00  0.00     0.163 HD
BRANCH  16  19
ATOM     19  C4  non d ame     -32.366   5.576  20.464  0.00  0.00     0.154 A 
ATOM     20  C1  non d ame     -32.408   4.171  20.197  0.00  0.00    -0.017 A 
ATOM     21  C2  non d ame     -33.141   4.049  18.995  0.00  0.00     0.077 A 
ATOM     22  H1  non d ame     -31.971   3.362  20.784  0.00  0.00     0.091 H 
ATOM     23  O1  non d ame     -33.479   5.251  18.626  0.00  0.00    -0.218 OA
ATOM     24  N1  non d ame     -33.038   6.157  19.466  0.00  0.00    -0.123 NA
BRANCH  21  25
ATOM     25  C3  non d ame     -33.475   2.753  18.270  0.00  0.00    -0.029 C 
ATOM     26  H2  non d ame     -33.058   2.782  17.263  0.00  0.00     0.036 H 
ATOM     27  H3  non d ame     -33.048   1.911  18.814  0.00  0.00     0.036 H 
ATOM     28  H4  non d ame     -34.556   2.637  18.211  0.00  0.00     0.036 H 
ENDBRANCH  21  25
ENDBRANCH  16  19
ENDBRANCH  13  15
BRANCH  13  29
ATOM     29  C8  non d ame     -29.175   9.015  22.122  0.00  0.00    -0.049 C 
ATOM     30  H7  non d ame     -28.374   8.950  22.857  0.00  0.00     0.030 H 
ATOM     31  H8  non d ame     -28.822   8.628  21.166  0.00  0.00     0.030 H 
ATOM     32  H9  non d ame     -29.478  10.055  22.004  0.00  0.00     0.030 H 
ENDBRANCH  13  29
ENDBRANCH  10  13
ENDBRANCH   7   9
BRANCH   7  33
ATOM     33  C11 non d ame     -32.404   9.963  26.705  0.00  0.00    -0.033 C 
ATOM     34  H12 non d ame     -31.607  10.329  27.354  0.00  0.00     0.042 H 
BRANCH  33  35
ATOM     35  C12 non d ame     -33.753  10.518  27.260  0.00  0.00    -0.071 C 
ATOM     36  H13 non d ame     -33.766  10.423  28.346  0.00  0.00     0.028 H 
ATOM     37  H14 non d ame     -33.854  11.568  26.986  0.00  0.00     0.028 H 
ATOM     38  H15 non d ame     -34.581   9.950  26.836  0.00  0.00     0.028 H 
ENDBRANCH  33  35
BRANCH  33  39
ATOM     39  C13 non d ame     -32.376   8.402  26.740  0.00  0.00    -0.071 C 
ATOM     40  H16 non d ame     -31.660   8.067  27.492  0.00  0.00     0.028 H 
ATOM     41  H17 non d ame     -33.369   8.026  26.990  0.00  0.00     0.028 H 
ATOM     42  H18 non d ame     -32.081   8.021  25.763  0.00  0.00     0.028 H 
ENDBRANCH  33  39
ENDBRANCH   7  33
ENDBRANCH   4   7
ENDBRANCH   1   3
BRANCH   1  43
ATOM     43  C15 non d ame     -32.200  15.054  25.161  0.00  0.00     0.240 C 
ATOM     44  O5  non d ame     -33.223  15.464  24.717  0.00  0.00    -0.271 OA
ATOM     45  N6  non d ame     -31.834  15.352  26.575  0.00  0.00    -0.355 N 
ATOM     46  H46 non d ame     -30.969  15.005  26.965  0.00  0.00     0.162 HD
BRANCH  45  47
ATOM     47  C20 non d ame     -32.744  16.162  27.414  0.00  0.00     0.013 C 
ATOM     48  H30 non d ame     -33.753  16.048  27.019  0.00  0.00     0.072 H 
BRANCH  47  49
ATOM     49  C21 non d ame     -32.324  17.613  27.350  0.00  0.00    -0.038 C 
ATOM     50  H31 non d ame     -31.517  17.719  28.076  0.00  0.00     0.036 H 
ATOM     51  H32 non d ame     -32.140  17.819  26.296  0.00  0.00     0.036 H 
BRANCH  49  52
ATOM     52  C22 non d ame     -33.441  18.581  27.796  0.00  0.00     0.018 C 
ATOM     53  H33 non d ame     -34.349  17.982  27.843  0.00  0.00     0.048 H 
ATOM     54  H34 non d ame     -33.065  19.071  28.695  0.00  0.00     0.048 H 
BRANCH  52  55
ATOM     55  C23 non d ame     -33.729  19.718  26.777  0.00  0.00     0.259 C 
ATOM     56  O7  non d ame     -32.902  20.047  25.990  0.00  0.00    -0.265 OA
BRANCH  55  57
ATOM     57  O8  non d ame     -34.992  20.373  26.803  0.00  0.00    -0.317 OA
BRANCH  57  58
ATOM     58  C29 non d ame     -36.106  19.485  26.936  0.00  0.00     0.052 C 
ATOM     59  H47 non d ame     -35.688  18.538  27.274  0.00  0.00     0.082 H 
ATOM     60  H48 non d ame     -36.832  20.013  27.553  0.00  0.00     0.082 H 
BRANCH  58  61
ATOM     61  C35 non d ame     -36.721  19.274  25.526  0.00  0.00    -0.034 A 
ATOM     62  C30 non d ame     -36.955  20.368  24.698  0.00  0.00    -0.075 A 
ATOM     63  C31 non d ame     -37.508  20.178  23.431  0.00  0.00    -0.082 A 
ATOM     64  H49 non d ame     -36.706  21.372  25.040  0.00  0.00     0.084 H 
ATOM     65  C32 non d ame     -37.829  18.890  22.996  0.00  0.00    -0.083 A 
ATOM     66  H50 non d ame     -37.689  21.037  22.784  0.00  0.00     0.083 H 
ATOM     67  C33 non d ame     -37.597  17.803  23.827  0.00  0.00    -0.082 A 
ATOM     68  H51 non d ame     -38.261  18.733  22.007  0.00  0.00     0.083 H 
ATOM     69  C34 non d ame     -37.043  17.987  25.093  0.00  0.00    -0.075 A 
ATOM     70  H52 non d ame     -37.850  16.799  23.486  0.00  0.00     0.083 H 
ATOM     71  H53 non d ame     -36.862  17.128  25.739  0.00  0.00     0.084 H 
ENDBRANCH  58  61
ENDBRANCH  57  58
ENDBRANCH  55  57
ENDBRANCH  52  55
ENDBRANCH  49  52
ENDBRANCH  47  49
BRANCH  47  72
ATOM     72  C24 non d ame     -32.683  15.677  28.861  0.00  0.00    -0.039 C 
ATOM     73  H35 non d ame     -32.285  16.517  29.431  0.00  0.00     0.036 H 
ATOM     74  H36 non d ame     -33.679  15.293  29.080  0.00  0.00     0.036 H 
BRANCH  72  75
ATOM     75  C25 non d ame     -31.657  14.459  29.035  0.00  0.00    -0.001 C 
ATOM     76  C26 non d ame     -32.474  13.096  29.457  0.00  0.00    -0.035 C 
ATOM     77  C27 non d ame     -31.889  12.559  30.554  0.00  0.00     0.085 C 
ATOM     78  H38 non d ame     -33.476  13.352  29.802  0.00  0.00     0.036 H 
ATOM     79  H39 non d ame     -32.340  12.328  28.695  0.00  0.00     0.036 H 
ATOM     80  N5  non d ame     -30.953  13.604  31.112  0.00  0.00    -0.049 N 
ATOM     81  H40 non d ame     -32.699  12.392  31.265  0.00  0.00     0.075 H 
ATOM     82  H41 non d ame     -31.303  11.716  30.189  0.00  0.00     0.075 H 
ATOM     83  C28 non d ame     -30.781  14.711  29.950  0.00  0.00     0.193 C 
ATOM     84  H42 non d ame     -31.431  14.029  31.894  0.00  0.00     0.280 HD
ATOM     85  H43 non d ame     -30.064  13.145  31.253  0.00  0.00     0.280 HD
ATOM     86  H44 non d ame     -29.873  14.749  29.350  0.00  0.00     0.129 H 
ATOM     87  H37 non d ame     -30.962  14.381  28.199  0.00  0.00     0.046 H 
BRANCH  83  88
ATOM     88  O6  non d ame     -30.934  16.024  30.494  0.00  0.00    -0.369 OA
ATOM     89  H45 non d ame     -31.528  16.534  29.939  0.00  0.00     0.212 HD
ENDBRANCH  83  88
ENDBRANCH  72  75
ENDBRANCH  47  72
ENDBRANCH  45  47
ENDBRANCH   1  43
BRANCH   1  90
ATOM     90  C16 non d ame     -31.215  14.786  22.864  0.00  0.00    -0.035 C 
ATOM     91  H21 non d ame     -31.719  14.055  22.232  0.00  0.00     0.037 H 
ATOM     92  H22 non d ame     -31.618  15.794  22.959  0.00  0.00     0.037 H 
BRANCH  90  93
ATOM     93  C17 non d ame     -29.770  14.941  22.290  0.00  0.00    -0.059 C 
ATOM     94  H23 non d ame     -29.155  15.402  23.062  0.00  0.00     0.038 H 
BRANCH  93  95
ATOM     95  C18 non d ame     -29.129  13.564  21.928  0.00  0.00    -0.073 C 
ATOM     96  H24 non d ame     -28.107  13.718  21.582  0.00  0.00     0.028 H 
ATOM     97  H25 non d ame     -29.120  12.924  22.811  0.00  0.00     0.028 H 
ATOM     98  H26 non d ame     -29.712  13.087  21.141  0.00  0.00     0.028 H 
ENDBRANCH  93  95
BRANCH  93  99
ATOM     99  C19 non d ame     -29.761  15.880  21.081  0.00  0.00    -0.073 C 
ATOM    100  H27 non d ame     -30.319  15.425  20.262  0.00  0.00     0.028 H 
ATOM    101  H28 non d ame     -30.225  16.828  21.353  0.00  0.00     0.028 H 
ATOM    102  H29 non d ame     -28.733  16.057  20.766  0.00  0.00     0.028 H 
ENDBRANCH  93  99
ENDBRANCH  90  93
ENDBRANCH   1  90
TORSDOF 26
ENDMDL
MODEL 9
REMARK VINA RESULT:      -7.1      2.494      8.193
REMARK  26 active torsions:
REMARK  status: ('A' for Active; 'I' for Inactive)
REMARK    1  A    between atoms: C2_2  and  C3_3 
REMARK    2  A    between atoms: C4_6  and  C5_7 
REMARK       I    between atoms: C5_7  and  N2_9 
REMARK    3  A    between atoms: N2_9  and  C6_10 
REMARK    4  A    between atoms: C6_10  and  C7_11 
REMARK    5  A    between atoms: C6_10  and  C8_13 
REMARK       I    between atoms: C7_11  and  N3_14 
REMARK    6  A    between atoms: N3_14  and  C9_15 
REMARK    7  A    between atoms: C9_15  and  C10_16 
REMARK    8  A    between atoms: C9_15  and  C11_18 
REMARK       I    between atoms: C10_16  and  N4_21 
REMARK    9  A    between atoms: C11_18  and  C12_19 
REMARK   10  A    between atoms: C11_18  and  C13_20 
REMARK   11  A    between atoms: N4_21  and  C14_22 
REMARK   12  A    between atoms: C14_22  and  C15_23 
REMARK   13  A    between atoms: C14_22  and  C16_25 
REMARK       I    between atoms: C15_23  and  N6_40 
REMARK   14  A    between atoms: C16_25  and  C17_26 
REMARK   15  A    between atoms: C17_26  and  C18_27 
REMARK   16  A    between atoms: C17_26  and  C19_28 
REMARK   17  A    between atoms: C20_29  and  C21_30 
REMARK   18  A    between atoms: C20_29  and  C24_33 
REMARK   19  A    between atoms: C20_29  and  N6_40 
REMARK   20  A    between atoms: C21_30  and  C22_31 
REMARK   21  A    between atoms: C22_31  and  C23_32 
REMARK   22  A    between atoms: C23_32  and  O8_43 
REMARK   23  A    between atoms: C24_33  and  C25_34 
REMARK   24  A    between atoms: C28_38  and  O6_39 
REMARK   25  A    between atoms: C29_42  and  O8_43 
REMARK   26  A    between atoms: C29_42  and  C35_49 
ROOT
ATOM      1  C14 non d ame     -37.023  15.758  26.544  0.00  0.00     0.089 C 
ATOM      2  H20 non d ame     -37.565  16.213  27.373  0.00  0.00     0.087 H 
ENDROOT
BRANCH   1   3
ATOM      3  N4  non d ame     -35.609  16.044  26.736  0.00  0.00    -0.346 N 
ATOM      4  C10 non d ame     -35.160  16.947  27.857  0.00  0.00     0.241 C 
ATOM      5  O4  non d ame     -35.955  17.435  28.590  0.00  0.00    -0.271 OA
ATOM      6  H19 non d ame     -34.949  15.621  26.100  0.00  0.00     0.163 HD
BRANCH   4   7
ATOM      7  C9  non d ame     -33.692  17.227  28.044  0.00  0.00     0.092 C 
ATOM      8  H11 non d ame     -33.556  17.861  28.921  0.00  0.00     0.088 H 
BRANCH   7   9
ATOM      9  N3  non d ame     -32.984  15.971  28.303  0.00  0.00    -0.346 N 
ATOM     10  C7  non d ame     -32.016  15.896  29.370  0.00  0.00     0.240 C 
ATOM     11  O3  non d ame     -31.795  16.837  30.030  0.00  0.00    -0.271 OA
ATOM     12  H10 non d ame     -33.162  15.151  27.742  0.00  0.00     0.163 HD
BRANCH  10  13
ATOM     13  C6  non d ame     -31.263  14.556  29.640  0.00  0.00     0.086 C 
ATOM     14  H6  non d ame     -30.674  14.580  30.557  0.00  0.00     0.086 H 
BRANCH  13  15
ATOM     15  N2  non d ame     -32.239  13.491  29.800  0.00  0.00    -0.343 N 
ATOM     16  C5  non d ame     -31.891  12.307  30.590  0.00  0.00     0.273 C 
ATOM     17  O2  non d ame     -30.824  12.221  31.090  0.00  0.00    -0.266 OA
ATOM     18  H5  non d ame     -33.147  13.571  29.366  0.00  0.00     0.163 HD
BRANCH  16  19
ATOM     19  C4  non d ame     -32.913  11.174  30.769  0.00  0.00     0.154 A 
ATOM     20  C1  non d ame     -33.276  10.176  29.810  0.00  0.00    -0.017 A 
ATOM     21  C2  non d ame     -34.246   9.381  30.460  0.00  0.00     0.077 A 
ATOM     22  H1  non d ame     -32.894  10.049  28.797  0.00  0.00     0.091 H 
ATOM     23  O1  non d ame     -34.412   9.872  31.654  0.00  0.00    -0.218 OA
ATOM     24  N1  non d ame     -33.646  10.919  31.857  0.00  0.00    -0.123 NA
BRANCH  21  25
ATOM     25  C3  non d ame     -34.963   8.173  29.872  0.00  0.00    -0.029 C 
ATOM     26  H2  non d ame     -35.656   8.502  29.099  0.00  0.00     0.036 H 
ATOM     27  H3  non d ame     -34.231   7.493  29.437  0.00  0.00     0.036 H 
ATOM     28  H4  non d ame     -35.513   7.659  30.659  0.00  0.00     0.036 H 
ENDBRANCH  21  25
ENDBRANCH  16  19
ENDBRANCH  13  15
BRANCH  13  29
ATOM     29  C8  non d ame     -30.348  14.249  28.481  0.00  0.00    -0.049 C 
ATOM     30  H7  non d ame     -30.574  14.919  27.652  0.00  0.00     0.030 H 
ATOM     31  H8  non d ame     -29.312  14.388  28.790  0.00  0.00     0.030 H 
ATOM     32  H9  non d ame     -30.497  13.216  28.164  0.00  0.00     0.030 H 
ENDBRANCH  13  29
ENDBRANCH  10  13
ENDBRANCH   7   9
BRANCH   7  33
ATOM     33  C11 non d ame     -33.121  17.885  26.754  0.00  0.00    -0.033 C 
ATOM     34  H12 non d ame     -33.964  18.109  26.099  0.00  0.00     0.042 H 
BRANCH  33  35
ATOM     35  C12 non d ame     -32.403  19.233  27.072  0.00  0.00    -0.071 C 
ATOM     36  H13 non d ame     -32.057  19.226  28.106  0.00  0.00     0.028 H 
ATOM     37  H14 non d ame     -31.550  19.356  26.405  0.00  0.00     0.028 H 
ATOM     38  H15 non d ame     -33.099  20.059  26.929  0.00  0.00     0.028 H 
ENDBRANCH  33  35
BRANCH  33  39
ATOM     39  C13 non d ame     -32.172  16.902  25.998  0.00  0.00    -0.071 C 
ATOM     40  H16 non d ame     -32.179  15.932  26.496  0.00  0.00     0.028 H 
ATOM     41  H17 non d ame     -32.514  16.784  24.969  0.00  0.00     0.028 H 
ATOM     42  H18 non d ame     -31.158  17.303  25.998  0.00  0.00     0.028 H 
ENDBRANCH  33  39
ENDBRANCH   7  33
ENDBRANCH   4   7
ENDBRANCH   1   3
BRANCH   1  43
ATOM     43  C15 non d ame     -37.214  14.216  26.492  0.00  0.00     0.240 C 
ATOM     44  O5  non d ame     -38.247  13.737  26.835  0.00  0.00    -0.271 OA
ATOM     45  N6  non d ame     -36.114  13.336  26.006  0.00  0.00    -0.355 N 
ATOM     46  H46 non d ame     -35.234  13.733  25.707  0.00  0.00     0.162 HD
BRANCH  45  47
ATOM     47  C20 non d ame     -36.312  11.871  25.961  0.00  0.00     0.013 C 
ATOM     48  H30 non d ame     -37.245  11.642  26.477  0.00  0.00     0.072 H 
BRANCH  47  49
ATOM     49  C21 non d ame     -35.156  11.189  26.658  0.00  0.00    -0.038 C 
ATOM     50  H31 non d ame     -34.970  11.773  27.560  0.00  0.00     0.036 H 
ATOM     51  H32 non d ame     -35.438  10.139  26.737  0.00  0.00     0.036 H 
BRANCH  49  52
ATOM     52  C22 non d ame     -33.851  11.230  25.834  0.00  0.00     0.018 C 
ATOM     53  H33 non d ame     -33.345  10.287  26.036  0.00  0.00     0.048 H 
ATOM     54  H34 non d ame     -34.153  11.479  24.816  0.00  0.00     0.048 H 
BRANCH  52  55
ATOM     55  C23 non d ame     -32.867  12.348  26.275  0.00  0.00     0.259 C 
ATOM     56  O7  non d ame     -33.233  13.231  26.981  0.00  0.00    -0.265 OA
BRANCH  55  57
ATOM     57  O8  non d ame     -31.521  12.315  25.813  0.00  0.00    -0.317 OA
BRANCH  57  58
ATOM     58  C29 non d ame     -31.381  11.850  24.467  0.00  0.00     0.052 C 
ATOM     59  H47 non d ame     -30.733  10.976  24.524  0.00  0.00     0.082 H 
ATOM     60  H48 non d ame     -32.395  11.754  24.080  0.00  0.00     0.082 H 
BRANCH  58  61
ATOM     61  C35 non d ame     -30.648  12.952  23.654  0.00  0.00    -0.034 A 
ATOM     62  C30 non d ame     -29.914  12.610  22.522  0.00  0.00    -0.075 A 
ATOM     63  C31 non d ame     -29.256  13.599  21.792  0.00  0.00    -0.082 A 
ATOM     64  H49 non d ame     -29.854  11.568  22.208  0.00  0.00     0.084 H 
ATOM     65  C32 non d ame     -29.331  14.933  22.200  0.00  0.00    -0.083 A 
ATOM     66  H50 non d ame     -28.683  13.328  20.905  0.00  0.00     0.083 H 
ATOM     67  C33 non d ame     -30.062  15.269  23.331  0.00  0.00    -0.082 A 
ATOM     68  H51 non d ame     -28.820  15.712  21.634  0.00  0.00     0.083 H 
ATOM     69  C34 non d ame     -30.723  14.284  24.063  0.00  0.00    -0.075 A 
ATOM     70  H52 non d ame     -30.117  16.311  23.648  0.00  0.00     0.083 H 
ATOM     71  H53 non d ame     -31.296  14.556  24.950  0.00  0.00     0.084 H 
ENDBRANCH  58  61
ENDBRANCH  57  58
ENDBRANCH  55  57
ENDBRANCH  52  55
ENDBRANCH  49  52
ENDBRANCH  47  49
BRANCH  47  72
ATOM     72  C24 non d ame     -36.380  11.403  24.509  0.00  0.00    -0.039 C 
ATOM     73  H35 non d ame     -35.835  12.155  23.937  0.00  0.00     0.036 H 
ATOM     74  H36 non d ame     -36.033  10.370  24.520  0.00  0.00     0.036 H 
BRANCH  72  75
ATOM     75  C25 non d ame     -37.885  11.390  23.961  0.00  0.00    -0.001 C 
ATOM     76  C26 non d ame     -38.193   9.962  23.206  0.00  0.00    -0.035 C 
ATOM     77  C27 non d ame     -38.709  10.219  21.980  0.00  0.00     0.085 C 
ATOM     78  H38 non d ame     -37.258   9.446  22.986  0.00  0.00     0.036 H 
ATOM     79  H39 non d ame     -38.999   9.436  23.716  0.00  0.00     0.036 H 
ATOM     80  N5  non d ame     -38.476  11.684  21.701  0.00  0.00    -0.049 N 
ATOM     81  H40 non d ame     -38.115   9.626  21.283  0.00  0.00     0.075 H 
ATOM     82  H41 non d ame     -39.780  10.040  22.071  0.00  0.00     0.075 H 
ATOM     83  C28 non d ame     -38.085  12.349  23.119  0.00  0.00     0.193 C 
ATOM     84  H42 non d ame     -37.675  11.736  21.089  0.00  0.00     0.280 HD
ATOM     85  H43 non d ame     -39.364  12.062  21.402  0.00  0.00     0.280 HD
ATOM     86  H44 non d ame     -38.810  12.947  23.669  0.00  0.00     0.129 H 
ATOM     87  H37 non d ame     -38.602  11.718  24.713  0.00  0.00     0.046 H 
BRANCH  83  88
ATOM     88  O6  non d ame     -36.934  13.184  22.971  0.00  0.00    -0.369 OA
ATOM     89  H45 non d ame     -36.892  13.803  23.703  0.00  0.00     0.212 HD
ENDBRANCH  83  88
ENDBRANCH  72  75
ENDBRANCH  47  72
ENDBRANCH  45  47
ENDBRANCH   1  43
BRANCH   1  90
ATOM     90  C16 non d ame     -37.480  16.375  25.231  0.00  0.00    -0.035 C 
ATOM     91  H21 non d ame     -36.611  16.333  24.575  0.00  0.00     0.037 H 
ATOM     92  H22 non d ame     -38.391  15.840  24.963  0.00  0.00     0.037 H 
BRANCH  90  93
ATOM     93  C17 non d ame     -37.871  17.882  25.349  0.00  0.00    -0.059 C 
ATOM     94  H23 non d ame     -38.119  18.080  26.391  0.00  0.00     0.038 H 
BRANCH  93  95
ATOM     95  C18 non d ame     -36.694  18.829  24.950  0.00  0.00    -0.073 C 
ATOM     96  H24 non d ame     -36.004  18.296  24.296  0.00  0.00     0.028 H 
ATOM     97  H25 non d ame     -37.090  19.699  24.425  0.00  0.00     0.028 H 
ATOM     98  H26 non d ame     -36.169  19.154  25.847  0.00  0.00     0.028 H 
ENDBRANCH  93  95
BRANCH  93  99
ATOM     99  C19 non d ame     -39.121  18.188  24.519  0.00  0.00    -0.073 C 
ATOM    100  H27 non d ame     -38.827  18.461  23.505  0.00  0.00     0.028 H 
ATOM    101  H28 non d ame     -39.761  17.306  24.486  0.00  0.00     0.028 H 
ATOM    102  H29 non d ame     -39.666  19.015  24.974  0.00  0.00     0.028 H 
ENDBRANCH  93  99
ENDBRANCH  90  93
ENDBRANCH   1  90
TORSDOF 26
ENDMDL
MODEL 10
REMARK VINA RESULT:      -7.1      2.507      6.811
REMARK  26 active torsions:
REMARK  status: ('A' for Active; 'I' for Inactive)
REMARK    1  A    between atoms: C2_2  and  C3_3 
REMARK    2  A    between atoms: C4_6  and  C5_7 
REMARK       I    between atoms: C5_7  and  N2_9 
REMARK    3  A    between atoms: N2_9  and  C6_10 
REMARK    4  A    between atoms: C6_10  and  C7_11 
REMARK    5  A    between atoms: C6_10  and  C8_13 
REMARK       I    between atoms: C7_11  and  N3_14 
REMARK    6  A    between atoms: N3_14  and  C9_15 
REMARK    7  A    between atoms: C9_15  and  C10_16 
REMARK    8  A    between atoms: C9_15  and  C11_18 
REMARK       I    between atoms: C10_16  and  N4_21 
REMARK    9  A    between atoms: C11_18  and  C12_19 
REMARK   10  A    between atoms: C11_18  and  C13_20 
REMARK   11  A    between atoms: N4_21  and  C14_22 
REMARK   12  A    between atoms: C14_22  and  C15_23 
REMARK   13  A    between atoms: C14_22  and  C16_25 
REMARK       I    between atoms: C15_23  and  N6_40 
REMARK   14  A    between atoms: C16_25  and  C17_26 
REMARK   15  A    between atoms: C17_26  and  C18_27 
REMARK   16  A    between atoms: C17_26  and  C19_28 
REMARK   17  A    between atoms: C20_29  and  C21_30 
REMARK   18  A    between atoms: C20_29  and  C24_33 
REMARK   19  A    between atoms: C20_29  and  N6_40 
REMARK   20  A    between atoms: C21_30  and  C22_31 
REMARK   21  A    between atoms: C22_31  and  C23_32 
REMARK   22  A    between atoms: C23_32  and  O8_43 
REMARK   23  A    between atoms: C24_33  and  C25_34 
REMARK   24  A    between atoms: C28_38  and  O6_39 
REMARK   25  A    between atoms: C29_42  and  O8_43 
REMARK   26  A    between atoms: C29_42  and  C35_49 
ROOT
ATOM      1  C14 non d ame     -32.175   9.383  23.837  0.00  0.00     0.089 C 
ATOM      2  H20 non d ame     -31.895   8.540  24.470  0.00  0.00     0.087 H 
ENDROOT
BRANCH   1   3
ATOM      3  N4  non d ame     -33.482   9.846  24.280  0.00  0.00    -0.346 N 
ATOM      4  C10 non d ame     -34.416   8.910  25.006  0.00  0.00     0.241 C 
ATOM      5  O4  non d ame     -34.095   7.788  25.220  0.00  0.00    -0.271 OA
ATOM      6  H19 non d ame     -33.737  10.804  24.087  0.00  0.00     0.163 HD
BRANCH   4   7
ATOM      7  C9  non d ame     -35.762   9.409  25.463  0.00  0.00     0.092 C 
ATOM      8  H11 non d ame     -36.463   8.574  25.493  0.00  0.00     0.088 H 
BRANCH   7   9
ATOM      9  N3  non d ame     -35.653   9.933  26.827  0.00  0.00    -0.346 N 
ATOM     10  C7  non d ame     -36.106   9.138  27.942  0.00  0.00     0.240 C 
ATOM     11  O3  non d ame     -36.562   8.076  27.760  0.00  0.00    -0.271 OA
ATOM     12  H10 non d ame     -35.264  10.848  27.000  0.00  0.00     0.163 HD
BRANCH  10  13
ATOM     13  C6  non d ame     -35.990   9.703  29.392  0.00  0.00     0.086 C 
ATOM     14  H6  non d ame     -35.749   8.934  30.126  0.00  0.00     0.086 H 
BRANCH  13  15
ATOM     15  N2  non d ame     -34.908  10.672  29.436  0.00  0.00    -0.343 N 
ATOM     16  C5  non d ame     -33.817  10.493  30.397  0.00  0.00     0.273 C 
ATOM     17  O2  non d ame     -33.821   9.568  31.132  0.00  0.00    -0.266 OA
ATOM     18  H5  non d ame     -34.915  11.462  28.806  0.00  0.00     0.163 HD
BRANCH  16  19
ATOM     19  C4  non d ame     -32.666  11.509  30.452  0.00  0.00     0.154 A 
ATOM     20  C1  non d ame     -32.630  12.809  29.855  0.00  0.00    -0.017 A 
ATOM     21  C2  non d ame     -31.363  13.332  30.197  0.00  0.00     0.077 A 
ATOM     22  H1  non d ame     -33.403  13.297  29.262  0.00  0.00     0.091 H 
ATOM     23  O1  non d ame     -30.752  12.431  30.911  0.00  0.00    -0.218 OA
ATOM     24  N1  non d ame     -31.493  11.359  31.072  0.00  0.00    -0.123 NA
BRANCH  21  25
ATOM     25  C3  non d ame     -30.815  14.698  29.805  0.00  0.00    -0.029 C 
ATOM     26  H2  non d ame     -30.039  14.994  30.510  0.00  0.00     0.036 H 
ATOM     27  H3  non d ame     -30.393  14.645  28.802  0.00  0.00     0.036 H 
ATOM     28  H4  non d ame     -31.621  15.431  29.822  0.00  0.00     0.036 H 
ENDBRANCH  21  25
ENDBRANCH  16  19
ENDBRANCH  13  15
BRANCH  13  29
ATOM     29  C8  non d ame     -37.289  10.361  29.784  0.00  0.00    -0.049 C 
ATOM     30  H7  non d ame     -37.087  11.351  30.192  0.00  0.00     0.030 H 
ATOM     31  H8  non d ame     -37.928  10.455  28.905  0.00  0.00     0.030 H 
ATOM     32  H9  non d ame     -37.793   9.754  30.536  0.00  0.00     0.030 H 
ENDBRANCH  13  29
ENDBRANCH  10  13
ENDBRANCH   7   9
BRANCH   7  33
ATOM     33  C11 non d ame     -36.245  10.542  24.511  0.00  0.00    -0.033 C 
ATOM     34  H12 non d ame     -35.358  11.012  24.084  0.00  0.00     0.042 H 
BRANCH  33  35
ATOM     35  C12 non d ame     -37.089   9.972  23.329  0.00  0.00    -0.071 C 
ATOM     36  H13 non d ame     -37.226   8.899  23.464  0.00  0.00     0.028 H 
ATOM     37  H14 non d ame     -38.062  10.463  23.308  0.00  0.00     0.028 H 
ATOM     38  H15 non d ame     -36.569  10.156  22.389  0.00  0.00     0.028 H 
ENDBRANCH  33  35
BRANCH  33  39
ATOM     39  C13 non d ame     -37.038  11.634  25.299  0.00  0.00    -0.071 C 
ATOM     40  H16 non d ame     -37.365  11.226  26.256  0.00  0.00     0.028 H 
ATOM     41  H17 non d ame     -36.394  12.497  25.472  0.00  0.00     0.028 H 
ATOM     42  H18 non d ame     -37.907  11.942  24.718  0.00  0.00     0.028 H 
ENDBRANCH  33  39
ENDBRANCH   7  33
ENDBRANCH   4   7
ENDBRANCH   1   3
BRANCH   1  43
ATOM     43  C15 non d ame     -31.168  10.563  23.948  0.00  0.00     0.240 C 
ATOM     44  O5  non d ame     -30.001  10.352  23.869  0.00  0.00    -0.271 OA
ATOM     45  N6  non d ame     -31.658  11.956  24.142  0.00  0.00    -0.355 N 
ATOM     46  H46 non d ame     -32.648  12.148  24.205  0.00  0.00     0.162 HD
BRANCH  45  47
ATOM     47  C20 non d ame     -30.688  13.069  24.243  0.00  0.00     0.013 C 
ATOM     48  H30 non d ame     -29.847  12.725  24.846  0.00  0.00     0.072 H 
BRANCH  47  49
ATOM     49  C21 non d ame     -31.352  14.252  24.909  0.00  0.00    -0.038 C 
ATOM     50  H31 non d ame     -30.565  14.996  25.041  0.00  0.00     0.036 H 
ATOM     51  H32 non d ame     -32.224  14.483  24.298  0.00  0.00     0.036 H 
BRANCH  49  52
ATOM     52  C22 non d ame     -31.883  13.926  26.321  0.00  0.00     0.018 C 
ATOM     53  H33 non d ame     -31.408  12.988  26.606  0.00  0.00     0.048 H 
ATOM     54  H34 non d ame     -31.714  14.825  26.915  0.00  0.00     0.048 H 
BRANCH  52  55
ATOM     55  C23 non d ame     -33.414  13.662  26.370  0.00  0.00     0.259 C 
ATOM     56  O7  non d ame     -33.844  12.567  26.202  0.00  0.00    -0.265 OA
BRANCH  55  57
ATOM     57  O8  non d ame     -34.301  14.750  26.604  0.00  0.00    -0.317 OA
BRANCH  57  58
ATOM     58  C29 non d ame     -33.986  15.516  27.771  0.00  0.00     0.052 C 
ATOM     59  H47 non d ame     -34.917  15.596  28.331  0.00  0.00     0.082 H 
ATOM     60  H48 non d ame     -33.120  15.029  28.219  0.00  0.00     0.082 H 
BRANCH  58  61
ATOM     61  C35 non d ame     -33.566  16.938  27.311  0.00  0.00    -0.034 A 
ATOM     62  C30 non d ame     -32.865  17.771  28.178  0.00  0.00    -0.075 A 
ATOM     63  C31 non d ame     -32.488  19.049  27.765  0.00  0.00    -0.082 A 
ATOM     64  H49 non d ame     -32.613  17.425  29.180  0.00  0.00     0.084 H 
ATOM     65  C32 non d ame     -32.816  19.493  26.481  0.00  0.00    -0.083 A 
ATOM     66  H50 non d ame     -31.938  19.699  28.446  0.00  0.00     0.083 H 
ATOM     67  C33 non d ame     -33.518  18.659  25.622  0.00  0.00    -0.082 A 
ATOM     68  H51 non d ame     -32.524  20.489  26.151  0.00  0.00     0.083 H 
ATOM     69  C34 non d ame     -33.895  17.381  26.029  0.00  0.00    -0.075 A 
ATOM     70  H52 non d ame     -33.774  19.009  24.621  0.00  0.00     0.083 H 
ATOM     71  H53 non d ame     -34.445  16.731  25.347  0.00  0.00     0.084 H 
ENDBRANCH  58  61
ENDBRANCH  57  58
ENDBRANCH  55  57
ENDBRANCH  52  55
ENDBRANCH  49  52
ENDBRANCH  47  49
BRANCH  47  72
ATOM     72  C24 non d ame     -30.212  13.468  22.848  0.00  0.00    -0.039 C 
ATOM     73  H35 non d ame     -29.175  13.135  22.790  0.00  0.00     0.036 H 
ATOM     74  H36 non d ame     -30.954  13.062  22.161  0.00  0.00     0.036 H 
BRANCH  72  75
ATOM     75  C25 non d ame     -30.211  15.059  22.655  0.00  0.00    -0.001 C 
ATOM     76  C26 non d ame     -31.194  15.471  21.404  0.00  0.00    -0.035 C 
ATOM     77  C27 non d ame     -30.509  16.277  20.558  0.00  0.00     0.085 C 
ATOM     78  H38 non d ame     -31.416  14.593  20.798  0.00  0.00     0.036 H 
ATOM     79  H39 non d ame     -32.005  16.107  21.761  0.00  0.00     0.036 H 
ATOM     80  N5  non d ame     -29.053  16.186  20.944  0.00  0.00    -0.049 N 
ATOM     81  H40 non d ame     -30.642  15.840  19.568  0.00  0.00     0.075 H 
ATOM     82  H41 non d ame     -30.868  17.286  20.761  0.00  0.00     0.075 H 
ATOM     83  C28 non d ame     -29.022  15.498  22.404  0.00  0.00     0.193 C 
ATOM     84  H42 non d ame     -28.620  15.557  20.283  0.00  0.00     0.280 HD
ATOM     85  H43 non d ame     -28.720  17.136  21.029  0.00  0.00     0.280 HD
ATOM     86  H44 non d ame     -28.840  16.097  23.295  0.00  0.00     0.129 H 
ATOM     87  H37 non d ame     -30.356  15.589  23.596  0.00  0.00     0.046 H 
BRANCH  83  88
ATOM     88  O6  non d ame     -28.044  14.457  22.438  0.00  0.00    -0.369 OA
ATOM     89  H45 non d ame     -27.834  14.186  21.541  0.00  0.00     0.212 HD
ENDBRANCH  83  88
ENDBRANCH  72  75
ENDBRANCH  47  72
ENDBRANCH  45  47
ENDBRANCH   1  43
BRANCH   1  90
ATOM     90  C16 non d ame     -32.275   8.929  22.389  0.00  0.00    -0.035 C 
ATOM     91  H21 non d ame     -33.342   8.857  22.182  0.00  0.00     0.037 H 
ATOM     92  H22 non d ame     -31.657   9.627  21.825  0.00  0.00     0.037 H 
BRANCH  90  93
ATOM     93  C17 non d ame     -31.680   7.508  22.136  0.00  0.00    -0.059 C 
ATOM     94  H23 non d ame     -30.840   7.617  21.450  0.00  0.00     0.038 H 
BRANCH  93  95
ATOM     95  C18 non d ame     -31.142   6.851  23.447  0.00  0.00    -0.073 C 
ATOM     96  H24 non d ame     -31.981   6.526  24.062  0.00  0.00     0.028 H 
ATOM     97  H25 non d ame     -30.523   5.990  23.195  0.00  0.00     0.028 H 
ATOM     98  H26 non d ame     -30.546   7.577  23.999  0.00  0.00     0.028 H 
ENDBRANCH  93  95
BRANCH  93  99
ATOM     99  C19 non d ame     -32.707   6.599  21.455  0.00  0.00    -0.073 C 
ATOM    100  H27 non d ame     -33.706   6.844  21.816  0.00  0.00     0.028 H 
ATOM    101  H28 non d ame     -32.666   6.748  20.376  0.00  0.00     0.028 H 
ATOM    102  H29 non d ame     -32.482   5.558  21.685  0.00  0.00     0.028 H 
ENDBRANCH  93  99
ENDBRANCH  90  93
ENDBRANCH   1  90
TORSDOF 26
ENDMDL
MODEL 11
REMARK VINA RESULT:      -7.1      2.786      9.127
REMARK  26 active torsions:
REMARK  status: ('A' for Active; 'I' for Inactive)
REMARK    1  A    between atoms: C2_2  and  C3_3 
REMARK    2  A    between atoms: C4_6  and  C5_7 
REMARK       I    between atoms: C5_7  and  N2_9 
REMARK    3  A    between atoms: N2_9  and  C6_10 
REMARK    4  A    between atoms: C6_10  and  C7_11 
REMARK    5  A    between atoms: C6_10  and  C8_13 
REMARK       I    between atoms: C7_11  and  N3_14 
REMARK    6  A    between atoms: N3_14  and  C9_15 
REMARK    7  A    between atoms: C9_15  and  C10_16 
REMARK    8  A    between atoms: C9_15  and  C11_18 
REMARK       I    between atoms: C10_16  and  N4_21 
REMARK    9  A    between atoms: C11_18  and  C12_19 
REMARK   10  A    between atoms: C11_18  and  C13_20 
REMARK   11  A    between atoms: N4_21  and  C14_22 
REMARK   12  A    between atoms: C14_22  and  C15_23 
REMARK   13  A    between atoms: C14_22  and  C16_25 
REMARK       I    between atoms: C15_23  and  N6_40 
REMARK   14  A    between atoms: C16_25  and  C17_26 
REMARK   15  A    between atoms: C17_26  and  C18_27 
REMARK   16  A    between atoms: C17_26  and  C19_28 
REMARK   17  A    between atoms: C20_29  and  C21_30 
REMARK   18  A    between atoms: C20_29  and  C24_33 
REMARK   19  A    between atoms: C20_29  and  N6_40 
REMARK   20  A    between atoms: C21_30  and  C22_31 
REMARK   21  A    between atoms: C22_31  and  C23_32 
REMARK   22  A    between atoms: C23_32  and  O8_43 
REMARK   23  A    between atoms: C24_33  and  C25_34 
REMARK   24  A    between atoms: C28_38  and  O6_39 
REMARK   25  A    between atoms: C29_42  and  O8_43 
REMARK   26  A    between atoms: C29_42  and  C35_49 
ROOT
ATOM      1  C14 non d ame     -33.813   6.933  27.754  0.00  0.00     0.089 C 
ATOM      2  H20 non d ame     -33.335   6.620  28.683  0.00  0.00     0.087 H 
ENDROOT
BRANCH   1   3
ATOM      3  N4  non d ame     -34.329   8.278  27.960  0.00  0.00    -0.346 N 
ATOM      4  C10 non d ame     -34.712   8.745  29.342  0.00  0.00     0.241 C 
ATOM      5  O4  non d ame     -34.600   8.018  30.273  0.00  0.00    -0.271 OA
ATOM      6  H19 non d ame     -34.418   8.880  27.153  0.00  0.00     0.163 HD
BRANCH   4   7
ATOM      7  C9  non d ame     -35.237  10.143  29.536  0.00  0.00     0.092 C 
ATOM      8  H11 non d ame     -35.490  10.288  30.587  0.00  0.00     0.088 H 
BRANCH   7   9
ATOM      9  N3  non d ame     -34.188  11.110  29.204  0.00  0.00    -0.346 N 
ATOM     10  C7  non d ame     -33.139  11.390  30.154  0.00  0.00     0.240 C 
ATOM     11  O3  non d ame     -33.125  10.846  31.190  0.00  0.00    -0.271 OA
ATOM     12  H10 non d ame     -34.188  11.589  28.315  0.00  0.00     0.163 HD
BRANCH  10  13
ATOM     13  C6  non d ame     -32.026  12.423  29.796  0.00  0.00     0.086 C 
ATOM     14  H6  non d ame     -31.433  12.123  28.933  0.00  0.00     0.086 H 
BRANCH  13  15
ATOM     15  N2  non d ame     -32.653  13.689  29.450  0.00  0.00    -0.343 N 
ATOM     16  C5  non d ame     -31.925  14.650  28.618  0.00  0.00     0.273 C 
ATOM     17  O2  non d ame     -30.836  14.397  28.235  0.00  0.00    -0.266 OA
ATOM     18  H5  non d ame     -33.582  13.898  29.785  0.00  0.00     0.163 HD
BRANCH  16  19
ATOM     19  C4  non d ame     -32.575  15.990  28.243  0.00  0.00     0.154 A 
ATOM     20  C1  non d ame     -33.252  16.313  27.024  0.00  0.00    -0.017 A 
ATOM     21  C2  non d ame     -33.660  17.657  27.179  0.00  0.00     0.077 A 
ATOM     22  H1  non d ame     -33.419  15.671  26.159  0.00  0.00     0.091 H 
ATOM     23  O1  non d ame     -33.262  18.049  28.354  0.00  0.00    -0.218 OA
ATOM     24  N1  non d ame     -32.626  17.095  28.993  0.00  0.00    -0.123 NA
BRANCH  21  25
ATOM     25  C3  non d ame     -34.425  18.489  26.159  0.00  0.00    -0.029 C 
ATOM     26  H2  non d ame     -33.764  18.751  25.333  0.00  0.00     0.036 H 
ATOM     27  H3  non d ame     -35.269  17.913  25.779  0.00  0.00     0.036 H 
ATOM     28  H4  non d ame     -34.790  19.399  26.633  0.00  0.00     0.036 H 
ENDBRANCH  21  25
ENDBRANCH  16  19
ENDBRANCH  13  15
BRANCH  13  29
ATOM     29  C8  non d ame     -31.109  12.608  30.979  0.00  0.00    -0.049 C 
ATOM     30  H7  non d ame     -31.679  12.988  31.826  0.00  0.00     0.030 H 
ATOM     31  H8  non d ame     -30.661  11.649  31.243  0.00  0.00     0.030 H 
ATOM     32  H9  non d ame     -30.323  13.318  30.722  0.00  0.00     0.030 H 
ENDBRANCH  13  29
ENDBRANCH  10  13
ENDBRANCH   7   9
BRANCH   7  33
ATOM     33  C11 non d ame     -36.463  10.370  28.604  0.00  0.00    -0.033 C 
ATOM     34  H12 non d ame     -36.640   9.440  28.062  0.00  0.00     0.042 H 
BRANCH  33  35
ATOM     35  C12 non d ame     -37.752  10.687  29.424  0.00  0.00    -0.071 C 
ATOM     36  H13 non d ame     -38.317  11.473  28.923  0.00  0.00     0.028 H 
ATOM     37  H14 non d ame     -38.365   9.789  29.498  0.00  0.00     0.028 H 
ATOM     38  H15 non d ame     -37.474  11.021  30.424  0.00  0.00     0.028 H 
ENDBRANCH  33  35
BRANCH  33  39
ATOM     39  C13 non d ame     -36.168  11.490  27.555  0.00  0.00    -0.071 C 
ATOM     40  H16 non d ame     -36.724  12.390  27.819  0.00  0.00     0.028 H 
ATOM     41  H17 non d ame     -35.101  11.711  27.549  0.00  0.00     0.028 H 
ATOM     42  H18 non d ame     -36.473  11.152  26.566  0.00  0.00     0.028 H 
ENDBRANCH  33  39
ENDBRANCH   7  33
ENDBRANCH   4   7
ENDBRANCH   1   3
BRANCH   1  43
ATOM     43  C15 non d ame     -32.818   6.960  26.560  0.00  0.00     0.240 C 
ATOM     44  O5  non d ame     -31.847   6.275  26.584  0.00  0.00    -0.271 OA
ATOM     45  N6  non d ame     -33.080   7.833  25.380  0.00  0.00    -0.355 N 
ATOM     46  H46 non d ame     -33.905   8.415  25.347  0.00  0.00     0.162 HD
BRANCH  45  47
ATOM     47  C20 non d ame     -32.125   7.846  24.251  0.00  0.00     0.013 C 
ATOM     48  H30 non d ame     -31.185   7.421  24.602  0.00  0.00     0.072 H 
BRANCH  47  49
ATOM     49  C21 non d ame     -31.909   9.272  23.796  0.00  0.00    -0.038 C 
ATOM     50  H31 non d ame     -30.861   9.493  24.004  0.00  0.00     0.036 H 
ATOM     51  H32 non d ame     -32.282   9.314  22.773  0.00  0.00     0.036 H 
BRANCH  49  52
ATOM     52  C22 non d ame     -32.738  10.292  24.606  0.00  0.00     0.018 C 
ATOM     53  H33 non d ame     -32.905  11.135  23.936  0.00  0.00     0.048 H 
ATOM     54  H34 non d ame     -33.589   9.733  25.000  0.00  0.00     0.048 H 
BRANCH  52  55
ATOM     55  C23 non d ame     -31.992  10.866  25.841  0.00  0.00     0.259 C 
ATOM     56  O7  non d ame     -32.188  10.421  26.925  0.00  0.00    -0.265 OA
BRANCH  55  57
ATOM     57  O8  non d ame     -31.079  11.943  25.666  0.00  0.00    -0.317 OA
BRANCH  57  58
ATOM     58  C29 non d ame     -31.684  13.143  25.172  0.00  0.00     0.052 C 
ATOM     59  H47 non d ame     -32.660  12.845  24.790  0.00  0.00     0.082 H 
ATOM     60  H48 non d ame     -31.613  13.865  25.985  0.00  0.00     0.082 H 
BRANCH  58  61
ATOM     61  C35 non d ame     -30.828  13.657  23.984  0.00  0.00    -0.034 A 
ATOM     62  C30 non d ame     -30.618  15.022  23.816  0.00  0.00    -0.075 A 
ATOM     63  C31 non d ame     -29.849  15.484  22.748  0.00  0.00    -0.082 A 
ATOM     64  H49 non d ame     -31.056  15.730  24.520  0.00  0.00     0.084 H 
ATOM     65  C32 non d ame     -29.291  14.575  21.845  0.00  0.00    -0.083 A 
ATOM     66  H50 non d ame     -29.685  16.555  22.620  0.00  0.00     0.083 H 
ATOM     67  C33 non d ame     -29.506  13.214  22.015  0.00  0.00    -0.082 A 
ATOM     68  H51 non d ame     -28.688  14.928  21.009  0.00  0.00     0.083 H 
ATOM     69  C34 non d ame     -30.272  12.748  23.082  0.00  0.00    -0.075 A 
ATOM     70  H52 non d ame     -29.071  12.507  21.308  0.00  0.00     0.083 H 
ATOM     71  H53 non d ame     -30.435  11.678  23.209  0.00  0.00     0.084 H 
ENDBRANCH  58  61
ENDBRANCH  57  58
ENDBRANCH  55  57
ENDBRANCH  52  55
ENDBRANCH  49  52
ENDBRANCH  47  49
BRANCH  47  72
ATOM     72  C24 non d ame     -32.681   7.020  23.094  0.00  0.00    -0.039 C 
ATOM     73  H35 non d ame     -31.928   6.255  22.896  0.00  0.00     0.036 H 
ATOM     74  H36 non d ame     -33.685   6.729  23.401  0.00  0.00     0.036 H 
BRANCH  72  75
ATOM     75  C25 non d ame     -32.830   7.893  21.759  0.00  0.00    -0.001 C 
ATOM     76  C26 non d ame     -34.421   8.153  21.436  0.00  0.00    -0.035 C 
ATOM     77  C27 non d ame     -34.668   7.803  20.151  0.00  0.00     0.085 C 
ATOM     78  H38 non d ame     -35.037   7.463  22.012  0.00  0.00     0.036 H 
ATOM     79  H39 non d ame     -34.636   9.222  21.454  0.00  0.00     0.036 H 
ATOM     80  N5  non d ame     -33.471   7.021  19.668  0.00  0.00    -0.049 N 
ATOM     81  H40 non d ame     -35.533   7.139  20.191  0.00  0.00     0.075 H 
ATOM     82  H41 non d ame     -34.727   8.740  19.599  0.00  0.00     0.075 H 
ATOM     83  C28 non d ame     -32.299   7.293  20.746  0.00  0.00     0.193 C 
ATOM     84  H42 non d ame     -33.728   6.046  19.712  0.00  0.00     0.280 HD
ATOM     85  H43 non d ame     -33.198   7.432  18.786  0.00  0.00     0.280 HD
ATOM     86  H44 non d ame     -31.483   7.976  20.516  0.00  0.00     0.129 H 
ATOM     87  H37 non d ame     -32.175   8.764  21.760  0.00  0.00     0.046 H 
BRANCH  83  88
ATOM     88  O6  non d ame     -31.674   6.062  21.115  0.00  0.00    -0.369 OA
ATOM     89  H45 non d ame     -32.322   5.484  21.523  0.00  0.00     0.212 HD
ENDBRANCH  83  88
ENDBRANCH  72  75
ENDBRANCH  47  72
ENDBRANCH  45  47
ENDBRANCH   1  43
BRANCH   1  90
ATOM     90  C16 non d ame     -34.972   6.002  27.434  0.00  0.00    -0.035 C 
ATOM     91  H21 non d ame     -35.848   6.646  27.359  0.00  0.00     0.037 H 
ATOM     92  H22 non d ame     -34.647   5.423  26.569  0.00  0.00     0.037 H 
BRANCH  90  93
ATOM     93  C17 non d ame     -35.280   4.970  28.565  0.00  0.00    -0.059 C 
ATOM     94  H23 non d ame     -35.523   4.020  28.091  0.00  0.00     0.038 H 
BRANCH  93  95
ATOM     95  C18 non d ame     -34.049   4.736  29.499  0.00  0.00    -0.073 C 
ATOM     96  H24 non d ame     -33.258   5.439  29.241  0.00  0.00     0.028 H 
ATOM     97  H25 non d ame     -34.346   4.890  30.537  0.00  0.00     0.028 H 
ATOM     98  H26 non d ame     -33.686   3.717  29.373  0.00  0.00     0.028 H 
ENDBRANCH  93  95
BRANCH  93  99
ATOM     99  C19 non d ame     -36.505   5.400  29.377  0.00  0.00    -0.073 C 
ATOM    100  H27 non d ame     -37.378   4.838  29.043  0.00  0.00     0.028 H 
ATOM    101  H28 non d ame     -36.329   5.200  30.434  0.00  0.00     0.028 H 
ATOM    102  H29 non d ame     -36.681   6.465  29.234  0.00  0.00     0.028 H 
ENDBRANCH  93  99
ENDBRANCH  90  93
ENDBRANCH   1  90
TORSDOF 26
ENDMDL
MODEL 12
REMARK VINA RESULT:      -7.1      2.261      7.135
REMARK  26 active torsions:
REMARK  status: ('A' for Active; 'I' for Inactive)
REMARK    1  A    between atoms: C2_2  and  C3_3 
REMARK    2  A    between atoms: C4_6  and  C5_7 
REMARK       I    between atoms: C5_7  and  N2_9 
REMARK    3  A    between atoms: N2_9  and  C6_10 
REMARK    4  A    between atoms: C6_10  and  C7_11 
REMARK    5  A    between atoms: C6_10  and  C8_13 
REMARK       I    between atoms: C7_11  and  N3_14 
REMARK    6  A    between atoms: N3_14  and  C9_15 
REMARK    7  A    between atoms: C9_15  and  C10_16 
REMARK    8  A    between atoms: C9_15  and  C11_18 
REMARK       I    between atoms: C10_16  and  N4_21 
REMARK    9  A    between atoms: C11_18  and  C12_19 
REMARK   10  A    between atoms: C11_18  and  C13_20 
REMARK   11  A    between atoms: N4_21  and  C14_22 
REMARK   12  A    between atoms: C14_22  and  C15_23 
REMARK   13  A    between atoms: C14_22  and  C16_25 
REMARK       I    between atoms: C15_23  and  N6_40 
REMARK   14  A    between atoms: C16_25  and  C17_26 
REMARK   15  A    between atoms: C17_26  and  C18_27 
REMARK   16  A    between atoms: C17_26  and  C19_28 
REMARK   17  A    between atoms: C20_29  and  C21_30 
REMARK   18  A    between atoms: C20_29  and  C24_33 
REMARK   19  A    between atoms: C20_29  and  N6_40 
REMARK   20  A    between atoms: C21_30  and  C22_31 
REMARK   21  A    between atoms: C22_31  and  C23_32 
REMARK   22  A    between atoms: C23_32  and  O8_43 
REMARK   23  A    between atoms: C24_33  and  C25_34 
REMARK   24  A    between atoms: C28_38  and  O6_39 
REMARK   25  A    between atoms: C29_42  and  O8_43 
REMARK   26  A    between atoms: C29_42  and  C35_49 
ROOT
ATOM      1  C14 non d ame     -32.495   9.565  25.341  0.00  0.00     0.089 C 
ATOM      2  H20 non d ame     -31.849   8.694  25.451  0.00  0.00     0.087 H 
ENDROOT
BRANCH   1   3
ATOM      3  N4  non d ame     -33.478   9.518  26.413  0.00  0.00    -0.346 N 
ATOM      4  C10 non d ame     -33.420   8.427  27.454  0.00  0.00     0.241 C 
ATOM      5  O4  non d ame     -32.574   7.597  27.405  0.00  0.00    -0.271 OA
ATOM      6  H19 non d ame     -34.191  10.233  26.436  0.00  0.00     0.163 HD
BRANCH   4   7
ATOM      7  C9  non d ame     -34.442   8.398  28.559  0.00  0.00     0.092 C 
ATOM      8  H11 non d ame     -34.265   7.525  29.189  0.00  0.00     0.088 H 
BRANCH   7   9
ATOM      9  N3  non d ame     -34.282   9.583  29.406  0.00  0.00    -0.346 N 
ATOM     10  C7  non d ame     -34.183   9.439  30.837  0.00  0.00     0.240 C 
ATOM     11  O3  non d ame     -34.233   8.375  31.325  0.00  0.00    -0.271 OA
ATOM     12  H10 non d ame     -34.239  10.507  29.000  0.00  0.00     0.163 HD
BRANCH  10  13
ATOM     13  C6  non d ame     -34.016  10.704  31.734  0.00  0.00     0.086 C 
ATOM     14  H6  non d ame     -33.206  10.605  32.456  0.00  0.00     0.086 H 
BRANCH  13  15
ATOM     15  N2  non d ame     -33.682  11.839  30.889  0.00  0.00    -0.343 N 
ATOM     16  C5  non d ame     -32.281  12.101  30.552  0.00  0.00     0.273 C 
ATOM     17  O2  non d ame     -31.430  11.394  30.967  0.00  0.00    -0.266 OA
ATOM     18  H5  non d ame     -34.416  12.440  30.542  0.00  0.00     0.163 HD
BRANCH  16  19
ATOM     19  C4  non d ame     -31.914  13.295  29.659  0.00  0.00     0.154 A 
ATOM     20  C1  non d ame     -32.645  14.516  29.504  0.00  0.00    -0.017 A 
ATOM     21  C2  non d ame     -31.893  15.276  28.580  0.00  0.00     0.077 A 
ATOM     22  H1  non d ame     -33.579  14.806  29.986  0.00  0.00     0.091 H 
ATOM     23  O1  non d ame     -30.853  14.567  28.251  0.00  0.00    -0.218 OA
ATOM     24  N1  non d ame     -30.844  13.407  28.867  0.00  0.00    -0.123 NA
BRANCH  21  25
ATOM     25  C3  non d ame     -32.237  16.667  28.066  0.00  0.00    -0.029 C 
ATOM     26  H2  non d ame     -33.296  16.865  28.233  0.00  0.00     0.036 H 
ATOM     27  H3  non d ame     -31.642  17.409  28.599  0.00  0.00     0.036 H 
ATOM     28  H4  non d ame     -32.020  16.725  27.000  0.00  0.00     0.036 H 
ENDBRANCH  21  25
ENDBRANCH  16  19
ENDBRANCH  13  15
BRANCH  13  29
ATOM     29  C8  non d ame     -35.301  10.973  32.475  0.00  0.00    -0.049 C 
ATOM     30  H7  non d ame     -35.135  10.856  33.546  0.00  0.00     0.030 H 
ATOM     31  H8  non d ame     -35.634  11.990  32.268  0.00  0.00     0.030 H 
ATOM     32  H9  non d ame     -36.064  10.267  32.147  0.00  0.00     0.030 H 
ENDBRANCH  13  29
ENDBRANCH  10  13
ENDBRANCH   7   9
BRANCH   7  33
ATOM     33  C11 non d ame     -35.871   8.393  27.943  0.00  0.00    -0.033 C 
ATOM     34  H12 non d ame     -35.981   9.308  27.360  0.00  0.00     0.042 H 
BRANCH  33  35
ATOM     35  C12 non d ame     -36.067   7.189  26.969  0.00  0.00    -0.071 C 
ATOM     36  H13 non d ame     -35.269   6.464  27.123  0.00  0.00     0.028 H 
ATOM     37  H14 non d ame     -37.030   6.718  27.164  0.00  0.00     0.028 H 
ATOM     38  H15 non d ame     -36.039   7.547  25.940  0.00  0.00     0.028 H 
ENDBRANCH  33  35
BRANCH  33  39
ATOM     39  C13 non d ame     -36.962   8.400  29.061  0.00  0.00    -0.071 C 
ATOM     40  H16 non d ame     -36.491   8.237  30.031  0.00  0.00     0.028 H 
ATOM     41  H17 non d ame     -37.475   9.362  29.064  0.00  0.00     0.028 H 
ATOM     42  H18 non d ame     -37.684   7.606  28.870  0.00  0.00     0.028 H 
ENDBRANCH  33  39
ENDBRANCH   7  33
ENDBRANCH   4   7
ENDBRANCH   1   3
BRANCH   1  43
ATOM     43  C15 non d ame     -31.706  10.901  25.451  0.00  0.00     0.240 C 
ATOM     44  O5  non d ame     -30.968  11.077  26.366  0.00  0.00    -0.271 OA
ATOM     45  N6  non d ame     -31.863  11.957  24.411  0.00  0.00    -0.355 N 
ATOM     46  H46 non d ame     -32.484  11.816  23.627  0.00  0.00     0.162 HD
BRANCH  45  47
ATOM     47  C20 non d ame     -31.104  13.221  24.528  0.00  0.00     0.013 C 
ATOM     48  H30 non d ame     -30.363  13.095  25.317  0.00  0.00     0.072 H 
BRANCH  47  49
ATOM     49  C21 non d ame     -32.053  14.342  24.886  0.00  0.00    -0.038 C 
ATOM     50  H31 non d ame     -31.502  14.988  25.571  0.00  0.00     0.036 H 
ATOM     51  H32 non d ame     -32.414  14.737  23.937  0.00  0.00     0.036 H 
BRANCH  49  52
ATOM     52  C22 non d ame     -33.298  13.852  25.657  0.00  0.00     0.018 C 
ATOM     53  H33 non d ame     -33.734  13.065  25.043  0.00  0.00     0.048 H 
ATOM     54  H34 non d ame     -32.949  13.625  26.666  0.00  0.00     0.048 H 
BRANCH  52  55
ATOM     55  C23 non d ame     -34.401  14.933  25.819  0.00  0.00     0.259 C 
ATOM     56  O7  non d ame     -35.232  14.826  26.661  0.00  0.00    -0.265 OA
BRANCH  55  57
ATOM     57  O8  non d ame     -34.418  16.050  24.937  0.00  0.00    -0.317 OA
BRANCH  57  58
ATOM     58  C29 non d ame     -35.393  17.041  25.273  0.00  0.00     0.052 C 
ATOM     59  H47 non d ame     -35.774  17.413  24.323  0.00  0.00     0.082 H 
ATOM     60  H48 non d ame     -36.068  16.563  25.983  0.00  0.00     0.082 H 
BRANCH  58  61
ATOM     61  C35 non d ame     -34.663  18.204  25.998  0.00  0.00    -0.034 A 
ATOM     62  C30 non d ame     -33.530  18.777  25.430  0.00  0.00    -0.075 A 
ATOM     63  C31 non d ame     -32.874  19.821  26.081  0.00  0.00    -0.082 A 
ATOM     64  H49 non d ame     -33.154  18.407  24.476  0.00  0.00     0.084 H 
ATOM     65  C32 non d ame     -33.355  20.291  27.306  0.00  0.00    -0.083 A 
ATOM     66  H50 non d ame     -31.986  20.268  25.632  0.00  0.00     0.083 H 
ATOM     67  C33 non d ame     -34.484  19.714  27.871  0.00  0.00    -0.082 A 
ATOM     68  H51 non d ame     -32.848  21.107  27.821  0.00  0.00     0.083 H 
ATOM     69  C34 non d ame     -35.144  18.672  27.222  0.00  0.00    -0.075 A 
ATOM     70  H52 non d ame     -34.856  20.082  28.828  0.00  0.00     0.083 H 
ATOM     71  H53 non d ame     -36.031  18.225  27.672  0.00  0.00     0.084 H 
ENDBRANCH  58  61
ENDBRANCH  57  58
ENDBRANCH  55  57
ENDBRANCH  52  55
ENDBRANCH  49  52
ENDBRANCH  47  49
BRANCH  47  72
ATOM     72  C24 non d ame     -30.418  13.537  23.201  0.00  0.00    -0.039 C 
ATOM     73  H35 non d ame     -29.399  13.162  23.306  0.00  0.00     0.036 H 
ATOM     74  H36 non d ame     -31.073  13.128  22.432  0.00  0.00     0.036 H 
BRANCH  72  75
ATOM     75  C25 non d ame     -30.318  15.115  22.947  0.00  0.00    -0.001 C 
ATOM     76  C26 non d ame     -31.326  15.550  21.723  0.00  0.00    -0.035 C 
ATOM     77  C27 non d ame     -30.626  16.275  20.818  0.00  0.00     0.085 C 
ATOM     78  H38 non d ame     -31.633  14.668  21.161  0.00  0.00     0.036 H 
ATOM     79  H39 non d ame     -32.075  16.253  22.088  0.00  0.00     0.036 H 
ATOM     80  N5  non d ame     -29.164  16.098  21.145  0.00  0.00    -0.049 N 
ATOM     81  H40 non d ame     -30.833  15.813  19.852  0.00  0.00     0.075 H 
ATOM     82  H41 non d ame     -30.907  17.313  20.997  0.00  0.00     0.075 H 
ATOM     83  C28 non d ame     -29.115  15.462  22.629  0.00  0.00     0.193 C 
ATOM     84  H42 non d ame     -28.804  15.417  20.492  0.00  0.00     0.280 HD
ATOM     85  H43 non d ame     -28.764  17.025  21.179  0.00  0.00     0.280 HD
ATOM     86  H44 non d ame     -28.853  16.079  23.487  0.00  0.00     0.129 H 
ATOM     87  H37 non d ame     -30.384  15.688  23.871  0.00  0.00     0.046 H 
BRANCH  83  88
ATOM     88  O6  non d ame     -28.209  14.358  22.662  0.00  0.00    -0.369 OA
ATOM     89  H45 non d ame     -28.598  13.639  23.165  0.00  0.00     0.212 HD
ENDBRANCH  83  88
ENDBRANCH  72  75
ENDBRANCH  47  72
ENDBRANCH  45  47
ENDBRANCH   1  43
BRANCH   1  90
ATOM     90  C16 non d ame     -33.217   9.506  24.004  0.00  0.00    -0.035 C 
ATOM     91  H21 non d ame     -34.224   9.160  24.234  0.00  0.00     0.037 H 
ATOM     92  H22 non d ame     -33.068  10.486  23.553  0.00  0.00     0.037 H 
BRANCH  90  93
ATOM     93  C17 non d ame     -32.610   8.465  23.010  0.00  0.00    -0.059 C 
ATOM     94  H23 non d ame     -32.436   7.542  23.563  0.00  0.00     0.038 H 
BRANCH  93  95
ATOM     95  C18 non d ame     -33.583   8.140  21.832  0.00  0.00    -0.073 C 
ATOM     96  H24 non d ame     -34.541   7.810  22.232  0.00  0.00     0.028 H 
ATOM     97  H25 non d ame     -33.731   9.035  21.226  0.00  0.00     0.028 H 
ATOM     98  H26 non d ame     -33.155   7.351  21.215  0.00  0.00     0.028 H 
ENDBRANCH  93  95
BRANCH  93  99
ATOM     99  C19 non d ame     -31.254   8.940  22.482  0.00  0.00    -0.073 C 
ATOM    100  H27 non d ame     -30.944   8.305  21.651  0.00  0.00     0.028 H 
ATOM    101  H28 non d ame     -31.339   9.971  22.137  0.00  0.00     0.028 H 
ATOM    102  H29 non d ame     -30.513   8.885  23.278  0.00  0.00     0.028 H 
ENDBRANCH  93  99
ENDBRANCH  90  93
ENDBRANCH   1  90
TORSDOF 26
ENDMDL
MODEL 13
REMARK VINA RESULT:      -7.1      1.883      5.538
REMARK  26 active torsions:
REMARK  status: ('A' for Active; 'I' for Inactive)
REMARK    1  A    between atoms: C2_2  and  C3_3 
REMARK    2  A    between atoms: C4_6  and  C5_7 
REMARK       I    between atoms: C5_7  and  N2_9 
REMARK    3  A    between atoms: N2_9  and  C6_10 
REMARK    4  A    between atoms: C6_10  and  C7_11 
REMARK    5  A    between atoms: C6_10  and  C8_13 
REMARK       I    between atoms: C7_11  and  N3_14 
REMARK    6  A    between atoms: N3_14  and  C9_15 
REMARK    7  A    between atoms: C9_15  and  C10_16 
REMARK    8  A    between atoms: C9_15  and  C11_18 
REMARK       I    between atoms: C10_16  and  N4_21 
REMARK    9  A    between atoms: C11_18  and  C12_19 
REMARK   10  A    between atoms: C11_18  and  C13_20 
REMARK   11  A    between atoms: N4_21  and  C14_22 
REMARK   12  A    between atoms: C14_22  and  C15_23 
REMARK   13  A    between atoms: C14_22  and  C16_25 
REMARK       I    between atoms: C15_23  and  N6_40 
REMARK   14  A    between atoms: C16_25  and  C17_26 
REMARK   15  A    between atoms: C17_26  and  C18_27 
REMARK   16  A    between atoms: C17_26  and  C19_28 
REMARK   17  A    between atoms: C20_29  and  C21_30 
REMARK   18  A    between atoms: C20_29  and  C24_33 
REMARK   19  A    between atoms: C20_29  and  N6_40 
REMARK   20  A    between atoms: C21_30  and  C22_31 
REMARK   21  A    between atoms: C22_31  and  C23_32 
REMARK   22  A    between atoms: C23_32  and  O8_43 
REMARK   23  A    between atoms: C24_33  and  C25_34 
REMARK   24  A    between atoms: C28_38  and  O6_39 
REMARK   25  A    between atoms: C29_42  and  O8_43 
REMARK   26  A    between atoms: C29_42  and  C35_49 
ROOT
ATOM      1  C14 non d ame     -32.638   9.847  25.060  0.00  0.00     0.089 C 
ATOM      2  H20 non d ame     -32.456   9.108  25.841  0.00  0.00     0.087 H 
ENDROOT
BRANCH   1   3
ATOM      3  N4  non d ame     -33.992  10.349  25.241  0.00  0.00    -0.346 N 
ATOM      4  C10 non d ame     -35.022   9.521  25.968  0.00  0.00     0.241 C 
ATOM      5  O4  non d ame     -34.739   8.451  26.395  0.00  0.00    -0.271 OA
ATOM      6  H19 non d ame     -34.214  11.262  24.868  0.00  0.00     0.163 HD
BRANCH   4   7
ATOM      7  C9  non d ame     -36.416  10.060  26.151  0.00  0.00     0.092 C 
ATOM      8  H11 non d ame     -36.595  10.240  27.211  0.00  0.00     0.088 H 
BRANCH   7   9
ATOM      9  N3  non d ame     -36.536  11.350  25.466  0.00  0.00    -0.346 N 
ATOM     10  C7  non d ame     -36.964  12.517  26.197  0.00  0.00     0.240 C 
ATOM     11  O3  non d ame     -37.217  12.436  27.337  0.00  0.00    -0.271 OA
ATOM     12  H10 non d ame     -36.323  11.435  24.483  0.00  0.00     0.163 HD
BRANCH  10  13
ATOM     13  C6  non d ame     -37.092  13.887  25.461  0.00  0.00     0.086 C 
ATOM     14  H6  non d ame     -38.004  14.424  25.725  0.00  0.00     0.086 H 
BRANCH  13  15
ATOM     15  N2  non d ame     -35.981  14.738  25.853  0.00  0.00    -0.343 N 
ATOM     16  C5  non d ame     -36.196  15.796  26.844  0.00  0.00     0.273 C 
ATOM     17  O2  non d ame     -37.267  15.955  27.317  0.00  0.00    -0.266 OA
ATOM     18  H5  non d ame     -35.070  14.598  25.440  0.00  0.00     0.163 HD
BRANCH  16  19
ATOM     19  C4  non d ame     -35.030  16.701  27.268  0.00  0.00     0.154 A 
ATOM     20  C1  non d ame     -34.341  17.659  26.459  0.00  0.00    -0.017 A 
ATOM     21  C2  non d ame     -33.363  18.220  27.312  0.00  0.00     0.077 A 
ATOM     22  H1  non d ame     -34.520  17.909  25.413  0.00  0.00     0.091 H 
ATOM     23  O1  non d ame     -33.488  17.646  28.473  0.00  0.00    -0.218 OA
ATOM     24  N1  non d ame     -34.454  16.756  28.471  0.00  0.00    -0.123 NA
BRANCH  21  25
ATOM     25  C3  non d ame     -32.354  19.297  26.940  0.00  0.00    -0.029 C 
ATOM     26  H2  non d ame     -31.355  18.862  26.903  0.00  0.00     0.036 H 
ATOM     27  H3  non d ame     -32.606  19.711  25.964  0.00  0.00     0.036 H 
ATOM     28  H4  non d ame     -32.376  20.090  27.687  0.00  0.00     0.036 H 
ENDBRANCH  21  25
ENDBRANCH  16  19
ENDBRANCH  13  15
BRANCH  13  29
ATOM     29  C8  non d ame     -37.072  13.664  23.970  0.00  0.00    -0.049 C 
ATOM     30  H7  non d ame     -36.321  12.913  23.725  0.00  0.00     0.030 H 
ATOM     31  H8  non d ame     -38.052  13.318  23.641  0.00  0.00     0.030 H 
ATOM     32  H9  non d ame     -36.829  14.600  23.466  0.00  0.00     0.030 H 
ENDBRANCH  13  29
ENDBRANCH  10  13
ENDBRANCH   7   9
BRANCH   7  33
ATOM     33  C11 non d ame     -37.443   9.057  25.548  0.00  0.00    -0.033 C 
ATOM     34  H12 non d ame     -36.885   8.192  25.190  0.00  0.00     0.042 H 
BRANCH  33  35
ATOM     35  C12 non d ame     -38.449   8.553  26.629  0.00  0.00    -0.071 C 
ATOM     36  H13 non d ame     -38.944   7.650  26.272  0.00  0.00     0.028 H 
ATOM     37  H14 non d ame     -37.910   8.331  27.550  0.00  0.00     0.028 H 
ATOM     38  H15 non d ame     -39.195   9.324  26.820  0.00  0.00     0.028 H 
ENDBRANCH  33  35
BRANCH  33  39
ATOM     39  C13 non d ame     -38.190   9.687  24.329  0.00  0.00    -0.071 C 
ATOM     40  H16 non d ame     -38.813   8.929  23.853  0.00  0.00     0.028 H 
ATOM     41  H17 non d ame     -38.818  10.510  24.673  0.00  0.00     0.028 H 
ATOM     42  H18 non d ame     -37.462  10.064  23.611  0.00  0.00     0.028 H 
ENDBRANCH  33  39
ENDBRANCH   7  33
ENDBRANCH   4   7
ENDBRANCH   1   3
BRANCH   1  43
ATOM     43  C15 non d ame     -31.650  11.044  25.141  0.00  0.00     0.240 C 
ATOM     44  O5  non d ame     -30.722  10.995  25.881  0.00  0.00    -0.271 OA
ATOM     45  N6  non d ame     -31.854  12.249  24.287  0.00  0.00    -0.355 N 
ATOM     46  H46 non d ame     -32.637  12.299  23.650  0.00  0.00     0.162 HD
BRANCH  45  47
ATOM     47  C20 non d ame     -30.904  13.380  24.374  0.00  0.00     0.013 C 
ATOM     48  H30 non d ame     -30.143  13.122  25.110  0.00  0.00     0.072 H 
BRANCH  47  49
ATOM     49  C21 non d ame     -31.646  14.623  24.810  0.00  0.00    -0.038 C 
ATOM     50  H31 non d ame     -31.189  15.447  24.260  0.00  0.00     0.036 H 
ATOM     51  H32 non d ame     -32.703  14.398  24.675  0.00  0.00     0.036 H 
BRANCH  49  52
ATOM     52  C22 non d ame     -31.454  14.940  26.309  0.00  0.00     0.018 C 
ATOM     53  H33 non d ame     -30.429  14.658  26.542  0.00  0.00     0.048 H 
ATOM     54  H34 non d ame     -31.776  15.975  26.434  0.00  0.00     0.048 H 
BRANCH  52  55
ATOM     55  C23 non d ame     -32.356  14.094  27.249  0.00  0.00     0.259 C 
ATOM     56  O7  non d ame     -33.346  13.581  26.836  0.00  0.00    -0.265 OA
BRANCH  55  57
ATOM     57  O8  non d ame     -31.995  13.950  28.618  0.00  0.00    -0.317 OA
BRANCH  57  58
ATOM     58  C29 non d ame     -31.288  12.741  28.908  0.00  0.00     0.052 C 
ATOM     59  H47 non d ame     -30.976  12.343  27.943  0.00  0.00     0.082 H 
ATOM     60  H48 non d ame     -30.541  13.008  29.655  0.00  0.00     0.082 H 
BRANCH  58  61
ATOM     61  C35 non d ame     -32.289  11.743  29.550  0.00  0.00    -0.034 A 
ATOM     62  C30 non d ame     -32.784  11.978  30.828  0.00  0.00    -0.075 A 
ATOM     63  C31 non d ame     -33.683  11.081  31.405  0.00  0.00    -0.082 A 
ATOM     64  H49 non d ame     -32.467  12.863  31.379  0.00  0.00     0.084 H 
ATOM     65  C32 non d ame     -34.084   9.944  30.698  0.00  0.00    -0.083 A 
ATOM     66  H50 non d ame     -34.070  11.269  32.407  0.00  0.00     0.083 H 
ATOM     67  C33 non d ame     -33.585   9.712  29.424  0.00  0.00    -0.082 A 
ATOM     68  H51 non d ame     -34.787   9.239  31.142  0.00  0.00     0.083 H 
ATOM     69  C34 non d ame     -32.688  10.607  28.843  0.00  0.00    -0.075 A 
ATOM     70  H52 non d ame     -33.899   8.823  28.876  0.00  0.00     0.083 H 
ATOM     71  H53 non d ame     -32.302  10.418  27.841  0.00  0.00     0.084 H 
ENDBRANCH  58  61
ENDBRANCH  57  58
ENDBRANCH  55  57
ENDBRANCH  52  55
ENDBRANCH  49  52
ENDBRANCH  47  49
BRANCH  47  72
ATOM     72  C24 non d ame     -30.262  13.621  23.010  0.00  0.00    -0.039 C 
ATOM     73  H35 non d ame     -29.233  13.273  23.109  0.00  0.00     0.036 H 
ATOM     74  H36 non d ame     -30.929  13.150  22.288  0.00  0.00     0.036 H 
BRANCH  72  75
ATOM     75  C25 non d ame     -30.202  15.181  22.650  0.00  0.00    -0.001 C 
ATOM     76  C26 non d ame     -31.202  15.502  21.386  0.00  0.00    -0.035 C 
ATOM     77  C27 non d ame     -30.509  16.185  20.443  0.00  0.00     0.085 C 
ATOM     78  H38 non d ame     -31.476  14.576  20.880  0.00  0.00     0.036 H 
ATOM     79  H39 non d ame     -31.977  16.205  21.691  0.00  0.00     0.036 H 
ATOM     80  N5  non d ame     -29.047  16.072  20.802  0.00  0.00    -0.049 N 
ATOM     81  H40 non d ame     -30.687  15.652  19.508  0.00  0.00     0.075 H 
ATOM     82  H41 non d ame     -30.821  17.223  20.547  0.00  0.00     0.075 H 
ATOM     83  C28 non d ame     -29.004  15.540  22.326  0.00  0.00     0.193 C 
ATOM     84  H42 non d ame     -28.658  15.360  20.201  0.00  0.00     0.280 HD
ATOM     85  H43 non d ame     -28.674  17.011  20.779  0.00  0.00     0.280 HD
ATOM     86  H44 non d ame     -28.773  16.221  23.144  0.00  0.00     0.129 H 
ATOM     87  H37 non d ame     -30.299  15.812  23.533  0.00  0.00     0.046 H 
BRANCH  83  88
ATOM     88  O6  non d ame     -28.068  14.467  22.447  0.00  0.00    -0.369 OA
ATOM     89  H45 non d ame     -27.613  14.532  23.289  0.00  0.00     0.212 HD
ENDBRANCH  83  88
ENDBRANCH  72  75
ENDBRANCH  47  72
ENDBRANCH  45  47
ENDBRANCH   1  43
BRANCH   1  90
ATOM     90  C16 non d ame     -32.533   9.188  23.694  0.00  0.00    -0.035 C 
ATOM     91  H21 non d ame     -33.259   8.376  23.708  0.00  0.00     0.037 H 
ATOM     92  H22 non d ame     -32.637   9.999  22.973  0.00  0.00     0.037 H 
BRANCH  90  93
ATOM     93  C17 non d ame     -31.143   8.530  23.420  0.00  0.00    -0.059 C 
ATOM     94  H23 non d ame     -30.528   8.675  24.308  0.00  0.00     0.038 H 
BRANCH  93  95
ATOM     95  C18 non d ame     -31.259   6.993  23.166  0.00  0.00    -0.073 C 
ATOM     96  H24 non d ame     -30.341   6.501  23.489  0.00  0.00     0.028 H 
ATOM     97  H25 non d ame     -32.102   6.593  23.730  0.00  0.00     0.028 H 
ATOM     98  H26 non d ame     -31.414   6.811  22.103  0.00  0.00     0.028 H 
ENDBRANCH  93  95
BRANCH  93  99
ATOM     99  C19 non d ame     -30.431   9.222  22.255  0.00  0.00    -0.073 C 
ATOM    100  H27 non d ame     -29.405   8.859  22.188  0.00  0.00     0.028 H 
ATOM    101  H28 non d ame     -30.954   9.001  21.325  0.00  0.00     0.028 H 
ATOM    102  H29 non d ame     -30.425  10.299  22.421  0.00  0.00     0.028 H 
ENDBRANCH  93  99
ENDBRANCH  90  93
ENDBRANCH   1  90
TORSDOF 26
ENDMDL
MODEL 14
REMARK VINA RESULT:      -7.0      2.715      7.774
REMARK  26 active torsions:
REMARK  status: ('A' for Active; 'I' for Inactive)
REMARK    1  A    between atoms: C2_2  and  C3_3 
REMARK    2  A    between atoms: C4_6  and  C5_7 
REMARK       I    between atoms: C5_7  and  N2_9 
REMARK    3  A    between atoms: N2_9  and  C6_10 
REMARK    4  A    between atoms: C6_10  and  C7_11 
REMARK    5  A    between atoms: C6_10  and  C8_13 
REMARK       I    between atoms: C7_11  and  N3_14 
REMARK    6  A    between atoms: N3_14  and  C9_15 
REMARK    7  A    between atoms: C9_15  and  C10_16 
REMARK    8  A    between atoms: C9_15  and  C11_18 
REMARK       I    between atoms: C10_16  and  N4_21 
REMARK    9  A    between atoms: C11_18  and  C12_19 
REMARK   10  A    between atoms: C11_18  and  C13_20 
REMARK   11  A    between atoms: N4_21  and  C14_22 
REMARK   12  A    between atoms: C14_22  and  C15_23 
REMARK   13  A    between atoms: C14_22  and  C16_25 
REMARK       I    between atoms: C15_23  and  N6_40 
REMARK   14  A    between atoms: C16_25  and  C17_26 
REMARK   15  A    between atoms: C17_26  and  C18_27 
REMARK   16  A    between atoms: C17_26  and  C19_28 
REMARK   17  A    between atoms: C20_29  and  C21_30 
REMARK   18  A    between atoms: C20_29  and  C24_33 
REMARK   19  A    between atoms: C20_29  and  N6_40 
REMARK   20  A    between atoms: C21_30  and  C22_31 
REMARK   21  A    between atoms: C22_31  and  C23_32 
REMARK   22  A    between atoms: C23_32  and  O8_43 
REMARK   23  A    between atoms: C24_33  and  C25_34 
REMARK   24  A    between atoms: C28_38  and  O6_39 
REMARK   25  A    between atoms: C29_42  and  O8_43 
REMARK   26  A    between atoms: C29_42  and  C35_49 
ROOT
ATOM      1  C14 non d ame     -37.198  16.094  27.009  0.00  0.00     0.089 C 
ATOM      2  H20 non d ame     -37.501  16.224  28.049  0.00  0.00     0.087 H 
ENDROOT
BRANCH   1   3
ATOM      3  N4  non d ame     -35.754  16.263  26.951  0.00  0.00    -0.346 N 
ATOM      4  C10 non d ame     -35.048  17.143  27.952  0.00  0.00     0.241 C 
ATOM      5  O4  non d ame     -35.664  17.708  28.794  0.00  0.00    -0.271 OA
ATOM      6  H19 non d ame     -35.248  15.775  26.226  0.00  0.00     0.163 HD
BRANCH   4   7
ATOM      7  C9  non d ame     -33.552  17.300  27.880  0.00  0.00     0.092 C 
ATOM      8  H11 non d ame     -33.227  18.000  28.651  0.00  0.00     0.088 H 
BRANCH   7   9
ATOM      9  N3  non d ame     -32.910  16.014  28.164  0.00  0.00    -0.346 N 
ATOM     10  C7  non d ame     -32.020  15.886  29.292  0.00  0.00     0.240 C 
ATOM     11  O3  non d ame     -31.808  16.809  29.980  0.00  0.00    -0.271 OA
ATOM     12  H10 non d ame     -33.081  15.210  27.579  0.00  0.00     0.163 HD
BRANCH  10  13
ATOM     13  C6  non d ame     -31.337  14.515  29.588  0.00  0.00     0.086 C 
ATOM     14  H6  non d ame     -30.700  14.543  30.472  0.00  0.00     0.086 H 
BRANCH  13  15
ATOM     15  N2  non d ame     -32.367  13.523  29.850  0.00  0.00    -0.343 N 
ATOM     16  C5  non d ame     -32.019  12.294  30.568  0.00  0.00     0.273 C 
ATOM     17  O2  non d ame     -30.908  12.113  30.929  0.00  0.00    -0.266 OA
ATOM     18  H5  non d ame     -33.312  13.684  29.534  0.00  0.00     0.163 HD
BRANCH  16  19
ATOM     19  C4  non d ame     -33.097  11.238  30.853  0.00  0.00     0.154 A 
ATOM     20  C1  non d ame     -33.517  10.176  29.990  0.00  0.00    -0.017 A 
ATOM     21  C2  non d ame     -34.523   9.497  30.713  0.00  0.00     0.077 A 
ATOM     22  H1  non d ame     -33.150   9.936  28.993  0.00  0.00     0.091 H 
ATOM     23  O1  non d ame     -34.656  10.104  31.856  0.00  0.00    -0.218 OA
ATOM     24  N1  non d ame     -33.835  11.123  31.960  0.00  0.00    -0.123 NA
BRANCH  21  25
ATOM     25  C3  non d ame     -35.305   8.278  30.241  0.00  0.00    -0.029 C 
ATOM     26  H2  non d ame     -35.415   7.574  31.066  0.00  0.00     0.036 H 
ATOM     27  H3  non d ame     -36.292   8.590  29.898  0.00  0.00     0.036 H 
ATOM     28  H4  non d ame     -34.771   7.798  29.422  0.00  0.00     0.036 H 
ENDBRANCH  21  25
ENDBRANCH  16  19
ENDBRANCH  13  15
BRANCH  13  29
ATOM     29  C8  non d ame     -30.507  14.097  28.400  0.00  0.00    -0.049 C 
ATOM     30  H7  non d ame     -31.151  13.641  27.649  0.00  0.00     0.030 H 
ATOM     31  H8  non d ame     -30.016  14.973  27.975  0.00  0.00     0.030 H 
ATOM     32  H9  non d ame     -29.753  13.377  28.719  0.00  0.00     0.030 H 
ENDBRANCH  13  29
ENDBRANCH  10  13
ENDBRANCH   7   9
BRANCH   7  33
ATOM     33  C11 non d ame     -33.149  17.775  26.453  0.00  0.00    -0.033 C 
ATOM     34  H12 non d ame     -34.056  17.804  25.849  0.00  0.00     0.042 H 
BRANCH  33  35
ATOM     35  C12 non d ame     -32.556  19.218  26.479  0.00  0.00    -0.071 C 
ATOM     36  H13 non d ame     -32.654  19.669  25.492  0.00  0.00     0.028 H 
ATOM     37  H14 non d ame     -33.097  19.819  27.209  0.00  0.00     0.028 H 
ATOM     38  H15 non d ame     -31.502  19.173  26.754  0.00  0.00     0.028 H 
ENDBRANCH  33  35
BRANCH  33  39
ATOM     39  C13 non d ame     -32.158  16.767  25.788  0.00  0.00    -0.071 C 
ATOM     40  H16 non d ame     -31.361  16.522  26.491  0.00  0.00     0.028 H 
ATOM     41  H17 non d ame     -32.693  15.857  25.514  0.00  0.00     0.028 H 
ATOM     42  H18 non d ame     -31.728  17.216  24.893  0.00  0.00     0.028 H 
ENDBRANCH  33  39
ENDBRANCH   7  33
ENDBRANCH   4   7
ENDBRANCH   1   3
BRANCH   1  43
ATOM     43  C15 non d ame     -37.555  14.682  26.465  0.00  0.00     0.240 C 
ATOM     44  O5  non d ame     -38.532  14.129  26.854  0.00  0.00    -0.271 OA
ATOM     45  N6  non d ame     -36.683  14.023  25.451  0.00  0.00    -0.355 N 
ATOM     46  H46 non d ame     -35.853  14.486  25.110  0.00  0.00     0.162 HD
BRANCH  45  47
ATOM     47  C20 non d ame     -37.037  12.680  24.941  0.00  0.00     0.013 C 
ATOM     48  H30 non d ame     -37.920  12.339  25.481  0.00  0.00     0.072 H 
BRANCH  47  49
ATOM     49  C21 non d ame     -35.883  11.733  25.186  0.00  0.00    -0.038 C 
ATOM     50  H31 non d ame     -36.267  10.737  24.957  0.00  0.00     0.036 H 
ATOM     51  H32 non d ame     -35.046  12.138  24.619  0.00  0.00     0.036 H 
BRANCH  49  52
ATOM     52  C22 non d ame     -35.437  11.701  26.663  0.00  0.00     0.018 C 
ATOM     53  H33 non d ame     -36.200  12.248  27.214  0.00  0.00     0.048 H 
ATOM     54  H34 non d ame     -35.248  10.650  26.890  0.00  0.00     0.048 H 
BRANCH  52  55
ATOM     55  C23 non d ame     -34.099  12.444  26.930  0.00  0.00     0.259 C 
ATOM     56  O7  non d ame     -34.099  13.567  27.319  0.00  0.00    -0.265 OA
BRANCH  55  57
ATOM     57  O8  non d ame     -32.868  11.772  26.689  0.00  0.00    -0.317 OA
BRANCH  57  58
ATOM     58  C29 non d ame     -32.077  12.360  25.652  0.00  0.00     0.052 C 
ATOM     59  H47 non d ame     -32.713  13.114  25.189  0.00  0.00     0.082 H 
ATOM     60  H48 non d ame     -31.140  12.653  26.126  0.00  0.00     0.082 H 
BRANCH  58  61
ATOM     61  C35 non d ame     -31.772  11.261  24.599  0.00  0.00    -0.034 A 
ATOM     62  C30 non d ame     -30.699  11.411  23.727  0.00  0.00    -0.075 A 
ATOM     63  C31 non d ame     -30.425  10.423  22.781  0.00  0.00    -0.082 A 
ATOM     64  H49 non d ame     -30.073  12.301  23.783  0.00  0.00     0.084 H 
ATOM     65  C32 non d ame     -31.231   9.284  22.708  0.00  0.00    -0.083 A 
ATOM     66  H50 non d ame     -29.583  10.543  22.099  0.00  0.00     0.083 H 
ATOM     67  C33 non d ame     -32.303   9.140  23.579  0.00  0.00    -0.082 A 
ATOM     68  H51 non d ame     -31.023   8.507  21.972  0.00  0.00     0.083 H 
ATOM     69  C34 non d ame     -32.579  10.124  24.527  0.00  0.00    -0.075 A 
ATOM     70  H52 non d ame     -32.931   8.251  23.519  0.00  0.00     0.083 H 
ATOM     71  H53 non d ame     -33.421  10.003  25.208  0.00  0.00     0.084 H 
ENDBRANCH  58  61
ENDBRANCH  57  58
ENDBRANCH  55  57
ENDBRANCH  52  55
ENDBRANCH  49  52
ENDBRANCH  47  49
BRANCH  47  72
ATOM     72  C24 non d ame     -37.327  12.756  23.444  0.00  0.00    -0.039 C 
ATOM     73  H35 non d ame     -36.410  13.135  22.990  0.00  0.00     0.036 H 
ATOM     74  H36 non d ame     -37.702  11.769  23.172  0.00  0.00     0.036 H 
BRANCH  72  75
ATOM     75  C25 non d ame     -38.488  13.810  23.118  0.00  0.00    -0.001 C 
ATOM     76  C26 non d ame     -39.957  13.126  23.394  0.00  0.00    -0.035 C 
ATOM     77  C27 non d ame     -40.734  13.303  22.299  0.00  0.00     0.085 C 
ATOM     78  H38 non d ame     -39.859  12.043  23.466  0.00  0.00     0.036 H 
ATOM     79  H39 non d ame     -40.486  13.678  24.172  0.00  0.00     0.036 H 
ATOM     80  N5  non d ame     -39.825  13.753  21.181  0.00  0.00    -0.049 N 
ATOM     81  H40 non d ame     -41.130  12.315  22.059  0.00  0.00     0.075 H 
ATOM     82  H41 non d ame     -41.415  14.116  22.552  0.00  0.00     0.075 H 
ATOM     83  C28 non d ame     -38.440  14.192  21.884  0.00  0.00     0.193 C 
ATOM     84  H42 non d ame     -39.651  12.940  20.608  0.00  0.00     0.280 HD
ATOM     85  H43 non d ame     -40.254  14.573  20.776  0.00  0.00     0.280 HD
ATOM     86  H44 non d ame     -38.193  15.245  22.013  0.00  0.00     0.129 H 
ATOM     87  H37 non d ame     -38.301  14.784  23.569  0.00  0.00     0.046 H 
BRANCH  83  88
ATOM     88  O6  non d ame     -37.331  13.622  21.187  0.00  0.00    -0.369 OA
ATOM     89  H45 non d ame     -36.809  13.091  21.793  0.00  0.00     0.212 HD
ENDBRANCH  83  88
ENDBRANCH  72  75
ENDBRANCH  47  72
ENDBRANCH  45  47
ENDBRANCH   1  43
BRANCH   1  90
ATOM     90  C16 non d ame     -37.856  17.157  26.144  0.00  0.00    -0.035 C 
ATOM     91  H21 non d ame     -38.750  16.685  25.737  0.00  0.00     0.037 H 
ATOM     92  H22 non d ame     -37.948  18.034  26.785  0.00  0.00     0.037 H 
BRANCH  90  93
ATOM     93  C17 non d ame     -36.991  17.594  24.920  0.00  0.00    -0.059 C 
ATOM     94  H23 non d ame     -36.111  16.952  24.890  0.00  0.00     0.038 H 
BRANCH  93  95
ATOM     95  C18 non d ame     -37.754  17.420  23.568  0.00  0.00    -0.073 C 
ATOM     96  H24 non d ame     -37.945  16.361  23.391  0.00  0.00     0.028 H 
ATOM     97  H25 non d ame     -38.702  17.955  23.614  0.00  0.00     0.028 H 
ATOM     98  H26 non d ame     -37.150  17.821  22.755  0.00  0.00     0.028 H 
ENDBRANCH  93  95
BRANCH  93  99
ATOM     99  C19 non d ame     -36.498  19.034  25.084  0.00  0.00    -0.073 C 
ATOM    100  H27 non d ame     -35.420  19.032  25.254  0.00  0.00     0.028 H 
ATOM    101  H28 non d ame     -36.720  19.600  24.180  0.00  0.00     0.028 H 
ATOM    102  H29 non d ame     -37.000  19.495  25.934  0.00  0.00     0.028 H 
ENDBRANCH  93  99
ENDBRANCH  90  93
ENDBRANCH   1  90
TORSDOF 26
ENDMDL
MODEL 15
REMARK VINA RESULT:      -7.0      2.505      8.821
REMARK  26 active torsions:
REMARK  status: ('A' for Active; 'I' for Inactive)
REMARK    1  A    between atoms: C2_2  and  C3_3 
REMARK    2  A    between atoms: C4_6  and  C5_7 
REMARK       I    between atoms: C5_7  and  N2_9 
REMARK    3  A    between atoms: N2_9  and  C6_10 
REMARK    4  A    between atoms: C6_10  and  C7_11 
REMARK    5  A    between atoms: C6_10  and  C8_13 
REMARK       I    between atoms: C7_11  and  N3_14 
REMARK    6  A    between atoms: N3_14  and  C9_15 
REMARK    7  A    between atoms: C9_15  and  C10_16 
REMARK    8  A    between atoms: C9_15  and  C11_18 
REMARK       I    between atoms: C10_16  and  N4_21 
REMARK    9  A    between atoms: C11_18  and  C12_19 
REMARK   10  A    between atoms: C11_18  and  C13_20 
REMARK   11  A    between atoms: N4_21  and  C14_22 
REMARK   12  A    between atoms: C14_22  and  C15_23 
REMARK   13  A    between atoms: C14_22  and  C16_25 
REMARK       I    between atoms: C15_23  and  N6_40 
REMARK   14  A    between atoms: C16_25  and  C17_26 
REMARK   15  A    between atoms: C17_26  and  C18_27 
REMARK   16  A    between atoms: C17_26  and  C19_28 
REMARK   17  A    between atoms: C20_29  and  C21_30 
REMARK   18  A    between atoms: C20_29  and  C24_33 
REMARK   19  A    between atoms: C20_29  and  N6_40 
REMARK   20  A    between atoms: C21_30  and  C22_31 
REMARK   21  A    between atoms: C22_31  and  C23_32 
REMARK   22  A    between atoms: C23_32  and  O8_43 
REMARK   23  A    between atoms: C24_33  and  C25_34 
REMARK   24  A    between atoms: C28_38  and  O6_39 
REMARK   25  A    between atoms: C29_42  and  O8_43 
REMARK   26  A    between atoms: C29_42  and  C35_49 
ROOT
ATOM      1  C14 non d ame     -37.440  13.866  25.122  0.00  0.00     0.089 C 
ATOM      2  H20 non d ame     -38.458  13.926  25.507  0.00  0.00     0.087 H 
ENDROOT
BRANCH   1   3
ATOM      3  N4  non d ame     -36.876  15.207  25.165  0.00  0.00    -0.346 N 
ATOM      4  C10 non d ame     -37.326  16.189  26.218  0.00  0.00     0.241 C 
ATOM      5  O4  non d ame     -38.146  15.878  27.017  0.00  0.00    -0.271 OA
ATOM      6  H19 non d ame     -36.181  15.452  24.475  0.00  0.00     0.163 HD
BRANCH   4   7
ATOM      7  C9  non d ame     -36.727  17.570  26.251  0.00  0.00     0.092 C 
ATOM      8  H11 non d ame     -37.186  18.141  27.059  0.00  0.00     0.088 H 
BRANCH   7   9
ATOM      9  N3  non d ame     -35.295  17.475  26.545  0.00  0.00    -0.346 N 
ATOM     10  C7  non d ame     -34.756  18.116  27.720  0.00  0.00     0.240 C 
ATOM     11  O3  non d ame     -35.462  18.713  28.439  0.00  0.00    -0.271 OA
ATOM     12  H10 non d ame     -34.674  16.965  25.934  0.00  0.00     0.163 HD
BRANCH  10  13
ATOM     13  C6  non d ame     -33.230  18.014  28.027  0.00  0.00     0.086 C 
ATOM     14  H6  non d ame     -32.962  18.455  28.987  0.00  0.00     0.086 H 
BRANCH  13  15
ATOM     15  N2  non d ame     -32.856  16.611  28.096  0.00  0.00    -0.343 N 
ATOM     16  C5  non d ame     -32.061  16.131  29.229  0.00  0.00     0.273 C 
ATOM     17  O2  non d ame     -31.726  16.881  30.078  0.00  0.00    -0.266 OA
ATOM     18  H5  non d ame     -33.143  15.977  27.364  0.00  0.00     0.163 HD
BRANCH  16  19
ATOM     19  C4  non d ame     -31.660  14.650  29.315  0.00  0.00     0.154 A 
ATOM     20  C1  non d ame     -32.427  13.577  29.870  0.00  0.00    -0.017 A 
ATOM     21  C2  non d ame     -31.620  12.429  29.706  0.00  0.00     0.077 A 
ATOM     22  H1  non d ame     -33.417  13.624  30.325  0.00  0.00     0.091 H 
ATOM     23  O1  non d ame     -30.522  12.810  29.120  0.00  0.00    -0.218 OA
ATOM     24  N1  non d ame     -30.522  14.101  28.883  0.00  0.00    -0.123 NA
BRANCH  21  25
ATOM     25  C3  non d ame     -31.972  11.011  30.132  0.00  0.00    -0.029 C 
ATOM     26  H2  non d ame     -31.838  10.911  31.210  0.00  0.00     0.036 H 
ATOM     27  H3  non d ame     -33.010  10.801  29.875  0.00  0.00     0.036 H 
ATOM     28  H4  non d ame     -31.320  10.305  29.620  0.00  0.00     0.036 H 
ENDBRANCH  21  25
ENDBRANCH  16  19
ENDBRANCH  13  15
BRANCH  13  29
ATOM     29  C8  non d ame     -32.448  18.704  26.937  0.00  0.00    -0.049 C 
ATOM     30  H7  non d ame     -32.565  19.783  27.034  0.00  0.00     0.030 H 
ATOM     31  H8  non d ame     -31.393  18.443  27.027  0.00  0.00     0.030 H 
ATOM     32  H9  non d ame     -32.820  18.383  25.964  0.00  0.00     0.030 H 
ENDBRANCH  13  29
ENDBRANCH  10  13
ENDBRANCH   7   9
BRANCH   7  33
ATOM     33  C11 non d ame     -36.926  18.255  24.868  0.00  0.00    -0.033 C 
ATOM     34  H12 non d ame     -36.394  17.657  24.126  0.00  0.00     0.042 H 
BRANCH  33  35
ATOM     35  C12 non d ame     -38.431  18.282  24.457  0.00  0.00    -0.071 C 
ATOM     36  H13 non d ame     -39.052  18.135  25.340  0.00  0.00     0.028 H 
ATOM     37  H14 non d ame     -38.666  19.245  24.004  0.00  0.00     0.028 H 
ATOM     38  H15 non d ame     -38.627  17.485  23.739  0.00  0.00     0.028 H 
ENDBRANCH  33  35
BRANCH  33  39
ATOM     39  C13 non d ame     -36.311  19.691  24.860  0.00  0.00    -0.071 C 
ATOM     40  H16 non d ame     -36.803  20.294  24.097  0.00  0.00     0.028 H 
ATOM     41  H17 non d ame     -36.454  20.153  25.838  0.00  0.00     0.028 H 
ATOM     42  H18 non d ame     -35.245  19.629  24.643  0.00  0.00     0.028 H 
ENDBRANCH  33  39
ENDBRANCH   7  33
ENDBRANCH   4   7
ENDBRANCH   1   3
BRANCH   1  43
ATOM     43  C15 non d ame     -36.544  12.923  25.973  0.00  0.00     0.240 C 
ATOM     44  O5  non d ame     -36.781  12.764  27.127  0.00  0.00    -0.271 OA
ATOM     45  N6  non d ame     -35.394  12.209  25.349  0.00  0.00    -0.355 N 
ATOM     46  H46 non d ame     -35.185  12.332  24.368  0.00  0.00     0.162 HD
BRANCH  45  47
ATOM     47  C20 non d ame     -34.551  11.314  26.172  0.00  0.00     0.013 C 
ATOM     48  H30 non d ame     -35.177  10.896  26.960  0.00  0.00     0.072 H 
BRANCH  47  49
ATOM     49  C21 non d ame     -33.419  12.112  26.779  0.00  0.00    -0.038 C 
ATOM     50  H31 non d ame     -33.894  12.863  27.412  0.00  0.00     0.036 H 
ATOM     51  H32 non d ame     -32.743  11.378  27.216  0.00  0.00     0.036 H 
BRANCH  49  52
ATOM     52  C22 non d ame     -32.599  12.887  25.725  0.00  0.00     0.018 C 
ATOM     53  H33 non d ame     -31.555  12.736  25.994  0.00  0.00     0.048 H 
ATOM     54  H34 non d ame     -32.967  12.545  24.756  0.00  0.00     0.048 H 
BRANCH  52  55
ATOM     55  C23 non d ame     -32.833  14.422  25.754  0.00  0.00     0.259 C 
ATOM     56  O7  non d ame     -33.921  14.864  25.937  0.00  0.00    -0.265 OA
BRANCH  55  57
ATOM     57  O8  non d ame     -31.732  15.299  25.545  0.00  0.00    -0.317 OA
BRANCH  57  58
ATOM     58  C29 non d ame     -31.926  16.232  24.478  0.00  0.00     0.052 C 
ATOM     59  H47 non d ame     -32.950  16.081  24.138  0.00  0.00     0.082 H 
ATOM     60  H48 non d ame     -31.620  17.201  24.873  0.00  0.00     0.082 H 
BRANCH  58  61
ATOM     61  C35 non d ame     -30.963  15.847  23.323  0.00  0.00    -0.034 A 
ATOM     62  C30 non d ame     -31.228  16.271  22.025  0.00  0.00    -0.075 A 
ATOM     63  C31 non d ame     -30.363  15.924  20.987  0.00  0.00    -0.082 A 
ATOM     64  H49 non d ame     -32.113  16.873  21.820  0.00  0.00     0.084 H 
ATOM     65  C32 non d ame     -29.231  15.149  21.252  0.00  0.00    -0.083 A 
ATOM     66  H50 non d ame     -30.573  16.259  19.971  0.00  0.00     0.083 H 
ATOM     67  C33 non d ame     -28.972  14.726  22.549  0.00  0.00    -0.082 A 
ATOM     68  H51 non d ame     -28.549  14.874  20.447  0.00  0.00     0.083 H 
ATOM     69  C34 non d ame     -29.833  15.071  23.589  0.00  0.00    -0.075 A 
ATOM     70  H52 non d ame     -28.089  14.119  22.752  0.00  0.00     0.083 H 
ATOM     71  H53 non d ame     -29.622  14.736  24.605  0.00  0.00     0.084 H 
ENDBRANCH  58  61
ENDBRANCH  57  58
ENDBRANCH  55  57
ENDBRANCH  52  55
ENDBRANCH  49  52
ENDBRANCH  47  49
BRANCH  47  72
ATOM     72  C24 non d ame     -33.979  10.198  25.301  0.00  0.00    -0.039 C 
ATOM     73  H35 non d ame     -34.631  10.150  24.427  0.00  0.00     0.036 H 
ATOM     74  H36 non d ame     -32.923  10.437  25.180  0.00  0.00     0.036 H 
BRANCH  72  75
ATOM     75  C25 non d ame     -34.061   8.775  26.031  0.00  0.00    -0.001 C 
ATOM     76  C26 non d ame     -34.871   8.923  27.454  0.00  0.00    -0.035 C 
ATOM     77  C27 non d ame     -34.125   8.370  28.441  0.00  0.00     0.085 C 
ATOM     78  H38 non d ame     -34.936   9.972  27.741  0.00  0.00     0.036 H 
ATOM     79  H39 non d ame     -35.770   8.306  27.439  0.00  0.00     0.036 H 
ATOM     80  N5  non d ame     -32.741   8.154  27.879  0.00  0.00    -0.049 N 
ATOM     81  H40 non d ame     -34.075   9.125  29.226  0.00  0.00     0.075 H 
ATOM     82  H41 non d ame     -34.581   7.402  28.644  0.00  0.00     0.075 H 
ATOM     83  C28 non d ame     -32.883   8.307  26.278  0.00  0.00     0.193 C 
ATOM     84  H42 non d ame     -32.169   8.911  28.225  0.00  0.00     0.280 HD
ATOM     85  H43 non d ame     -32.493   7.197  28.090  0.00  0.00     0.280 HD
ATOM     86  H44 non d ame     -32.881   7.428  25.635  0.00  0.00     0.129 H 
ATOM     87  H37 non d ame     -34.384   7.982  25.357  0.00  0.00     0.046 H 
BRANCH  83  88
ATOM     88  O6  non d ame     -31.850   9.153  25.770  0.00  0.00    -0.369 OA
ATOM     89  H45 non d ame     -31.009   8.899  26.157  0.00  0.00     0.212 HD
ENDBRANCH  83  88
ENDBRANCH  72  75
ENDBRANCH  47  72
ENDBRANCH  45  47
ENDBRANCH   1  43
BRANCH   1  90
ATOM     90  C16 non d ame     -37.464  13.384  23.680  0.00  0.00    -0.035 C 
ATOM     91  H21 non d ame     -36.978  14.172  23.104  0.00  0.00     0.037 H 
ATOM     92  H22 non d ame     -37.034  12.383  23.703  0.00  0.00     0.037 H 
BRANCH  90  93
ATOM     93  C17 non d ame     -38.903  13.235  23.092  0.00  0.00    -0.059 C 
ATOM     94  H23 non d ame     -39.461  12.569  23.749  0.00  0.00     0.038 H 
BRANCH  93  95
ATOM     95  C18 non d ame     -39.662  14.599  23.038  0.00  0.00    -0.073 C 
ATOM     96  H24 non d ame     -39.751  15.006  24.045  0.00  0.00     0.028 H 
ATOM     97  H25 non d ame     -39.107  15.299  22.412  0.00  0.00     0.028 H 
ATOM     98  H26 non d ame     -40.656  14.446  22.618  0.00  0.00     0.028 H 
ENDBRANCH  93  95
BRANCH  93  99
ATOM     99  C19 non d ame     -38.863  12.579  21.709  0.00  0.00    -0.073 C 
ATOM    100  H27 non d ame     -38.091  13.056  21.102  0.00  0.00     0.028 H 
ATOM    101  H28 non d ame     -38.635  11.519  21.815  0.00  0.00     0.028 H 
ATOM    102  H29 non d ame     -39.831  12.695  21.223  0.00  0.00     0.028 H 
ENDBRANCH  93  99
ENDBRANCH  90  93
ENDBRANCH   1  90
TORSDOF 26
ENDMDL
MODEL 16
REMARK VINA RESULT:      -6.9      2.125      5.214
REMARK  26 active torsions:
REMARK  status: ('A' for Active; 'I' for Inactive)
REMARK    1  A    between atoms: C2_2  and  C3_3 
REMARK    2  A    between atoms: C4_6  and  C5_7 
REMARK       I    between atoms: C5_7  and  N2_9 
REMARK    3  A    between atoms: N2_9  and  C6_10 
REMARK    4  A    between atoms: C6_10  and  C7_11 
REMARK    5  A    between atoms: C6_10  and  C8_13 
REMARK       I    between atoms: C7_11  and  N3_14 
REMARK    6  A    between atoms: N3_14  and  C9_15 
REMARK    7  A    between atoms: C9_15  and  C10_16 
REMARK    8  A    between atoms: C9_15  and  C11_18 
REMARK       I    between atoms: C10_16  and  N4_21 
REMARK    9  A    between atoms: C11_18  and  C12_19 
REMARK   10  A    between atoms: C11_18  and  C13_20 
REMARK   11  A    between atoms: N4_21  and  C14_22 
REMARK   12  A    between atoms: C14_22  and  C15_23 
REMARK   13  A    between atoms: C14_22  and  C16_25 
REMARK       I    between atoms: C15_23  and  N6_40 
REMARK   14  A    between atoms: C16_25  and  C17_26 
REMARK   15  A    between atoms: C17_26  and  C18_27 
REMARK   16  A    between atoms: C17_26  and  C19_28 
REMARK   17  A    between atoms: C20_29  and  C21_30 
REMARK   18  A    between atoms: C20_29  and  C24_33 
REMARK   19  A    between atoms: C20_29  and  N6_40 
REMARK   20  A    between atoms: C21_30  and  C22_31 
REMARK   21  A    between atoms: C22_31  and  C23_32 
REMARK   22  A    between atoms: C23_32  and  O8_43 
REMARK   23  A    between atoms: C24_33  and  C25_34 
REMARK   24  A    between atoms: C28_38  and  O6_39 
REMARK   25  A    between atoms: C29_42  and  O8_43 
REMARK   26  A    between atoms: C29_42  and  C35_49 
ROOT
ATOM      1  C14 non d ame     -33.441  10.486  26.496  0.00  0.00     0.089 C 
ATOM      2  H20 non d ame     -34.201  10.932  25.854  0.00  0.00     0.087 H 
ENDROOT
BRANCH   1   3
ATOM      3  N4  non d ame     -32.824   9.398  25.754  0.00  0.00    -0.346 N 
ATOM      4  C10 non d ame     -33.642   8.567  24.797  0.00  0.00     0.241 C 
ATOM      5  O4  non d ame     -34.797   8.792  24.644  0.00  0.00    -0.271 OA
ATOM      6  H19 non d ame     -31.840   9.222  25.900  0.00  0.00     0.163 HD
BRANCH   4   7
ATOM      7  C9  non d ame     -32.984   7.449  24.033  0.00  0.00     0.092 C 
ATOM      8  H11 non d ame     -33.515   7.295  23.093  0.00  0.00     0.088 H 
BRANCH   7   9
ATOM      9  N3  non d ame     -31.609   7.828  23.697  0.00  0.00    -0.346 N 
ATOM     10  C7  non d ame     -31.282   8.237  22.354  0.00  0.00     0.240 C 
ATOM     11  O3  non d ame     -32.113   8.266  21.530  0.00  0.00    -0.271 OA
ATOM     12  H10 non d ame     -30.881   7.806  24.396  0.00  0.00     0.163 HD
BRANCH  10  13
ATOM     13  C6  non d ame     -29.815   8.637  22.001  0.00  0.00     0.086 C 
ATOM     14  H6  non d ame     -29.484   8.226  21.047  0.00  0.00     0.086 H 
BRANCH  13  15
ATOM     15  N2  non d ame     -29.737  10.083  21.881  0.00  0.00    -0.343 N 
ATOM     16  C5  non d ame     -30.189  10.925  22.992  0.00  0.00     0.273 C 
ATOM     17  O2  non d ame     -30.615  10.428  23.976  0.00  0.00    -0.266 OA
ATOM     18  H5  non d ame     -29.375  10.499  21.035  0.00  0.00     0.163 HD
BRANCH  16  19
ATOM     19  C4  non d ame     -30.110  12.455  22.879  0.00  0.00     0.154 A 
ATOM     20  C1  non d ame     -29.434  13.214  21.872  0.00  0.00    -0.017 A 
ATOM     21  C2  non d ame     -29.664  14.565  22.219  0.00  0.00     0.077 A 
ATOM     22  H1  non d ame     -28.863  12.843  21.021  0.00  0.00     0.091 H 
ATOM     23  O1  non d ame     -30.391  14.569  23.298  0.00  0.00    -0.218 OA
ATOM     24  N1  non d ame     -30.663  13.349  23.702  0.00  0.00    -0.123 NA
BRANCH  21  25
ATOM     25  C3  non d ame     -29.157  15.788  21.467  0.00  0.00    -0.029 C 
ATOM     26  H2  non d ame     -28.547  15.468  20.622  0.00  0.00     0.036 H 
ATOM     27  H3  non d ame     -30.005  16.368  21.103  0.00  0.00     0.036 H 
ATOM     28  H4  non d ame     -28.556  16.402  22.136  0.00  0.00     0.036 H 
ENDBRANCH  21  25
ENDBRANCH  16  19
ENDBRANCH  13  15
BRANCH  13  29
ATOM     29  C8  non d ame     -28.886   8.158  23.088  0.00  0.00    -0.049 C 
ATOM     30  H7  non d ame     -28.932   7.071  23.154  0.00  0.00     0.030 H 
ATOM     31  H8  non d ame     -27.866   8.464  22.854  0.00  0.00     0.030 H 
ATOM     32  H9  non d ame     -29.186   8.593  24.041  0.00  0.00     0.030 H 
ENDBRANCH  13  29
ENDBRANCH  10  13
ENDBRANCH   7   9
BRANCH   7  33
ATOM     33  C11 non d ame     -32.966   6.163  24.910  0.00  0.00    -0.033 C 
ATOM     34  H12 non d ame     -33.935   6.089  25.404  0.00  0.00     0.042 H 
BRANCH  33  35
ATOM     35  C12 non d ame     -32.786   4.881  24.038  0.00  0.00    -0.071 C 
ATOM     36  H13 non d ame     -31.923   4.318  24.394  0.00  0.00     0.028 H 
ATOM     37  H14 non d ame     -33.680   4.263  24.112  0.00  0.00     0.028 H 
ATOM     38  H15 non d ame     -32.627   5.168  22.998  0.00  0.00     0.028 H 
ENDBRANCH  33  35
BRANCH  33  39
ATOM     39  C13 non d ame     -31.866   6.255  26.015  0.00  0.00    -0.071 C 
ATOM     40  H16 non d ame     -31.024   6.839  25.643  0.00  0.00     0.028 H 
ATOM     41  H17 non d ame     -32.280   6.737  26.901  0.00  0.00     0.028 H 
ATOM     42  H18 non d ame     -31.527   5.253  26.275  0.00  0.00     0.028 H 
ENDBRANCH  33  39
ENDBRANCH   7  33
ENDBRANCH   4   7
ENDBRANCH   1   3
BRANCH   1  43
ATOM     43  C15 non d ame     -32.336  11.506  26.893  0.00  0.00     0.240 C 
ATOM     44  O5  non d ame     -31.191  11.205  26.792  0.00  0.00    -0.271 OA
ATOM     45  N6  non d ame     -32.704  12.862  27.390  0.00  0.00    -0.355 N 
ATOM     46  H46 non d ame     -33.675  13.131  27.475  0.00  0.00     0.162 HD
BRANCH  45  47
ATOM     47  C20 non d ame     -31.642  13.821  27.761  0.00  0.00     0.013 C 
ATOM     48  H30 non d ame     -30.724  13.515  27.260  0.00  0.00     0.072 H 
BRANCH  47  49
ATOM     49  C21 non d ame     -31.445  13.794  29.260  0.00  0.00    -0.038 C 
ATOM     50  H31 non d ame     -30.486  13.300  29.423  0.00  0.00     0.036 H 
ATOM     51  H32 non d ame     -31.593  14.820  29.595  0.00  0.00     0.036 H 
BRANCH  49  52
ATOM     52  C22 non d ame     -32.505  12.939  29.988  0.00  0.00     0.018 C 
ATOM     53  H33 non d ame     -32.940  13.590  30.745  0.00  0.00     0.048 H 
ATOM     54  H34 non d ame     -33.135  12.519  29.203  0.00  0.00     0.048 H 
BRANCH  52  55
ATOM     55  C23 non d ame     -31.911  11.726  30.756  0.00  0.00     0.259 C 
ATOM     56  O7  non d ame     -30.741  11.647  30.948  0.00  0.00    -0.265 OA
BRANCH  55  57
ATOM     57  O8  non d ame     -32.782  10.699  31.216  0.00  0.00    -0.317 OA
BRANCH  57  58
ATOM     58  C29 non d ame     -34.094  11.158  31.554  0.00  0.00     0.052 C 
ATOM     59  H47 non d ame     -34.040  11.460  32.600  0.00  0.00     0.082 H 
ATOM     60  H48 non d ame     -34.359  11.886  30.788  0.00  0.00     0.082 H 
BRANCH  58  61
ATOM     61  C35 non d ame     -35.067   9.952  31.442  0.00  0.00    -0.034 A 
ATOM     62  C30 non d ame     -36.438  10.150  31.570  0.00  0.00    -0.075 A 
ATOM     63  C31 non d ame     -37.311   9.067  31.470  0.00  0.00    -0.082 A 
ATOM     64  H49 non d ame     -36.828  11.151  31.750  0.00  0.00     0.084 H 
ATOM     65  C32 non d ame     -36.808   7.784  31.243  0.00  0.00    -0.083 A 
ATOM     66  H50 non d ame     -38.386   9.226  31.570  0.00  0.00     0.083 H 
ATOM     67  C33 non d ame     -35.439   7.591  31.119  0.00  0.00    -0.082 A 
ATOM     68  H51 non d ame     -37.484   6.933  31.162  0.00  0.00     0.083 H 
ATOM     69  C34 non d ame     -34.563   8.670  31.217  0.00  0.00    -0.075 A 
ATOM     70  H52 non d ame     -35.049   6.588  30.944  0.00  0.00     0.083 H 
ATOM     71  H53 non d ame     -33.489   8.511  31.117  0.00  0.00     0.084 H 
ENDBRANCH  58  61
ENDBRANCH  57  58
ENDBRANCH  55  57
ENDBRANCH  52  55
ENDBRANCH  49  52
ENDBRANCH  47  49
BRANCH  47  72
ATOM     72  C24 non d ame     -32.040  15.229  27.324  0.00  0.00    -0.039 C 
ATOM     73  H35 non d ame     -31.691  15.889  28.120  0.00  0.00     0.036 H 
ATOM     74  H36 non d ame     -31.649  15.340  26.313  0.00  0.00     0.036 H 
BRANCH  72  75
ATOM     75  C25 non d ame     -33.631  15.395  27.236  0.00  0.00    -0.001 C 
ATOM     76  C26 non d ame     -34.068  15.791  25.701  0.00  0.00    -0.035 C 
ATOM     77  C27 non d ame     -34.865  16.885  25.743  0.00  0.00     0.085 C 
ATOM     78  H38 non d ame     -33.197  16.131  25.141  0.00  0.00     0.036 H 
ATOM     79  H39 non d ame     -34.716  15.019  25.286  0.00  0.00     0.036 H 
ATOM     80  N5  non d ame     -34.745  17.465  27.131  0.00  0.00    -0.049 N 
ATOM     81  H40 non d ame     -34.435  17.586  25.027  0.00  0.00     0.075 H 
ATOM     82  H41 non d ame     -35.879  16.513  25.600  0.00  0.00     0.075 H 
ATOM     83  C28 non d ame     -34.050  16.321  28.033  0.00  0.00     0.193 C 
ATOM     84  H42 non d ame     -34.112  18.249  27.061  0.00  0.00     0.280 HD
ATOM     85  H43 non d ame     -35.689  17.607  27.464  0.00  0.00     0.280 HD
ATOM     86  H44 non d ame     -34.641  15.729  28.730  0.00  0.00     0.129 H 
ATOM     87  H37 non d ame     -34.159  14.564  27.703  0.00  0.00     0.046 H 
BRANCH  83  88
ATOM     88  O6  non d ame     -32.990  16.882  28.811  0.00  0.00    -0.369 OA
ATOM     89  H45 non d ame     -32.149  16.685  28.395  0.00  0.00     0.212 HD
ENDBRANCH  83  88
ENDBRANCH  72  75
ENDBRANCH  47  72
ENDBRANCH  45  47
ENDBRANCH   1  43
BRANCH   1  90
ATOM     90  C16 non d ame     -34.093   9.925  27.750  0.00  0.00    -0.035 C 
ATOM     91  H21 non d ame     -34.060   8.842  27.633  0.00  0.00     0.037 H 
ATOM     92  H22 non d ame     -33.572  10.398  28.582  0.00  0.00     0.037 H 
BRANCH  90  93
ATOM     93  C17 non d ame     -35.600  10.305  27.898  0.00  0.00    -0.059 C 
ATOM     94  H23 non d ame     -35.745  10.700  28.903  0.00  0.00     0.038 H 
BRANCH  93  95
ATOM     95  C18 non d ame     -36.031  11.413  26.884  0.00  0.00    -0.073 C 
ATOM     96  H24 non d ame     -36.212  12.345  27.418  0.00  0.00     0.028 H 
ATOM     97  H25 non d ame     -35.236  11.564  26.152  0.00  0.00     0.028 H 
ATOM     98  H26 non d ame     -36.941  11.103  26.372  0.00  0.00     0.028 H 
ENDBRANCH  93  95
BRANCH  93  99
ATOM     99  C19 non d ame     -36.492   9.068  27.763  0.00  0.00    -0.073 C 
ATOM    100  H27 non d ame     -35.871   8.189  27.582  0.00  0.00     0.028 H 
ATOM    101  H28 non d ame     -37.060   8.926  28.682  0.00  0.00     0.028 H 
ATOM    102  H29 non d ame     -37.180   9.204  26.929  0.00  0.00     0.028 H 
ENDBRANCH  93  99
ENDBRANCH  90  93
ENDBRANCH   1  90
TORSDOF 26
ENDMDL
MODEL 17
REMARK VINA RESULT:      -6.9      3.334      7.170
REMARK  26 active torsions:
REMARK  status: ('A' for Active; 'I' for Inactive)
REMARK    1  A    between atoms: C2_2  and  C3_3 
REMARK    2  A    between atoms: C4_6  and  C5_7 
REMARK       I    between atoms: C5_7  and  N2_9 
REMARK    3  A    between atoms: N2_9  and  C6_10 
REMARK    4  A    between atoms: C6_10  and  C7_11 
REMARK    5  A    between atoms: C6_10  and  C8_13 
REMARK       I    between atoms: C7_11  and  N3_14 
REMARK    6  A    between atoms: N3_14  and  C9_15 
REMARK    7  A    between atoms: C9_15  and  C10_16 
REMARK    8  A    between atoms: C9_15  and  C11_18 
REMARK       I    between atoms: C10_16  and  N4_21 
REMARK    9  A    between atoms: C11_18  and  C12_19 
REMARK   10  A    between atoms: C11_18  and  C13_20 
REMARK   11  A    between atoms: N4_21  and  C14_22 
REMARK   12  A    between atoms: C14_22  and  C15_23 
REMARK   13  A    between atoms: C14_22  and  C16_25 
REMARK       I    between atoms: C15_23  and  N6_40 
REMARK   14  A    between atoms: C16_25  and  C17_26 
REMARK   15  A    between atoms: C17_26  and  C18_27 
REMARK   16  A    between atoms: C17_26  and  C19_28 
REMARK   17  A    between atoms: C20_29  and  C21_30 
REMARK   18  A    between atoms: C20_29  and  C24_33 
REMARK   19  A    between atoms: C20_29  and  N6_40 
REMARK   20  A    between atoms: C21_30  and  C22_31 
REMARK   21  A    between atoms: C22_31  and  C23_32 
REMARK   22  A    between atoms: C23_32  and  O8_43 
REMARK   23  A    between atoms: C24_33  and  C25_34 
REMARK   24  A    between atoms: C28_38  and  O6_39 
REMARK   25  A    between atoms: C29_42  and  O8_43 
REMARK   26  A    between atoms: C29_42  and  C35_49 
ROOT
ATOM      1  C14 non d ame     -32.968  10.182  25.424  0.00  0.00     0.089 C 
ATOM      2  H20 non d ame     -33.642  10.268  24.572  0.00  0.00     0.087 H 
ENDROOT
BRANCH   1   3
ATOM      3  N4  non d ame     -32.392   8.846  25.392  0.00  0.00    -0.346 N 
ATOM      4  C10 non d ame     -33.147   7.705  24.757  0.00  0.00     0.241 C 
ATOM      5  O4  non d ame     -34.218   7.886  24.281  0.00  0.00    -0.271 OA
ATOM      6  H19 non d ame     -31.479   8.712  25.805  0.00  0.00     0.163 HD
BRANCH   4   7
ATOM      7  C9  non d ame     -32.532   6.331  24.727  0.00  0.00     0.092 C 
ATOM      8  H11 non d ame     -31.469   6.408  24.955  0.00  0.00     0.088 H 
BRANCH   7   9
ATOM      9  N3  non d ame     -33.140   5.500  25.770  0.00  0.00    -0.346 N 
ATOM     10  C7  non d ame     -32.763   5.685  27.150  0.00  0.00     0.240 C 
ATOM     11  O3  non d ame     -31.970   6.497  27.438  0.00  0.00    -0.271 OA
ATOM     12  H10 non d ame     -33.824   4.795  25.537  0.00  0.00     0.163 HD
BRANCH  10  13
ATOM     13  C6  non d ame     -33.411   4.796  28.256  0.00  0.00     0.086 C 
ATOM     14  H6  non d ame     -32.772   4.678  29.131  0.00  0.00     0.086 H 
BRANCH  13  15
ATOM     15  N2  non d ame     -34.633   5.435  28.718  0.00  0.00    -0.343 N 
ATOM     16  C5  non d ame     -34.929   5.474  30.152  0.00  0.00     0.273 C 
ATOM     17  O2  non d ame     -34.179   4.987  30.925  0.00  0.00    -0.266 OA
ATOM     18  H5  non d ame     -35.269   5.845  28.050  0.00  0.00     0.163 HD
BRANCH  16  19
ATOM     19  C4  non d ame     -36.215   6.147  30.654  0.00  0.00     0.154 A 
ATOM     20  C1  non d ame     -36.487   7.550  30.723  0.00  0.00    -0.017 A 
ATOM     21  C2  non d ame     -37.794   7.642  31.251  0.00  0.00     0.077 A 
ATOM     22  H1  non d ame     -35.835   8.375  30.437  0.00  0.00     0.091 H 
ATOM     23  O1  non d ame     -38.216   6.428  31.453  0.00  0.00    -0.218 OA
ATOM     24  N1  non d ame     -37.312   5.538  31.113  0.00  0.00    -0.123 NA
BRANCH  21  25
ATOM     25  C3  non d ame     -38.567   8.925  31.528  0.00  0.00    -0.029 C 
ATOM     26  H2  non d ame     -38.655   9.071  32.604  0.00  0.00     0.036 H 
ATOM     27  H3  non d ame     -38.037   9.770  31.089  0.00  0.00     0.036 H 
ATOM     28  H4  non d ame     -39.561   8.852  31.089  0.00  0.00     0.036 H 
ENDBRANCH  21  25
ENDBRANCH  16  19
ENDBRANCH  13  15
BRANCH  13  29
ATOM     29  C8  non d ame     -33.723   3.433  27.691  0.00  0.00    -0.049 C 
ATOM     30  H7  non d ame     -33.561   3.441  26.614  0.00  0.00     0.030 H 
ATOM     31  H8  non d ame     -33.069   2.692  28.151  0.00  0.00     0.030 H 
ATOM     32  H9  non d ame     -34.762   3.181  27.901  0.00  0.00     0.030 H 
ENDBRANCH  13  29
ENDBRANCH  10  13
ENDBRANCH   7   9
BRANCH   7  33
ATOM     33  C11 non d ame     -32.785   5.680  23.336  0.00  0.00    -0.033 C 
ATOM     34  H12 non d ame     -33.640   6.186  22.887  0.00  0.00     0.042 H 
BRANCH  33  35
ATOM     35  C12 non d ame     -31.566   5.883  22.382  0.00  0.00    -0.071 C 
ATOM     36  H13 non d ame     -30.760   6.379  22.923  0.00  0.00     0.028 H 
ATOM     37  H14 non d ame     -31.220   4.913  22.025  0.00  0.00     0.028 H 
ATOM     38  H15 non d ame     -31.867   6.497  21.534  0.00  0.00     0.028 H 
ENDBRANCH  33  35
BRANCH  33  39
ATOM     39  C13 non d ame     -33.143   4.166  23.484  0.00  0.00    -0.071 C 
ATOM     40  H16 non d ame     -32.299   3.559  23.156  0.00  0.00     0.028 H 
ATOM     41  H17 non d ame     -33.367   3.945  24.528  0.00  0.00     0.028 H 
ATOM     42  H18 non d ame     -34.014   3.938  22.871  0.00  0.00     0.028 H 
ENDBRANCH  33  39
ENDBRANCH   7  33
ENDBRANCH   4   7
ENDBRANCH   1   3
BRANCH   1  43
ATOM     43  C15 non d ame     -31.813  11.221  25.368  0.00  0.00     0.240 C 
ATOM     44  O5  non d ame     -30.758  10.959  25.848  0.00  0.00    -0.271 OA
ATOM     45  N6  non d ame     -32.018  12.541  24.707  0.00  0.00    -0.355 N 
ATOM     46  H46 non d ame     -32.909  12.773  24.291  0.00  0.00     0.162 HD
BRANCH  45  47
ATOM     47  C20 non d ame     -30.909  13.519  24.660  0.00  0.00     0.013 C 
ATOM     48  H30 non d ame     -30.100  13.139  25.285  0.00  0.00     0.072 H 
BRANCH  47  49
ATOM     49  C21 non d ame     -31.392  14.849  25.193  0.00  0.00    -0.038 C 
ATOM     50  H31 non d ame     -30.633  15.173  25.907  0.00  0.00     0.036 H 
ATOM     51  H32 non d ame     -31.610  15.456  24.315  0.00  0.00     0.036 H 
BRANCH  49  52
ATOM     52  C22 non d ame     -32.713  14.734  25.984  0.00  0.00     0.018 C 
ATOM     53  H33 non d ame     -33.212  15.695  25.866  0.00  0.00     0.048 H 
ATOM     54  H34 non d ame     -33.193  13.823  25.624  0.00  0.00     0.048 H 
BRANCH  52  55
ATOM     55  C23 non d ame     -32.513  14.538  27.512  0.00  0.00     0.259 C 
ATOM     56  O7  non d ame     -32.099  13.509  27.940  0.00  0.00    -0.265 OA
BRANCH  55  57
ATOM     57  O8  non d ame     -32.846  15.598  28.400  0.00  0.00    -0.317 OA
BRANCH  57  58
ATOM     58  C29 non d ame     -34.068  16.267  28.075  0.00  0.00     0.052 C 
ATOM     59  H47 non d ame     -34.526  15.676  27.283  0.00  0.00     0.082 H 
ATOM     60  H48 non d ame     -34.589  16.407  29.022  0.00  0.00     0.082 H 
BRANCH  58  61
ATOM     61  C35 non d ame     -33.711  17.665  27.500  0.00  0.00    -0.034 A 
ATOM     62  C30 non d ame     -32.756  18.454  28.133  0.00  0.00    -0.075 A 
ATOM     63  C31 non d ame     -32.435  19.709  27.616  0.00  0.00    -0.082 A 
ATOM     64  H49 non d ame     -32.259  18.090  29.032  0.00  0.00     0.084 H 
ATOM     65  C32 non d ame     -33.076  20.175  26.465  0.00  0.00    -0.083 A 
ATOM     66  H50 non d ame     -31.685  20.325  28.114  0.00  0.00     0.083 H 
ATOM     67  C33 non d ame     -34.031  19.385  25.840  0.00  0.00    -0.082 A 
ATOM     68  H51 non d ame     -32.831  21.155  26.055  0.00  0.00     0.083 H 
ATOM     69  C34 non d ame     -34.353  18.129  26.351  0.00  0.00    -0.075 A 
ATOM     70  H52 non d ame     -34.531  19.752  24.943  0.00  0.00     0.083 H 
ATOM     71  H53 non d ame     -35.103  17.514  25.853  0.00  0.00     0.084 H 
ENDBRANCH  58  61
ENDBRANCH  57  58
ENDBRANCH  55  57
ENDBRANCH  52  55
ENDBRANCH  49  52
ENDBRANCH  47  49
BRANCH  47  72
ATOM     72  C24 non d ame     -30.431  13.690  23.220  0.00  0.00    -0.039 C 
ATOM     73  H35 non d ame     -29.458  13.198  23.177  0.00  0.00     0.036 H 
ATOM     74  H36 non d ame     -31.250  13.329  22.598  0.00  0.00     0.036 H 
BRANCH  72  75
ATOM     75  C25 non d ame     -30.200  15.231  22.850  0.00  0.00    -0.001 C 
ATOM     76  C26 non d ame     -31.278  15.698  21.701  0.00  0.00    -0.035 C 
ATOM     77  C27 non d ame     -30.604  16.292  20.686  0.00  0.00     0.085 C 
ATOM     78  H38 non d ame     -31.727  14.823  21.231  0.00  0.00     0.036 H 
ATOM     79  H39 non d ame     -31.913  16.496  22.086  0.00  0.00     0.036 H 
ATOM     80  N5  non d ame     -29.141  15.980  20.886  0.00  0.00    -0.049 N 
ATOM     81  H40 non d ame     -30.952  15.799  19.778  0.00  0.00     0.075 H 
ATOM     82  H41 non d ame     -30.760  17.362  20.820  0.00  0.00     0.075 H 
ATOM     83  C28 non d ame     -29.006  15.429  22.397  0.00  0.00     0.193 C 
ATOM     84  H42 non d ame     -28.919  15.228  20.249  0.00  0.00     0.280 HD
ATOM     85  H43 non d ame     -28.649  16.860  20.819  0.00  0.00     0.280 HD
ATOM     86  H44 non d ame     -28.599  16.063  23.184  0.00  0.00     0.129 H 
ATOM     87  H37 non d ame     -30.115  15.860  23.736  0.00  0.00     0.046 H 
BRANCH  83  88
ATOM     88  O6  non d ame     -28.216  14.239  22.420  0.00  0.00    -0.369 OA
ATOM     89  H45 non d ame     -27.793  14.119  21.567  0.00  0.00     0.212 HD
ENDBRANCH  83  88
ENDBRANCH  72  75
ENDBRANCH  47  72
ENDBRANCH  45  47
ENDBRANCH   1  43
BRANCH   1  90
ATOM     90  C16 non d ame     -33.748  10.354  26.718  0.00  0.00    -0.035 C 
ATOM     91  H21 non d ame     -33.836   9.353  27.138  0.00  0.00     0.037 H 
ATOM     92  H22 non d ame     -33.223  11.132  27.270  0.00  0.00     0.037 H 
BRANCH  90  93
ATOM     93  C17 non d ame     -35.207  10.870  26.506  0.00  0.00    -0.059 C 
ATOM     94  H23 non d ame     -35.879  10.186  27.023  0.00  0.00     0.038 H 
BRANCH  93  95
ATOM     95  C18 non d ame     -35.421  12.296  27.107  0.00  0.00    -0.073 C 
ATOM     96  H24 non d ame     -36.399  12.347  27.585  0.00  0.00     0.028 H 
ATOM     97  H25 non d ame     -34.646  12.498  27.848  0.00  0.00     0.028 H 
ATOM     98  H26 non d ame     -35.365  13.039  26.312  0.00  0.00     0.028 H 
ENDBRANCH  93  95
BRANCH  93  99
ATOM     99  C19 non d ame     -35.586  10.844  25.022  0.00  0.00    -0.073 C 
ATOM    100  H27 non d ame     -35.951  11.827  24.722  0.00  0.00     0.028 H 
ATOM    101  H28 non d ame     -34.710  10.586  24.428  0.00  0.00     0.028 H 
ATOM    102  H29 non d ame     -36.366  10.101  24.860  0.00  0.00     0.028 H 
ENDBRANCH  93  99
ENDBRANCH  90  93
ENDBRANCH   1  90
TORSDOF 26
ENDMDL
MODEL 18
REMARK VINA RESULT:      -6.8      2.859      7.131
REMARK  26 active torsions:
REMARK  status: ('A' for Active; 'I' for Inactive)
REMARK    1  A    between atoms: C2_2  and  C3_3 
REMARK    2  A    between atoms: C4_6  and  C5_7 
REMARK       I    between atoms: C5_7  and  N2_9 
REMARK    3  A    between atoms: N2_9  and  C6_10 
REMARK    4  A    between atoms: C6_10  and  C7_11 
REMARK    5  A    between atoms: C6_10  and  C8_13 
REMARK       I    between atoms: C7_11  and  N3_14 
REMARK    6  A    between atoms: N3_14  and  C9_15 
REMARK    7  A    between atoms: C9_15  and  C10_16 
REMARK    8  A    between atoms: C9_15  and  C11_18 
REMARK       I    between atoms: C10_16  and  N4_21 
REMARK    9  A    between atoms: C11_18  and  C12_19 
REMARK   10  A    between atoms: C11_18  and  C13_20 
REMARK   11  A    between atoms: N4_21  and  C14_22 
REMARK   12  A    between atoms: C14_22  and  C15_23 
REMARK   13  A    between atoms: C14_22  and  C16_25 
REMARK       I    between atoms: C15_23  and  N6_40 
REMARK   14  A    between atoms: C16_25  and  C17_26 
REMARK   15  A    between atoms: C17_26  and  C18_27 
REMARK   16  A    between atoms: C17_26  and  C19_28 
REMARK   17  A    between atoms: C20_29  and  C21_30 
REMARK   18  A    between atoms: C20_29  and  C24_33 
REMARK   19  A    between atoms: C20_29  and  N6_40 
REMARK   20  A    between atoms: C21_30  and  C22_31 
REMARK   21  A    between atoms: C22_31  and  C23_32 
REMARK   22  A    between atoms: C23_32  and  O8_43 
REMARK   23  A    between atoms: C24_33  and  C25_34 
REMARK   24  A    between atoms: C28_38  and  O6_39 
REMARK   25  A    between atoms: C29_42  and  O8_43 
REMARK   26  A    between atoms: C29_42  and  C35_49 
ROOT
ATOM      1  C14 non d ame     -31.260  14.766  24.152  0.00  0.00     0.089 C 
ATOM      2  H20 non d ame     -30.253  14.801  24.569  0.00  0.00     0.087 H 
ENDROOT
BRANCH   1   3
ATOM      3  N4  non d ame     -31.614  13.365  23.982  0.00  0.00    -0.346 N 
ATOM      4  C10 non d ame     -31.401  12.383  25.107  0.00  0.00     0.241 C 
ATOM      5  O4  non d ame     -30.939  12.743  26.138  0.00  0.00    -0.271 OA
ATOM      6  H19 non d ame     -32.004  13.078  23.095  0.00  0.00     0.163 HD
BRANCH   4   7
ATOM      7  C9  non d ame     -31.779  10.938  24.915  0.00  0.00     0.092 C 
ATOM      8  H11 non d ame     -31.225  10.324  25.625  0.00  0.00     0.088 H 
BRANCH   7   9
ATOM      9  N3  non d ame     -33.204  10.761  25.209  0.00  0.00    -0.346 N 
ATOM     10  C7  non d ame     -33.623  10.362  26.530  0.00  0.00     0.240 C 
ATOM     11  O3  non d ame     -32.827  10.176  27.367  0.00  0.00    -0.271 OA
ATOM     12  H10 non d ame     -33.903  10.916  24.497  0.00  0.00     0.163 HD
BRANCH  10  13
ATOM     13  C6  non d ame     -35.141  10.173  26.836  0.00  0.00     0.086 C 
ATOM     14  H6  non d ame     -35.673   9.659  26.035  0.00  0.00     0.086 H 
BRANCH  13  15
ATOM     15  N2  non d ame     -35.282   9.348  28.025  0.00  0.00    -0.343 N 
ATOM     16  C5  non d ame     -35.761   7.969  27.894  0.00  0.00     0.273 C 
ATOM     17  O2  non d ame     -36.032   7.535  26.828  0.00  0.00    -0.266 OA
ATOM     18  H5  non d ame     -35.052   9.728  28.932  0.00  0.00     0.163 HD
BRANCH  16  19
ATOM     19  C4  non d ame     -35.914   7.086  29.141  0.00  0.00     0.154 A 
ATOM     20  C1  non d ame     -34.867   6.569  29.968  0.00  0.00    -0.017 A 
ATOM     21  C2  non d ame     -35.528   5.826  30.971  0.00  0.00     0.077 A 
ATOM     22  H1  non d ame     -33.792   6.709  29.857  0.00  0.00     0.091 H 
ATOM     23  O1  non d ame     -36.806   5.915  30.740  0.00  0.00    -0.218 OA
ATOM     24  N1  non d ame     -37.055   6.644  29.677  0.00  0.00    -0.123 NA
BRANCH  21  25
ATOM     25  C3  non d ame     -34.868   5.064  32.113  0.00  0.00    -0.029 C 
ATOM     26  H2  non d ame     -35.573   4.963  32.938  0.00  0.00     0.036 H 
ATOM     27  H3  non d ame     -34.571   4.075  31.765  0.00  0.00     0.036 H 
ATOM     28  H4  non d ame     -33.988   5.609  32.452  0.00  0.00     0.036 H 
ENDBRANCH  21  25
ENDBRANCH  16  19
ENDBRANCH  13  15
BRANCH  13  29
ATOM     29  C8  non d ame     -35.783  11.518  27.063  0.00  0.00    -0.049 C 
ATOM     30  H7  non d ame     -35.494  12.198  26.262  0.00  0.00     0.030 H 
ATOM     31  H8  non d ame     -36.867  11.407  27.070  0.00  0.00     0.030 H 
ATOM     32  H9  non d ame     -35.452  11.922  28.020  0.00  0.00     0.030 H 
ENDBRANCH  13  29
ENDBRANCH  10  13
ENDBRANCH   7   9
BRANCH   7  33
ATOM     33  C11 non d ame     -31.501  10.521  23.441  0.00  0.00    -0.033 C 
ATOM     34  H12 non d ame     -31.781  11.360  22.804  0.00  0.00     0.042 H 
BRANCH  33  35
ATOM     35  C12 non d ame     -29.984  10.238  23.206  0.00  0.00    -0.071 C 
ATOM     36  H13 non d ame     -29.410  11.139  23.419  0.00  0.00     0.028 H 
ATOM     37  H14 non d ame     -29.659   9.435  23.866  0.00  0.00     0.028 H 
ATOM     38  H15 non d ame     -29.826   9.943  22.168  0.00  0.00     0.028 H 
ENDBRANCH  33  35
BRANCH  33  39
ATOM     39  C13 non d ame     -32.376   9.292  23.032  0.00  0.00    -0.071 C 
ATOM     40  H16 non d ame     -32.575   9.328  21.961  0.00  0.00     0.028 H 
ATOM     41  H17 non d ame     -31.845   8.371  23.274  0.00  0.00     0.028 H 
ATOM     42  H18 non d ame     -33.319   9.320  23.578  0.00  0.00     0.028 H 
ENDBRANCH  33  39
ENDBRANCH   7  33
ENDBRANCH   4   7
ENDBRANCH   1   3
BRANCH   1  43
ATOM     43  C15 non d ame     -32.308  15.432  25.088  0.00  0.00     0.240 C 
ATOM     44  O5  non d ame     -33.387  15.702  24.669  0.00  0.00    -0.271 OA
ATOM     45  N6  non d ame     -31.970  15.724  26.509  0.00  0.00    -0.355 N 
ATOM     46  H46 non d ame     -31.058  15.494  26.878  0.00  0.00     0.162 HD
BRANCH  45  47
ATOM     47  C20 non d ame     -32.978  16.356  27.388  0.00  0.00     0.013 C 
ATOM     48  H30 non d ame     -33.966  16.077  27.020  0.00  0.00     0.072 H 
BRANCH  47  49
ATOM     49  C21 non d ame     -32.814  17.858  27.338  0.00  0.00    -0.038 C 
ATOM     50  H31 non d ame     -32.105  18.104  28.130  0.00  0.00     0.036 H 
ATOM     51  H32 non d ame     -32.575  18.093  26.301  0.00  0.00     0.036 H 
BRANCH  49  52
ATOM     52  C22 non d ame     -34.118  18.616  27.668  0.00  0.00     0.018 C 
ATOM     53  H33 non d ame     -34.927  17.983  27.307  0.00  0.00     0.048 H 
ATOM     54  H34 non d ame     -34.053  18.866  28.728  0.00  0.00     0.048 H 
BRANCH  52  55
ATOM     55  C23 non d ame     -34.264  19.969  26.918  0.00  0.00     0.259 C 
ATOM     56  O7  non d ame     -33.355  20.733  26.869  0.00  0.00    -0.265 OA
BRANCH  55  57
ATOM     57  O8  non d ame     -35.504  20.292  26.300  0.00  0.00    -0.317 OA
BRANCH  57  58
ATOM     58  C29 non d ame     -35.877  19.402  25.244  0.00  0.00     0.052 C 
ATOM     59  H47 non d ame     -35.046  19.415  24.540  0.00  0.00     0.082 H 
ATOM     60  H48 non d ame     -36.166  18.471  25.731  0.00  0.00     0.082 H 
BRANCH  58  61
ATOM     61  C35 non d ame     -37.127  19.994  24.538  0.00  0.00    -0.034 A 
ATOM     62  C30 non d ame     -38.176  20.506  25.294  0.00  0.00    -0.075 A 
ATOM     63  C31 non d ame     -39.299  21.037  24.660  0.00  0.00    -0.082 A 
ATOM     64  H49 non d ame     -38.120  20.491  26.382  0.00  0.00     0.084 H 
ATOM     65  C32 non d ame     -39.371  21.052  23.264  0.00  0.00    -0.083 A 
ATOM     66  H50 non d ame     -40.119  21.440  25.255  0.00  0.00     0.083 H 
ATOM     67  C33 non d ame     -38.322  20.537  22.515  0.00  0.00    -0.082 A 
ATOM     68  H51 non d ame     -40.244  21.466  22.761  0.00  0.00     0.083 H 
ATOM     69  C34 non d ame     -37.198  20.007  23.144  0.00  0.00    -0.075 A 
ATOM     70  H52 non d ame     -38.382  20.548  21.426  0.00  0.00     0.083 H 
ATOM     71  H53 non d ame     -36.378  19.605  22.548  0.00  0.00     0.084 H 
ENDBRANCH  58  61
ENDBRANCH  57  58
ENDBRANCH  55  57
ENDBRANCH  52  55
ENDBRANCH  49  52
ENDBRANCH  47  49
BRANCH  47  72
ATOM     72  C24 non d ame     -32.791  15.870  28.824  0.00  0.00    -0.039 C 
ATOM     73  H35 non d ame     -32.334  16.707  29.355  0.00  0.00     0.036 H 
ATOM     74  H36 non d ame     -33.766  15.496  29.133  0.00  0.00     0.036 H 
BRANCH  72  75
ATOM     75  C25 non d ame     -31.766  14.642  28.905  0.00  0.00    -0.001 C 
ATOM     76  C26 non d ame     -32.580  13.256  29.246  0.00  0.00    -0.035 C 
ATOM     77  C27 non d ame     -31.983  12.646  30.299  0.00  0.00     0.085 C 
ATOM     78  H38 non d ame     -33.577  13.490  29.620  0.00  0.00     0.036 H 
ATOM     79  H39 non d ame     -32.456  12.540  28.434  0.00  0.00     0.036 H 
ATOM     80  N5  non d ame     -31.038  13.651  30.912  0.00  0.00    -0.049 N 
ATOM     81  H40 non d ame     -32.785  12.434  31.006  0.00  0.00     0.075 H 
ATOM     82  H41 non d ame     -31.403  11.829  29.871  0.00  0.00     0.075 H 
ATOM     83  C28 non d ame     -30.878  14.833  29.824  0.00  0.00     0.193 C 
ATOM     84  H42 non d ame     -31.506  14.025  31.726  0.00  0.00     0.280 HD
ATOM     85  H43 non d ame     -30.148  13.183  31.012  0.00  0.00     0.280 HD
ATOM     86  H44 non d ame     -29.977  14.909  29.217  0.00  0.00     0.129 H 
ATOM     87  H37 non d ame     -31.081  14.619  28.058  0.00  0.00     0.046 H 
BRANCH  83  88
ATOM     88  O6  non d ame     -31.022  16.107  30.455  0.00  0.00    -0.369 OA
ATOM     89  H45 non d ame     -30.949  16.003  31.406  0.00  0.00     0.212 HD
ENDBRANCH  83  88
ENDBRANCH  72  75
ENDBRANCH  47  72
ENDBRANCH  45  47
ENDBRANCH   1  43
BRANCH   1  90
ATOM     90  C16 non d ame     -31.278  15.450  22.794  0.00  0.00    -0.035 C 
ATOM     91  H21 non d ame     -32.253  15.217  22.366  0.00  0.00     0.037 H 
ATOM     92  H22 non d ame     -31.004  16.486  22.989  0.00  0.00     0.037 H 
BRANCH  90  93
ATOM     93  C17 non d ame     -30.215  14.892  21.796  0.00  0.00    -0.059 C 
ATOM     94  H23 non d ame     -30.365  13.815  21.719  0.00  0.00     0.038 H 
BRANCH  93  95
ATOM     95  C18 non d ame     -30.374  15.499  20.365  0.00  0.00    -0.073 C 
ATOM     96  H24 non d ame     -30.039  16.536  20.371  0.00  0.00     0.028 H 
ATOM     97  H25 non d ame     -29.771  14.927  19.659  0.00  0.00     0.028 H 
ATOM     98  H26 non d ame     -31.420  15.456  20.066  0.00  0.00     0.028 H 
ENDBRANCH  93  95
BRANCH  93  99
ATOM     99  C19 non d ame     -28.796  15.115  22.327  0.00  0.00    -0.073 C 
ATOM    100  H27 non d ame     -28.793  15.967  23.008  0.00  0.00     0.028 H 
ATOM    101  H28 non d ame     -28.463  14.225  22.860  0.00  0.00     0.028 H 
ATOM    102  H29 non d ame     -28.123  15.313  21.494  0.00  0.00     0.028 H 
ENDBRANCH  93  99
ENDBRANCH  90  93
ENDBRANCH   1  90
TORSDOF 26
ENDMDL
MODEL 19
REMARK VINA RESULT:      -6.8      3.414      9.324
REMARK  26 active torsions:
REMARK  status: ('A' for Active; 'I' for Inactive)
REMARK    1  A    between atoms: C2_2  and  C3_3 
REMARK    2  A    between atoms: C4_6  and  C5_7 
REMARK       I    between atoms: C5_7  and  N2_9 
REMARK    3  A    between atoms: N2_9  and  C6_10 
REMARK    4  A    between atoms: C6_10  and  C7_11 
REMARK    5  A    between atoms: C6_10  and  C8_13 
REMARK       I    between atoms: C7_11  and  N3_14 
REMARK    6  A    between atoms: N3_14  and  C9_15 
REMARK    7  A    between atoms: C9_15  and  C10_16 
REMARK    8  A    between atoms: C9_15  and  C11_18 
REMARK       I    between atoms: C10_16  and  N4_21 
REMARK    9  A    between atoms: C11_18  and  C12_19 
REMARK   10  A    between atoms: C11_18  and  C13_20 
REMARK   11  A    between atoms: N4_21  and  C14_22 
REMARK   12  A    between atoms: C14_22  and  C15_23 
REMARK   13  A    between atoms: C14_22  and  C16_25 
REMARK       I    between atoms: C15_23  and  N6_40 
REMARK   14  A    between atoms: C16_25  and  C17_26 
REMARK   15  A    between atoms: C17_26  and  C18_27 
REMARK   16  A    between atoms: C17_26  and  C19_28 
REMARK   17  A    between atoms: C20_29  and  C21_30 
REMARK   18  A    between atoms: C20_29  and  C24_33 
REMARK   19  A    between atoms: C20_29  and  N6_40 
REMARK   20  A    between atoms: C21_30  and  C22_31 
REMARK   21  A    between atoms: C22_31  and  C23_32 
REMARK   22  A    between atoms: C23_32  and  O8_43 
REMARK   23  A    between atoms: C24_33  and  C25_34 
REMARK   24  A    between atoms: C28_38  and  O6_39 
REMARK   25  A    between atoms: C29_42  and  O8_43 
REMARK   26  A    between atoms: C29_42  and  C35_49 
ROOT
ATOM      1  C14 non d ame     -34.887   8.386  31.330  0.00  0.00     0.089 C 
ATOM      2  H20 non d ame     -34.453   8.465  32.328  0.00  0.00     0.087 H 
ENDROOT
BRANCH   1   3
ATOM      3  N4  non d ame     -34.031   9.133  30.421  0.00  0.00    -0.346 N 
ATOM      4  C10 non d ame     -33.518  10.498  30.805  0.00  0.00     0.241 C 
ATOM      5  O4  non d ame     -33.811  10.977  31.850  0.00  0.00    -0.271 OA
ATOM      6  H19 non d ame     -33.796   8.708  29.535  0.00  0.00     0.163 HD
BRANCH   4   7
ATOM      7  C9  non d ame     -32.628  11.253  29.853  0.00  0.00     0.092 C 
ATOM      8  H11 non d ame     -31.966  10.551  29.346  0.00  0.00     0.088 H 
BRANCH   7   9
ATOM      9  N3  non d ame     -33.448  11.896  28.823  0.00  0.00    -0.346 N 
ATOM     10  C7  non d ame     -33.516  11.330  27.498  0.00  0.00     0.240 C 
ATOM     11  O3  non d ame     -32.916  10.358  27.244  0.00  0.00    -0.271 OA
ATOM     12  H10 non d ame     -33.970  12.736  29.027  0.00  0.00     0.163 HD
BRANCH  10  13
ATOM     13  C6  non d ame     -34.388  12.021  26.404  0.00  0.00     0.086 C 
ATOM     14  H6  non d ame     -35.063  12.772  26.815  0.00  0.00     0.086 H 
BRANCH  13  15
ATOM     15  N2  non d ame     -33.514  12.713  25.472  0.00  0.00    -0.343 N 
ATOM     16  C5  non d ame     -32.948  14.013  25.843  0.00  0.00     0.273 C 
ATOM     17  O2  non d ame     -33.206  14.494  26.891  0.00  0.00    -0.266 OA
ATOM     18  H5  non d ame     -33.302  12.297  24.577  0.00  0.00     0.163 HD
BRANCH  16  19
ATOM     19  C4  non d ame     -32.021  14.755  24.868  0.00  0.00     0.154 A 
ATOM     20  C1  non d ame     -30.829  14.252  24.256  0.00  0.00    -0.017 A 
ATOM     21  C2  non d ame     -30.355  15.316  23.456  0.00  0.00     0.077 A 
ATOM     22  H1  non d ame     -30.377  13.268  24.375  0.00  0.00     0.091 H 
ATOM     23  O1  non d ame     -31.186  16.307  23.596  0.00  0.00    -0.218 OA
ATOM     24  N1  non d ame     -32.166  16.003  24.416  0.00  0.00    -0.123 NA
BRANCH  21  25
ATOM     25  C3  non d ame     -29.103  15.302  22.588  0.00  0.00    -0.029 C 
ATOM     26  H2  non d ame     -29.187  14.513  21.841  0.00  0.00     0.036 H 
ATOM     27  H3  non d ame     -28.997  16.265  22.089  0.00  0.00     0.036 H 
ATOM     28  H4  non d ame     -28.230  15.119  23.213  0.00  0.00     0.036 H 
ENDBRANCH  21  25
ENDBRANCH  16  19
ENDBRANCH  13  15
BRANCH  13  29
ATOM     29  C8  non d ame     -35.201  10.981  25.675  0.00  0.00    -0.049 C 
ATOM     30  H7  non d ame     -34.902   9.988  26.006  0.00  0.00     0.030 H 
ATOM     31  H8  non d ame     -36.260  11.132  25.890  0.00  0.00     0.030 H 
ATOM     32  H9  non d ame     -35.032  11.074  24.602  0.00  0.00     0.030 H 
ENDBRANCH  13  29
ENDBRANCH  10  13
ENDBRANCH   7   9
BRANCH   7  33
ATOM     33  C11 non d ame     -31.837  12.341  30.636  0.00  0.00    -0.033 C 
ATOM     34  H12 non d ame     -32.377  12.537  31.563  0.00  0.00     0.042 H 
BRANCH  33  35
ATOM     35  C12 non d ame     -30.410  11.839  31.022  0.00  0.00    -0.071 C 
ATOM     36  H13 non d ame     -30.004  11.238  30.209  0.00  0.00     0.028 H 
ATOM     37  H14 non d ame     -29.761  12.696  31.201  0.00  0.00     0.028 H 
ATOM     38  H15 non d ame     -30.470  11.233  31.926  0.00  0.00     0.028 H 
ENDBRANCH  33  35
BRANCH  33  39
ATOM     39  C13 non d ame     -31.768  13.675  29.826  0.00  0.00    -0.071 C 
ATOM     40  H16 non d ame     -31.061  13.565  29.004  0.00  0.00     0.028 H 
ATOM     41  H17 non d ame     -32.756  13.910  29.428  0.00  0.00     0.028 H 
ATOM     42  H18 non d ame     -31.441  14.482  30.482  0.00  0.00     0.028 H 
ENDBRANCH  33  39
ENDBRANCH   7  33
ENDBRANCH   4   7
ENDBRANCH   1   3
BRANCH   1  43
ATOM     43  C15 non d ame     -34.967   6.913  30.839  0.00  0.00     0.240 C 
ATOM     44  O5  non d ame     -35.443   6.081  31.542  0.00  0.00    -0.271 OA
ATOM     45  N6  non d ame     -34.458   6.540  29.489  0.00  0.00    -0.355 N 
ATOM     46  H46 non d ame     -34.056   7.240  28.881  0.00  0.00     0.162 HD
BRANCH  45  47
ATOM     47  C20 non d ame     -34.543   5.135  29.035  0.00  0.00     0.013 C 
ATOM     48  H30 non d ame     -34.844   4.525  29.887  0.00  0.00     0.072 H 
BRANCH  47  49
ATOM     49  C21 non d ame     -33.187   4.689  28.535  0.00  0.00    -0.038 C 
ATOM     50  H31 non d ame     -32.466   5.365  28.996  0.00  0.00     0.036 H 
ATOM     51  H32 non d ame     -33.137   3.619  28.736  0.00  0.00     0.036 H 
BRANCH  49  52
ATOM     52  C22 non d ame     -33.027   4.855  27.008  0.00  0.00     0.018 C 
ATOM     53  H33 non d ame     -32.344   4.067  26.696  0.00  0.00     0.048 H 
ATOM     54  H34 non d ame     -34.041   4.887  26.607  0.00  0.00     0.048 H 
BRANCH  52  55
ATOM     55  C23 non d ame     -32.358   6.193  26.590  0.00  0.00     0.259 C 
ATOM     56  O7  non d ame     -32.017   6.980  27.413  0.00  0.00    -0.265 OA
BRANCH  55  57
ATOM     57  O8  non d ame     -32.170   6.477  25.209  0.00  0.00    -0.317 OA
BRANCH  57  58
ATOM     58  C29 non d ame     -32.835   7.663  24.763  0.00  0.00     0.052 C 
ATOM     59  H47 non d ame     -33.632   7.323  24.103  0.00  0.00     0.082 H 
ATOM     60  H48 non d ame     -33.076   8.224  25.666  0.00  0.00     0.082 H 
BRANCH  58  61
ATOM     61  C35 non d ame     -31.825   8.493  23.926  0.00  0.00    -0.034 A 
ATOM     62  C30 non d ame     -30.989   7.857  23.013  0.00  0.00    -0.075 A 
ATOM     63  C31 non d ame     -30.081   8.602  22.261  0.00  0.00    -0.082 A 
ATOM     64  H49 non d ame     -31.045   6.776  22.887  0.00  0.00     0.084 H 
ATOM     65  C32 non d ame     -30.009   9.988  22.427  0.00  0.00    -0.083 A 
ATOM     66  H50 non d ame     -29.429   8.101  21.545  0.00  0.00     0.083 H 
ATOM     67  C33 non d ame     -30.843  10.617  23.341  0.00  0.00    -0.082 A 
ATOM     68  H51 non d ame     -29.303  10.577  21.842  0.00  0.00     0.083 H 
ATOM     69  C34 non d ame     -31.753   9.877  24.093  0.00  0.00    -0.075 A 
ATOM     70  H52 non d ame     -30.783  11.698  23.470  0.00  0.00     0.083 H 
ATOM     71  H53 non d ame     -32.405  10.379  24.809  0.00  0.00     0.084 H 
ENDBRANCH  58  61
ENDBRANCH  57  58
ENDBRANCH  55  57
ENDBRANCH  52  55
ENDBRANCH  49  52
ENDBRANCH  47  49
BRANCH  47  72
ATOM     72  C24 non d ame     -35.567   5.016  27.909  0.00  0.00    -0.039 C 
ATOM     73  H35 non d ame     -35.103   5.491  27.044  0.00  0.00     0.036 H 
ATOM     74  H36 non d ame     -35.835   3.960  27.871  0.00  0.00     0.036 H 
BRANCH  72  75
ATOM     75  C25 non d ame     -36.906   5.832  28.236  0.00  0.00    -0.001 C 
ATOM     76  C26 non d ame     -37.902   4.919  29.172  0.00  0.00    -0.035 C 
ATOM     77  C27 non d ame     -39.133   4.898  28.607  0.00  0.00     0.085 C 
ATOM     78  H38 non d ame     -37.591   3.875  29.143  0.00  0.00     0.036 H 
ATOM     79  H39 non d ame     -38.071   5.411  30.130  0.00  0.00     0.036 H 
ATOM     80  N5  non d ame     -38.985   5.438  27.205  0.00  0.00    -0.049 N 
ATOM     81  H40 non d ame     -39.412   3.845  28.554  0.00  0.00     0.075 H 
ATOM     82  H41 non d ame     -39.735   5.592  29.193  0.00  0.00     0.075 H 
ATOM     83  C28 non d ame     -37.536   6.150  27.154  0.00  0.00     0.193 C 
ATOM     84  H42 non d ame     -38.972   4.639  26.589  0.00  0.00     0.280 HD
ATOM     85  H43 non d ame     -39.696   6.148  27.096  0.00  0.00     0.280 HD
ATOM     86  H44 non d ame     -37.450   7.235  27.187  0.00  0.00     0.129 H 
ATOM     87  H37 non d ame     -36.698   6.847  28.575  0.00  0.00     0.046 H 
BRANCH  83  88
ATOM     88  O6  non d ame     -36.830   5.745  25.980  0.00  0.00    -0.369 OA
ATOM     89  H45 non d ame     -36.786   6.479  25.364  0.00  0.00     0.212 HD
ENDBRANCH  83  88
ENDBRANCH  72  75
ENDBRANCH  47  72
ENDBRANCH  45  47
ENDBRANCH   1  43
BRANCH   1  90
ATOM     90  C16 non d ame     -36.277   9.003  31.323  0.00  0.00    -0.035 C 
ATOM     91  H21 non d ame     -36.867   8.395  32.007  0.00  0.00     0.037 H 
ATOM     92  H22 non d ame     -36.123  10.062  31.531  0.00  0.00     0.037 H 
BRANCH  90  93
ATOM     93  C17 non d ame     -36.991   8.924  29.936  0.00  0.00    -0.059 C 
ATOM     94  H23 non d ame     -36.480   8.165  29.344  0.00  0.00     0.038 H 
BRANCH  93  95
ATOM     95  C18 non d ame     -38.488   8.499  30.068  0.00  0.00    -0.073 C 
ATOM     96  H24 non d ame     -38.895   8.287  29.080  0.00  0.00     0.028 H 
ATOM     97  H25 non d ame     -38.559   7.605  30.688  0.00  0.00     0.028 H 
ATOM     98  H26 non d ame     -39.056   9.307  30.530  0.00  0.00     0.028 H 
ENDBRANCH  93  95
BRANCH  93  99
ATOM     99  C19 non d ame     -36.866  10.250  29.181  0.00  0.00    -0.073 C 
ATOM    100  H27 non d ame     -37.850  10.562  28.828  0.00  0.00     0.028 H 
ATOM    101  H28 non d ame     -36.463  11.012  29.848  0.00  0.00     0.028 H 
ATOM    102  H29 non d ame     -36.198  10.122  28.330  0.00  0.00     0.028 H 
ENDBRANCH  93  99
ENDBRANCH  90  93
ENDBRANCH   1  90
TORSDOF 26
ENDMDL
MODEL 20
REMARK VINA RESULT:      -6.8      2.738      7.717
REMARK  26 active torsions:
REMARK  status: ('A' for Active; 'I' for Inactive)
REMARK    1  A    between atoms: C2_2  and  C3_3 
REMARK    2  A    between atoms: C4_6  and  C5_7 
REMARK       I    between atoms: C5_7  and  N2_9 
REMARK    3  A    between atoms: N2_9  and  C6_10 
REMARK    4  A    between atoms: C6_10  and  C7_11 
REMARK    5  A    between atoms: C6_10  and  C8_13 
REMARK       I    between atoms: C7_11  and  N3_14 
REMARK    6  A    between atoms: N3_14  and  C9_15 
REMARK    7  A    between atoms: C9_15  and  C10_16 
REMARK    8  A    between atoms: C9_15  and  C11_18 
REMARK       I    between atoms: C10_16  and  N4_21 
REMARK    9  A    between atoms: C11_18  and  C12_19 
REMARK   10  A    between atoms: C11_18  and  C13_20 
REMARK   11  A    between atoms: N4_21  and  C14_22 
REMARK   12  A    between atoms: C14_22  and  C15_23 
REMARK   13  A    between atoms: C14_22  and  C16_25 
REMARK       I    between atoms: C15_23  and  N6_40 
REMARK   14  A    between atoms: C16_25  and  C17_26 
REMARK   15  A    between atoms: C17_26  and  C18_27 
REMARK   16  A    between atoms: C17_26  and  C19_28 
REMARK   17  A    between atoms: C20_29  and  C21_30 
REMARK   18  A    between atoms: C20_29  and  C24_33 
REMARK   19  A    between atoms: C20_29  and  N6_40 
REMARK   20  A    between atoms: C21_30  and  C22_31 
REMARK   21  A    between atoms: C22_31  and  C23_32 
REMARK   22  A    between atoms: C23_32  and  O8_43 
REMARK   23  A    between atoms: C24_33  and  C25_34 
REMARK   24  A    between atoms: C28_38  and  O6_39 
REMARK   25  A    between atoms: C29_42  and  O8_43 
REMARK   26  A    between atoms: C29_42  and  C35_49 
ROOT
ATOM      1  C14 non d ame     -33.041   9.273  27.559  0.00  0.00     0.089 C 
ATOM      2  H20 non d ame     -32.021   8.887  27.569  0.00  0.00     0.087 H 
ENDROOT
BRANCH   1   3
ATOM      3  N4  non d ame     -32.972  10.698  27.843  0.00  0.00    -0.346 N 
ATOM      4  C10 non d ame     -31.838  11.530  27.299  0.00  0.00     0.241 C 
ATOM      5  O4  non d ame     -30.990  11.029  26.638  0.00  0.00    -0.271 OA
ATOM      6  H19 non d ame     -33.703  11.105  28.410  0.00  0.00     0.163 HD
BRANCH   4   7
ATOM      7  C9  non d ame     -31.787  13.006  27.598  0.00  0.00     0.092 C 
ATOM      8  H11 non d ame     -30.749  13.339  27.583  0.00  0.00     0.088 H 
BRANCH   7   9
ATOM      9  N3  non d ame     -32.494  13.743  26.548  0.00  0.00    -0.346 N 
ATOM     10  C7  non d ame     -31.752  14.369  25.482  0.00  0.00     0.240 C 
ATOM     11  O3  non d ame     -30.584  14.291  25.455  0.00  0.00    -0.271 OA
ATOM     12  H10 non d ame     -33.501  13.820  26.558  0.00  0.00     0.163 HD
BRANCH  10  13
ATOM     13  C6  non d ame     -32.511  15.155  24.368  0.00  0.00     0.086 C 
ATOM     14  H6  non d ame     -33.457  14.690  24.093  0.00  0.00     0.086 H 
BRANCH  13  15
ATOM     15  N2  non d ame     -32.829  16.485  24.863  0.00  0.00    -0.343 N 
ATOM     16  C5  non d ame     -34.102  16.713  25.550  0.00  0.00     0.273 C 
ATOM     17  O2  non d ame     -34.863  15.821  25.698  0.00  0.00    -0.266 OA
ATOM     18  H5  non d ame     -32.173  17.241  24.729  0.00  0.00     0.163 HD
BRANCH  16  19
ATOM     19  C4  non d ame     -34.450  18.112  26.080  0.00  0.00     0.154 A 
ATOM     20  C1  non d ame     -35.733  18.746  26.069  0.00  0.00    -0.017 A 
ATOM     21  C2  non d ame     -35.519  20.010  26.665  0.00  0.00     0.077 A 
ATOM     22  H1  non d ame     -36.674  18.352  25.687  0.00  0.00     0.091 H 
ATOM     23  O1  non d ame     -34.258  20.081  26.980  0.00  0.00    -0.218 OA
ATOM     24  N1  non d ame     -33.614  18.986  26.647  0.00  0.00    -0.123 NA
BRANCH  21  25
ATOM     25  C3  non d ame     -36.570  21.087  26.897  0.00  0.00    -0.029 C 
ATOM     26  H2  non d ame     -37.051  20.923  27.862  0.00  0.00     0.036 H 
ATOM     27  H3  non d ame     -36.094  22.067  26.891  0.00  0.00     0.036 H 
ATOM     28  H4  non d ame     -37.318  21.041  26.106  0.00  0.00     0.036 H 
ENDBRANCH  21  25
ENDBRANCH  16  19
ENDBRANCH  13  15
BRANCH  13  29
ATOM     29  C8  non d ame     -31.642  15.256  23.139  0.00  0.00    -0.049 C 
ATOM     30  H7  non d ame     -30.622  14.967  23.391  0.00  0.00     0.030 H 
ATOM     31  H8  non d ame     -32.028  14.590  22.367  0.00  0.00     0.030 H 
ATOM     32  H9  non d ame     -31.650  16.282  22.772  0.00  0.00     0.030 H 
ENDBRANCH  13  29
ENDBRANCH  10  13
ENDBRANCH   7   9
BRANCH   7  33
ATOM     33  C11 non d ame     -32.469  13.280  28.970  0.00  0.00    -0.033 C 
ATOM     34  H12 non d ame     -33.357  12.649  29.028  0.00  0.00     0.042 H 
BRANCH  33  35
ATOM     35  C12 non d ame     -31.536  12.887  30.158  0.00  0.00    -0.071 C 
ATOM     36  H13 non d ame     -30.898  12.055  29.860  0.00  0.00     0.028 H 
ATOM     37  H14 non d ame     -30.916  13.740  30.431  0.00  0.00     0.028 H 
ATOM     38  H15 non d ame     -32.143  12.589  31.014  0.00  0.00     0.028 H 
ENDBRANCH  33  35
BRANCH  33  39
ATOM     39  C13 non d ame     -32.927  14.770  29.079  0.00  0.00    -0.071 C 
ATOM     40  H16 non d ame     -32.236  15.405  28.524  0.00  0.00     0.028 H 
ATOM     41  H17 non d ame     -33.930  14.873  28.663  0.00  0.00     0.028 H 
ATOM     42  H18 non d ame     -32.937  15.071  30.126  0.00  0.00     0.028 H 
ENDBRANCH  33  39
ENDBRANCH   7  33
ENDBRANCH   4   7
ENDBRANCH   1   3
BRANCH   1  43
ATOM     43  C15 non d ame     -33.731   9.075  26.180  0.00  0.00     0.240 C 
ATOM     44  O5  non d ame     -34.796   9.563  25.977  0.00  0.00    -0.271 OA
ATOM     45  N6  non d ame     -33.062   8.285  25.109  0.00  0.00    -0.355 N 
ATOM     46  H46 non d ame     -32.154   7.870  25.268  0.00  0.00     0.162 HD
BRANCH  45  47
ATOM     47  C20 non d ame     -33.730   8.107  23.801  0.00  0.00     0.013 C 
ATOM     48  H30 non d ame     -34.700   8.604  23.850  0.00  0.00     0.072 H 
BRANCH  47  49
ATOM     49  C21 non d ame     -33.920   6.631  23.534  0.00  0.00    -0.038 C 
ATOM     50  H31 non d ame     -34.943   6.405  23.837  0.00  0.00     0.036 H 
ATOM     51  H32 non d ame     -33.612   6.477  22.500  0.00  0.00     0.036 H 
BRANCH  49  52
ATOM     52  C22 non d ame     -33.002   5.742  24.400  0.00  0.00     0.018 C 
ATOM     53  H33 non d ame     -32.624   4.968  23.733  0.00  0.00     0.048 H 
ATOM     54  H34 non d ame     -32.307   6.425  24.890  0.00  0.00     0.048 H 
BRANCH  52  55
ATOM     55  C23 non d ame     -33.747   4.997  25.542  0.00  0.00     0.259 C 
ATOM     56  O7  non d ame     -34.295   3.964  25.332  0.00  0.00    -0.265 OA
BRANCH  55  57
ATOM     57  O8  non d ame     -33.781   5.572  26.843  0.00  0.00    -0.317 OA
BRANCH  57  58
ATOM     58  C29 non d ame     -33.801   4.610  27.903  0.00  0.00     0.052 C 
ATOM     59  H47 non d ame     -34.213   3.700  27.467  0.00  0.00     0.082 H 
ATOM     60  H48 non d ame     -32.794   4.609  28.320  0.00  0.00     0.082 H 
BRANCH  58  61
ATOM     61  C35 non d ame     -34.783   5.120  28.993  0.00  0.00    -0.034 A 
ATOM     62  C30 non d ame     -34.365   5.213  30.317  0.00  0.00    -0.075 A 
ATOM     63  C31 non d ame     -35.247   5.670  31.296  0.00  0.00    -0.082 A 
ATOM     64  H49 non d ame     -33.349   4.927  30.588  0.00  0.00     0.084 H 
ATOM     65  C32 non d ame     -36.551   6.032  30.946  0.00  0.00    -0.083 A 
ATOM     66  H50 non d ame     -34.917   5.743  32.332  0.00  0.00     0.083 H 
ATOM     67  C33 non d ame     -36.963   5.935  29.625  0.00  0.00    -0.082 A 
ATOM     68  H51 non d ame     -37.245   6.392  31.706  0.00  0.00     0.083 H 
ATOM     69  C34 non d ame     -36.085   5.481  28.643  0.00  0.00    -0.075 A 
ATOM     70  H52 non d ame     -37.981   6.217  29.355  0.00  0.00     0.083 H 
ATOM     71  H53 non d ame     -36.416   5.408  27.606  0.00  0.00     0.084 H 
ENDBRANCH  58  61
ENDBRANCH  57  58
ENDBRANCH  55  57
ENDBRANCH  52  55
ENDBRANCH  49  52
ENDBRANCH  47  49
BRANCH  47  72
ATOM     72  C24 non d ame     -32.875   8.720  22.695  0.00  0.00    -0.039 C 
ATOM     73  H35 non d ame     -32.875   7.986  21.888  0.00  0.00     0.036 H 
ATOM     74  H36 non d ame     -33.289   9.714  22.527  0.00  0.00     0.036 H 
BRANCH  72  75
ATOM     75  C25 non d ame     -31.354   8.914  23.160  0.00  0.00    -0.001 C 
ATOM     76  C26 non d ame     -30.989  10.515  23.226  0.00  0.00    -0.035 C 
ATOM     77  C27 non d ame     -29.851  10.733  22.523  0.00  0.00     0.085 C 
ATOM     78  H38 non d ame     -31.738  11.092  22.684  0.00  0.00     0.036 H 
ATOM     79  H39 non d ame     -30.717  10.795  24.244  0.00  0.00     0.036 H 
ATOM     80  N5  non d ame     -29.588   9.487  21.713  0.00  0.00    -0.049 N 
ATOM     81  H40 non d ame     -30.081  11.556  21.845  0.00  0.00     0.075 H 
ATOM     82  H41 non d ame     -29.065  10.844  23.269  0.00  0.00     0.075 H 
ATOM     83  C28 non d ame     -30.538   8.341  22.338  0.00  0.00     0.193 C 
ATOM     84  H42 non d ame     -29.899   9.685  20.773  0.00  0.00     0.280 HD
ATOM     85  H43 non d ame     -28.625   9.234  21.883  0.00  0.00     0.280 HD
ATOM     86  H44 non d ame     -30.122   7.566  22.981  0.00  0.00     0.129 H 
ATOM     87  H37 non d ame     -31.110   8.313  24.035  0.00  0.00     0.046 H 
BRANCH  83  88
ATOM     88  O6  non d ame     -31.223   7.645  21.295  0.00  0.00    -0.369 OA
ATOM     89  H45 non d ame     -31.713   6.909  21.669  0.00  0.00     0.212 HD
ENDBRANCH  83  88
ENDBRANCH  72  75
ENDBRANCH  47  72
ENDBRANCH  45  47
ENDBRANCH   1  43
BRANCH   1  90
ATOM     90  C16 non d ame     -33.859   8.590  28.644  0.00  0.00    -0.035 C 
ATOM     91  H21 non d ame     -34.613   8.010  28.115  0.00  0.00     0.037 H 
ATOM     92  H22 non d ame     -33.131   8.086  29.280  0.00  0.00     0.037 H 
BRANCH  90  93
ATOM     93  C17 non d ame     -34.635   9.585  29.564  0.00  0.00    -0.059 C 
ATOM     94  H23 non d ame     -34.259  10.587  29.360  0.00  0.00     0.038 H 
BRANCH  93  95
ATOM     95  C18 non d ame     -36.170   9.582  29.273  0.00  0.00    -0.073 C 
ATOM     96  H24 non d ame     -36.378  10.221  28.415  0.00  0.00     0.028 H 
ATOM     97  H25 non d ame     -36.496   8.565  29.055  0.00  0.00     0.028 H 
ATOM     98  H26 non d ame     -36.706   9.957  30.144  0.00  0.00     0.028 H 
ENDBRANCH  93  95
BRANCH  93  99
ATOM     99  C19 non d ame     -34.361   9.290  31.042  0.00  0.00    -0.073 C 
ATOM    100  H27 non d ame     -33.329   9.552  31.280  0.00  0.00     0.028 H 
ATOM    101  H28 non d ame     -35.036   9.880  31.662  0.00  0.00     0.028 H 
ATOM    102  H29 non d ame     -34.522   8.231  31.237  0.00  0.00     0.028 H 
ENDBRANCH  93  99
ENDBRANCH  90  93
ENDBRANCH   1  90
TORSDOF 26
ENDMDL
