MODEL 1
REMARK VINA RESULT:      -7.5      0.000      0.000
REMARK  26 active torsions:
REMARK  status: ('A' for Active; 'I' for Inactive)
REMARK    1  A    between atoms: C2_2  and  C3_3 
REMARK    2  A    between atoms: C4_6  and  C5_7 
REMARK       I    between atoms: C5_7  and  N2_9 
REMARK    3  A    between atoms: N2_9  and  C6_10 
REMARK    4  A    between atoms: C6_10  and  C7_11 
REMARK    5  A    between atoms: C6_10  and  C8_13 
REMARK       I    between atoms: C7_11  and  N3_14 
REMARK    6  A    between atoms: N3_14  and  C9_15 
REMARK    7  A    between atoms: C9_15  and  C10_16 
REMARK    8  A    between atoms: C9_15  and  C11_18 
REMARK       I    between atoms: C10_16  and  N4_21 
REMARK    9  A    between atoms: C11_18  and  C12_19 
REMARK   10  A    between atoms: C11_18  and  C13_20 
REMARK   11  A    between atoms: N4_21  and  C14_22 
REMARK   12  A    between atoms: C14_22  and  C15_23 
REMARK   13  A    between atoms: C14_22  and  C16_25 
REMARK       I    between atoms: C15_23  and  N6_40 
REMARK   14  A    between atoms: C16_25  and  C17_26 
REMARK   15  A    between atoms: C17_26  and  C18_27 
REMARK   16  A    between atoms: C17_26  and  C19_28 
REMARK   17  A    between atoms: C20_29  and  C21_30 
REMARK   18  A    between atoms: C20_29  and  C24_33 
REMARK   19  A    between atoms: C20_29  and  N6_40 
REMARK   20  A    between atoms: C21_30  and  C22_31 
REMARK   21  A    between atoms: C22_31  and  C23_32 
REMARK   22  A    between atoms: C23_32  and  O8_43 
REMARK   23  A    between atoms: C24_33  and  C25_34 
REMARK   24  A    between atoms: C28_38  and  O6_39 
REMARK   25  A    between atoms: C29_42  and  O8_43 
REMARK   26  A    between atoms: C29_42  and  C35_49 
ROOT
ATOM      1  C14 non d ame     -30.677  14.285  23.805  0.00  0.00     0.089 C 
ATOM      2  H20 non d ame     -29.600  14.299  23.637  0.00  0.00     0.087 H 
ENDROOT
BRANCH   1   3
ATOM      3  N4  non d ame     -31.062  12.905  24.062  0.00  0.00    -0.346 N 
ATOM      4  C10 non d ame     -30.451  11.782  23.262  0.00  0.00     0.241 C 
ATOM      5  O4  non d ame     -29.654  12.014  22.414  0.00  0.00    -0.271 OA
ATOM      6  H19 non d ame     -31.744  12.729  24.786  0.00  0.00     0.163 HD
BRANCH   4   7
ATOM      7  C9  non d ame     -30.857  10.360  23.545  0.00  0.00     0.092 C 
ATOM      8  H11 non d ame     -30.366  10.021  24.457  0.00  0.00     0.088 H 
BRANCH   7   9
ATOM      9  N3  non d ame     -32.302  10.301  23.783  0.00  0.00    -0.346 N 
ATOM     10  C7  non d ame     -32.804  10.062  25.114  0.00  0.00     0.240 C 
ATOM     11  O3  non d ame     -32.058   9.913  26.005  0.00  0.00    -0.271 OA
ATOM     12  H10 non d ame     -32.957  10.427  23.025  0.00  0.00     0.163 HD
BRANCH  10  13
ATOM     13  C6  non d ame     -34.343   9.998  25.361  0.00  0.00     0.086 C 
ATOM     14  H6  non d ame     -34.595   9.641  26.360  0.00  0.00     0.086 H 
BRANCH  13  15
ATOM     15  N2  non d ame     -34.894  11.338  25.248  0.00  0.00    -0.343 N 
ATOM     16  C5  non d ame     -35.740  11.864  26.323  0.00  0.00     0.273 C 
ATOM     17  O2  non d ame     -35.972  11.200  27.272  0.00  0.00    -0.266 OA
ATOM     18  H5  non d ame     -34.694  11.897  24.431  0.00  0.00     0.163 HD
BRANCH  16  19
ATOM     19  C4  non d ame     -36.328  13.279  26.217  0.00  0.00     0.154 A 
ATOM     20  C1  non d ame     -35.874  14.343  25.375  0.00  0.00    -0.017 A 
ATOM     21  C2  non d ame     -36.743  15.422  25.652  0.00  0.00     0.077 A 
ATOM     22  H1  non d ame     -35.041  14.335  24.672  0.00  0.00     0.091 H 
ATOM     23  O1  non d ame     -37.595  15.014  26.547  0.00  0.00    -0.218 OA
ATOM     24  N1  non d ame     -37.372  13.767  26.893  0.00  0.00    -0.123 NA
BRANCH  21  25
ATOM     25  C3  non d ame     -36.693  16.806  25.018  0.00  0.00    -0.029 C 
ATOM     26  H2  non d ame     -37.696  17.100  24.708  0.00  0.00     0.036 H 
ATOM     27  H3  non d ame     -36.313  17.525  25.744  0.00  0.00     0.036 H 
ATOM     28  H4  non d ame     -36.036  16.785  24.150  0.00  0.00     0.036 H 
ENDBRANCH  21  25
ENDBRANCH  16  19
ENDBRANCH  13  15
BRANCH  13  29
ATOM     29  C8  non d ame     -34.981   9.089  24.342  0.00  0.00    -0.049 C 
ATOM     30  H7  non d ame     -35.385   9.686  23.524  0.00  0.00     0.030 H 
ATOM     31  H8  non d ame     -34.233   8.399  23.952  0.00  0.00     0.030 H 
ATOM     32  H9  non d ame     -35.787   8.524  24.812  0.00  0.00     0.030 H 
ENDBRANCH  13  29
ENDBRANCH  10  13
ENDBRANCH   7   9
BRANCH   7  33
ATOM     33  C11 non d ame     -30.499   9.465  22.323  0.00  0.00    -0.033 C 
ATOM     34  H12 non d ame     -30.391  10.120  21.457  0.00  0.00     0.042 H 
BRANCH  33  35
ATOM     35  C12 non d ame     -29.136   8.734  22.531  0.00  0.00    -0.071 C 
ATOM     36  H13 non d ame     -29.119   7.820  21.938  0.00  0.00     0.028 H 
ATOM     37  H14 non d ame     -28.322   9.387  22.216  0.00  0.00     0.028 H 
ATOM     38  H15 non d ame     -29.015   8.485  23.586  0.00  0.00     0.028 H 
ENDBRANCH  33  35
BRANCH  33  39
ATOM     39  C13 non d ame     -31.646   8.449  22.018  0.00  0.00    -0.071 C 
ATOM     40  H16 non d ame     -32.242   8.293  22.917  0.00  0.00     0.028 H 
ATOM     41  H17 non d ame     -32.281   8.844  21.224  0.00  0.00     0.028 H 
ATOM     42  H18 non d ame     -31.215   7.500  21.698  0.00  0.00     0.028 H 
ENDBRANCH  33  39
ENDBRANCH   7  33
ENDBRANCH   4   7
ENDBRANCH   1   3
BRANCH   1  43
ATOM     43  C15 non d ame     -31.092  15.151  25.029  0.00  0.00     0.240 C 
ATOM     44  O5  non d ame     -30.724  16.278  25.107  0.00  0.00    -0.271 OA
ATOM     45  N6  non d ame     -31.956  14.577  26.100  0.00  0.00    -0.355 N 
ATOM     46  H46 non d ame     -32.279  13.622  26.041  0.00  0.00     0.162 HD
BRANCH  45  47
ATOM     47  C20 non d ame     -32.343  15.414  27.256  0.00  0.00     0.013 C 
ATOM     48  H30 non d ame     -31.434  15.837  27.684  0.00  0.00     0.072 H 
BRANCH  47  49
ATOM     49  C21 non d ame     -33.045  14.553  28.283  0.00  0.00    -0.038 C 
ATOM     50  H31 non d ame     -32.491  14.694  29.213  0.00  0.00     0.036 H 
ATOM     51  H32 non d ame     -34.097  14.828  28.228  0.00  0.00     0.036 H 
BRANCH  49  52
ATOM     52  C22 non d ame     -32.968  13.047  27.955  0.00  0.00     0.018 C 
ATOM     53  H33 non d ame     -33.892  12.614  28.336  0.00  0.00     0.048 H 
ATOM     54  H34 non d ame     -32.738  12.988  26.890  0.00  0.00     0.048 H 
BRANCH  52  55
ATOM     55  C23 non d ame     -31.815  12.304  28.684  0.00  0.00     0.259 C 
ATOM     56  O7  non d ame     -30.690  12.434  28.322  0.00  0.00    -0.265 OA
BRANCH  55  57
ATOM     57  O8  non d ame     -32.118  11.453  29.782  0.00  0.00    -0.317 OA
BRANCH  57  58
ATOM     58  C29 non d ame     -32.941  10.333  29.441  0.00  0.00     0.052 C 
ATOM     59  H47 non d ame     -33.551  10.662  28.600  0.00  0.00     0.082 H 
ATOM     60  H48 non d ame     -32.259   9.491  29.324  0.00  0.00     0.082 H 
BRANCH  58  61
ATOM     61  C35 non d ame     -33.879  10.043  30.643  0.00  0.00    -0.034 A 
ATOM     62  C30 non d ame     -34.447   8.782  30.794  0.00  0.00    -0.075 A 
ATOM     63  C31 non d ame     -35.290   8.521  31.874  0.00  0.00    -0.082 A 
ATOM     64  H49 non d ame     -34.234   7.999  30.067  0.00  0.00     0.084 H 
ATOM     65  C32 non d ame     -35.565   9.528  32.804  0.00  0.00    -0.083 A 
ATOM     66  H50 non d ame     -35.733   7.531  31.990  0.00  0.00     0.083 H 
ATOM     67  C33 non d ame     -34.998  10.785  32.647  0.00  0.00    -0.082 A 
ATOM     68  H51 non d ame     -36.222   9.331  33.651  0.00  0.00     0.083 H 
ATOM     69  C34 non d ame     -34.153  11.049  31.570  0.00  0.00    -0.075 A 
ATOM     70  H52 non d ame     -35.215  11.569  33.373  0.00  0.00     0.083 H 
ATOM     71  H53 non d ame     -33.711  12.039  31.455  0.00  0.00     0.084 H 
ENDBRANCH  58  61
ENDBRANCH  57  58
ENDBRANCH  55  57
ENDBRANCH  52  55
ENDBRANCH  49  52
ENDBRANCH  47  49
BRANCH  47  72
ATOM     72  C24 non d ame     -33.282  16.528  26.798  0.00  0.00    -0.039 C 
ATOM     73  H35 non d ame     -32.758  17.031  25.984  0.00  0.00     0.036 H 
ATOM     74  H36 non d ame     -34.239  16.042  26.610  0.00  0.00     0.036 H 
BRANCH  72  75
ATOM     75  C25 non d ame     -33.521  17.614  27.951  0.00  0.00    -0.001 C 
ATOM     76  C26 non d ame     -35.123  17.966  28.063  0.00  0.00    -0.035 C 
ATOM     77  C27 non d ame     -35.279  19.311  28.018  0.00  0.00     0.085 C 
ATOM     78  H38 non d ame     -35.646  17.618  27.173  0.00  0.00     0.036 H 
ATOM     79  H39 non d ame     -35.495  17.700  29.053  0.00  0.00     0.036 H 
ATOM     80  N5  non d ame     -33.965  19.892  27.556  0.00  0.00    -0.049 N 
ATOM     81  H40 non d ame     -36.036  19.491  27.254  0.00  0.00     0.075 H 
ATOM     82  H41 non d ame     -35.460  19.618  29.048  0.00  0.00     0.075 H 
ATOM     83  C28 non d ame     -32.878  18.707  27.704  0.00  0.00     0.193 C 
ATOM     84  H42 non d ame     -34.075  20.106  26.575  0.00  0.00     0.280 HD
ATOM     85  H43 non d ame     -33.731  20.626  28.209  0.00  0.00     0.280 HD
ATOM     86  H44 non d ame     -32.167  18.708  28.529  0.00  0.00     0.129 H 
ATOM     87  H37 non d ame     -33.003  17.357  28.874  0.00  0.00     0.046 H 
BRANCH  83  88
ATOM     88  O6  non d ame     -32.088  18.611  26.518  0.00  0.00    -0.369 OA
ATOM     89  H45 non d ame     -31.817  17.700  26.386  0.00  0.00     0.212 HD
ENDBRANCH  83  88
ENDBRANCH  72  75
ENDBRANCH  47  72
ENDBRANCH  45  47
ENDBRANCH   1  43
BRANCH   1  90
ATOM     90  C16 non d ame     -31.400  14.778  22.562  0.00  0.00    -0.035 C 
ATOM     91  H21 non d ame     -31.689  13.878  22.020  0.00  0.00     0.037 H 
ATOM     92  H22 non d ame     -32.164  15.464  22.925  0.00  0.00     0.037 H 
BRANCH  90  93
ATOM     93  C17 non d ame     -30.491  15.601  21.594  0.00  0.00    -0.059 C 
ATOM     94  H23 non d ame     -30.801  16.644  21.655  0.00  0.00     0.038 H 
BRANCH  93  95
ATOM     95  C18 non d ame     -28.983  15.528  21.996  0.00  0.00    -0.073 C 
ATOM     96  H24 non d ame     -28.734  14.508  22.288  0.00  0.00     0.028 H 
ATOM     97  H25 non d ame     -28.366  15.822  21.147  0.00  0.00     0.028 H 
ATOM     98  H26 non d ame     -28.796  16.201  22.832  0.00  0.00     0.028 H 
ENDBRANCH  93  95
BRANCH  93  99
ATOM     99  C19 non d ame     -30.690  15.153  20.144  0.00  0.00    -0.073 C 
ATOM    100  H27 non d ame     -29.728  15.145  19.630  0.00  0.00     0.028 H 
ATOM    101  H28 non d ame     -31.116  14.149  20.128  0.00  0.00     0.028 H 
ATOM    102  H29 non d ame     -31.367  15.842  19.640  0.00  0.00     0.028 H 
ENDBRANCH  93  99
ENDBRANCH  90  93
ENDBRANCH   1  90
TORSDOF 26
ENDMDL
MODEL 2
REMARK VINA RESULT:      -7.4      3.312      6.521
REMARK  26 active torsions:
REMARK  status: ('A' for Active; 'I' for Inactive)
REMARK    1  A    between atoms: C2_2  and  C3_3 
REMARK    2  A    between atoms: C4_6  and  C5_7 
REMARK       I    between atoms: C5_7  and  N2_9 
REMARK    3  A    between atoms: N2_9  and  C6_10 
REMARK    4  A    between atoms: C6_10  and  C7_11 
REMARK    5  A    between atoms: C6_10  and  C8_13 
REMARK       I    between atoms: C7_11  and  N3_14 
REMARK    6  A    between atoms: N3_14  and  C9_15 
REMARK    7  A    between atoms: C9_15  and  C10_16 
REMARK    8  A    between atoms: C9_15  and  C11_18 
REMARK       I    between atoms: C10_16  and  N4_21 
REMARK    9  A    between atoms: C11_18  and  C12_19 
REMARK   10  A    between atoms: C11_18  and  C13_20 
REMARK   11  A    between atoms: N4_21  and  C14_22 
REMARK   12  A    between atoms: C14_22  and  C15_23 
REMARK   13  A    between atoms: C14_22  and  C16_25 
REMARK       I    between atoms: C15_23  and  N6_40 
REMARK   14  A    between atoms: C16_25  and  C17_26 
REMARK   15  A    between atoms: C17_26  and  C18_27 
REMARK   16  A    between atoms: C17_26  and  C19_28 
REMARK   17  A    between atoms: C20_29  and  C21_30 
REMARK   18  A    between atoms: C20_29  and  C24_33 
REMARK   19  A    between atoms: C20_29  and  N6_40 
REMARK   20  A    between atoms: C21_30  and  C22_31 
REMARK   21  A    between atoms: C22_31  and  C23_32 
REMARK   22  A    between atoms: C23_32  and  O8_43 
REMARK   23  A    between atoms: C24_33  and  C25_34 
REMARK   24  A    between atoms: C28_38  and  O6_39 
REMARK   25  A    between atoms: C29_42  and  O8_43 
REMARK   26  A    between atoms: C29_42  and  C35_49 
ROOT
ATOM      1  C14 non d ame     -32.931  10.440  25.614  0.00  0.00     0.089 C 
ATOM      2  H20 non d ame     -33.652  10.523  24.801  0.00  0.00     0.087 H 
ENDROOT
BRANCH   1   3
ATOM      3  N4  non d ame     -32.372   9.098  25.568  0.00  0.00    -0.346 N 
ATOM      4  C10 non d ame     -33.085   8.000  24.818  0.00  0.00     0.241 C 
ATOM      5  O4  non d ame     -34.111   8.221  24.264  0.00  0.00    -0.271 OA
ATOM      6  H19 non d ame     -31.499   8.930  26.048  0.00  0.00     0.163 HD
BRANCH   4   7
ATOM      7  C9  non d ame     -32.488   6.618  24.776  0.00  0.00     0.092 C 
ATOM      8  H11 non d ame     -31.423   6.681  25.001  0.00  0.00     0.088 H 
BRANCH   7   9
ATOM      9  N3  non d ame     -33.103   5.787  25.814  0.00  0.00    -0.346 N 
ATOM     10  C7  non d ame     -32.651   5.887  27.180  0.00  0.00     0.240 C 
ATOM     11  O3  non d ame     -31.792   6.631  27.460  0.00  0.00    -0.271 OA
ATOM     12  H10 non d ame     -33.844   5.140  25.587  0.00  0.00     0.163 HD
BRANCH  10  13
ATOM     13  C6  non d ame     -33.308   4.997  28.280  0.00  0.00     0.086 C 
ATOM     14  H6  non d ame     -32.675   4.878  29.159  0.00  0.00     0.086 H 
BRANCH  13  15
ATOM     15  N2  non d ame     -34.532   5.636  28.734  0.00  0.00    -0.343 N 
ATOM     16  C5  non d ame     -34.916   5.540  30.145  0.00  0.00     0.273 C 
ATOM     17  O2  non d ame     -34.235   4.944  30.905  0.00  0.00    -0.266 OA
ATOM     18  H5  non d ame     -35.110   6.140  28.077  0.00  0.00     0.163 HD
BRANCH  16  19
ATOM     19  C4  non d ame     -36.206   6.212  30.638  0.00  0.00     0.154 A 
ATOM     20  C1  non d ame     -36.486   7.614  30.691  0.00  0.00    -0.017 A 
ATOM     21  C2  non d ame     -37.794   7.705  31.217  0.00  0.00     0.077 A 
ATOM     22  H1  non d ame     -35.838   8.440  30.396  0.00  0.00     0.091 H 
ATOM     23  O1  non d ame     -38.209   6.491  31.434  0.00  0.00    -0.218 OA
ATOM     24  N1  non d ame     -37.300   5.603  31.104  0.00  0.00    -0.123 NA
BRANCH  21  25
ATOM     25  C3  non d ame     -38.573   8.987  31.479  0.00  0.00    -0.029 C 
ATOM     26  H2  non d ame     -39.591   8.739  31.782  0.00  0.00     0.036 H 
ATOM     27  H3  non d ame     -38.086   9.553  32.273  0.00  0.00     0.036 H 
ATOM     28  H4  non d ame     -38.602   9.587  30.570  0.00  0.00     0.036 H 
ENDBRANCH  21  25
ENDBRANCH  16  19
ENDBRANCH  13  15
BRANCH  13  29
ATOM     29  C8  non d ame     -33.617   3.635  27.711  0.00  0.00    -0.049 C 
ATOM     30  H7  non d ame     -32.707   3.199  27.300  0.00  0.00     0.030 H 
ATOM     31  H8  non d ame     -34.003   2.991  28.502  0.00  0.00     0.030 H 
ATOM     32  H9  non d ame     -34.363   3.732  26.923  0.00  0.00     0.030 H 
ENDBRANCH  13  29
ENDBRANCH  10  13
ENDBRANCH   7   9
BRANCH   7  33
ATOM     33  C11 non d ame     -32.753   5.982  23.380  0.00  0.00    -0.033 C 
ATOM     34  H12 non d ame     -33.586   6.521  22.927  0.00  0.00     0.042 H 
BRANCH  33  35
ATOM     35  C12 non d ame     -31.521   6.144  22.437  0.00  0.00    -0.071 C 
ATOM     36  H13 non d ame     -30.824   6.861  22.870  0.00  0.00     0.028 H 
ATOM     37  H14 non d ame     -31.025   5.181  22.319  0.00  0.00     0.028 H 
ATOM     38  H15 non d ame     -31.853   6.504  21.463  0.00  0.00     0.028 H 
ENDBRANCH  33  35
BRANCH  33  39
ATOM     39  C13 non d ame     -33.167   4.482  23.518  0.00  0.00    -0.071 C 
ATOM     40  H16 non d ame     -34.009   4.274  22.857  0.00  0.00     0.028 H 
ATOM     41  H17 non d ame     -32.325   3.845  23.246  0.00  0.00     0.028 H 
ATOM     42  H18 non d ame     -33.456   4.278  24.549  0.00  0.00     0.028 H 
ENDBRANCH  33  39
ENDBRANCH   7  33
ENDBRANCH   4   7
ENDBRANCH   1   3
BRANCH   1  43
ATOM     43  C15 non d ame     -31.770  11.466  25.479  0.00  0.00     0.240 C 
ATOM     44  O5  non d ame     -30.681  11.180  25.859  0.00  0.00    -0.271 OA
ATOM     45  N6  non d ame     -32.013  12.802  24.865  0.00  0.00    -0.355 N 
ATOM     46  H46 non d ame     -32.934  13.055  24.533  0.00  0.00     0.162 HD
BRANCH  45  47
ATOM     47  C20 non d ame     -30.899  13.767  24.741  0.00  0.00     0.013 C 
ATOM     48  H30 non d ame     -30.090  13.429  25.390  0.00  0.00     0.072 H 
BRANCH  47  49
ATOM     49  C21 non d ame     -31.372  15.136  25.175  0.00  0.00    -0.038 C 
ATOM     50  H31 non d ame     -30.893  15.322  26.137  0.00  0.00     0.036 H 
ATOM     51  H32 non d ame     -31.174  15.796  24.331  0.00  0.00     0.036 H 
BRANCH  49  52
ATOM     52  C22 non d ame     -32.894  15.193  25.426  0.00  0.00     0.018 C 
ATOM     53  H33 non d ame     -33.323  15.655  24.539  0.00  0.00     0.048 H 
ATOM     54  H34 non d ame     -33.184  14.179  25.707  0.00  0.00     0.048 H 
BRANCH  52  55
ATOM     55  C23 non d ame     -33.298  16.099  26.621  0.00  0.00     0.259 C 
ATOM     56  O7  non d ame     -33.697  17.203  26.434  0.00  0.00    -0.265 OA
BRANCH  55  57
ATOM     57  O8  non d ame     -33.172  15.601  27.948  0.00  0.00    -0.317 OA
BRANCH  57  58
ATOM     58  C29 non d ame     -33.656  14.265  28.116  0.00  0.00     0.052 C 
ATOM     59  H47 non d ame     -34.566  14.353  28.709  0.00  0.00     0.082 H 
ATOM     60  H48 non d ame     -33.696  13.838  27.114  0.00  0.00     0.082 H 
BRANCH  58  61
ATOM     61  C35 non d ame     -32.605  13.476  28.943  0.00  0.00    -0.034 A 
ATOM     62  C30 non d ame     -33.000  12.767  30.073  0.00  0.00    -0.075 A 
ATOM     63  C31 non d ame     -32.056  12.058  30.817  0.00  0.00    -0.082 A 
ATOM     64  H49 non d ame     -34.046  12.767  30.378  0.00  0.00     0.084 H 
ATOM     65  C32 non d ame     -30.714  12.062  30.427  0.00  0.00    -0.083 A 
ATOM     66  H50 non d ame     -32.368  11.503  31.702  0.00  0.00     0.083 H 
ATOM     67  C33 non d ame     -30.326  12.774  29.300  0.00  0.00    -0.082 A 
ATOM     68  H51 non d ame     -29.971  11.510  31.002  0.00  0.00     0.083 H 
ATOM     69  C34 non d ame     -31.265  13.481  28.553  0.00  0.00    -0.075 A 
ATOM     70  H52 non d ame     -29.277  12.777  28.999  0.00  0.00     0.083 H 
ATOM     71  H53 non d ame     -30.952  14.037  27.669  0.00  0.00     0.084 H 
ENDBRANCH  58  61
ENDBRANCH  57  58
ENDBRANCH  55  57
ENDBRANCH  52  55
ENDBRANCH  49  52
ENDBRANCH  47  49
BRANCH  47  72
ATOM     72  C24 non d ame     -30.425  13.826  23.291  0.00  0.00    -0.039 C 
ATOM     73  H35 non d ame     -29.455  13.327  23.283  0.00  0.00     0.036 H 
ATOM     74  H36 non d ame     -31.248  13.425  22.700  0.00  0.00     0.036 H 
BRANCH  72  75
ATOM     75  C25 non d ame     -30.186  15.334  22.806  0.00  0.00    -0.001 C 
ATOM     76  C26 non d ame     -31.283  15.729  21.648  0.00  0.00    -0.035 C 
ATOM     77  C27 non d ame     -30.626  16.240  20.580  0.00  0.00     0.085 C 
ATOM     78  H38 non d ame     -31.752  14.828  21.253  0.00  0.00     0.036 H 
ATOM     79  H39 non d ame     -31.901  16.561  21.988  0.00  0.00     0.036 H 
ATOM     80  N5  non d ame     -29.162  15.926  20.770  0.00  0.00    -0.049 N 
ATOM     81  H40 non d ame     -30.999  15.687  19.716  0.00  0.00     0.075 H 
ATOM     82  H41 non d ame     -30.768  17.319  20.638  0.00  0.00     0.075 H 
ATOM     83  C28 non d ame     -29.000  15.484  22.315  0.00  0.00     0.193 C 
ATOM     84  H42 non d ame     -28.961  15.128  20.185  0.00  0.00     0.280 HD
ATOM     85  H43 non d ame     -28.663  16.793  20.630  0.00  0.00     0.280 HD
ATOM     86  H44 non d ame     -28.570  16.169  23.044  0.00  0.00     0.129 H 
ATOM     87  H37 non d ame     -30.075  16.024  23.642  0.00  0.00     0.046 H 
BRANCH  83  88
ATOM     88  O6  non d ame     -28.222  14.289  22.407  0.00  0.00    -0.369 OA
ATOM     89  H45 non d ame     -28.683  13.649  22.955  0.00  0.00     0.212 HD
ENDBRANCH  83  88
ENDBRANCH  72  75
ENDBRANCH  47  72
ENDBRANCH  45  47
ENDBRANCH   1  43
BRANCH   1  90
ATOM     90  C16 non d ame     -33.635  10.638  26.948  0.00  0.00    -0.035 C 
ATOM     91  H21 non d ame     -32.895  11.102  27.599  0.00  0.00     0.037 H 
ATOM     92  H22 non d ame     -34.559  11.165  26.711  0.00  0.00     0.037 H 
BRANCH  90  93
ATOM     93  C17 non d ame     -34.054   9.302  27.639  0.00  0.00    -0.059 C 
ATOM     94  H23 non d ame     -33.565   8.486  27.108  0.00  0.00     0.038 H 
BRANCH  93  95
ATOM     95  C18 non d ame     -33.596   9.242  29.131  0.00  0.00    -0.073 C 
ATOM     96  H24 non d ame     -34.371   9.669  29.767  0.00  0.00     0.028 H 
ATOM     97  H25 non d ame     -33.424   8.204  29.418  0.00  0.00     0.028 H 
ATOM     98  H26 non d ame     -32.673   9.809  29.252  0.00  0.00     0.028 H 
ENDBRANCH  93  95
BRANCH  93  99
ATOM     99  C19 non d ame     -35.564   9.077  27.525  0.00  0.00    -0.073 C 
ATOM    100  H27 non d ame     -35.759   8.033  27.277  0.00  0.00     0.028 H 
ATOM    101  H28 non d ame     -36.041   9.319  28.475  0.00  0.00     0.028 H 
ATOM    102  H29 non d ame     -35.969   9.719  26.743  0.00  0.00     0.028 H 
ENDBRANCH  93  99
ENDBRANCH  90  93
ENDBRANCH   1  90
TORSDOF 26
ENDMDL
MODEL 3
REMARK VINA RESULT:      -7.3      2.487      5.476
REMARK  26 active torsions:
REMARK  status: ('A' for Active; 'I' for Inactive)
REMARK    1  A    between atoms: C2_2  and  C3_3 
REMARK    2  A    between atoms: C4_6  and  C5_7 
REMARK       I    between atoms: C5_7  and  N2_9 
REMARK    3  A    between atoms: N2_9  and  C6_10 
REMARK    4  A    between atoms: C6_10  and  C7_11 
REMARK    5  A    between atoms: C6_10  and  C8_13 
REMARK       I    between atoms: C7_11  and  N3_14 
REMARK    6  A    between atoms: N3_14  and  C9_15 
REMARK    7  A    between atoms: C9_15  and  C10_16 
REMARK    8  A    between atoms: C9_15  and  C11_18 
REMARK       I    between atoms: C10_16  and  N4_21 
REMARK    9  A    between atoms: C11_18  and  C12_19 
REMARK   10  A    between atoms: C11_18  and  C13_20 
REMARK   11  A    between atoms: N4_21  and  C14_22 
REMARK   12  A    between atoms: C14_22  and  C15_23 
REMARK   13  A    between atoms: C14_22  and  C16_25 
REMARK       I    between atoms: C15_23  and  N6_40 
REMARK   14  A    between atoms: C16_25  and  C17_26 
REMARK   15  A    between atoms: C17_26  and  C18_27 
REMARK   16  A    between atoms: C17_26  and  C19_28 
REMARK   17  A    between atoms: C20_29  and  C21_30 
REMARK   18  A    between atoms: C20_29  and  C24_33 
REMARK   19  A    between atoms: C20_29  and  N6_40 
REMARK   20  A    between atoms: C21_30  and  C22_31 
REMARK   21  A    between atoms: C22_31  and  C23_32 
REMARK   22  A    between atoms: C23_32  and  O8_43 
REMARK   23  A    between atoms: C24_33  and  C25_34 
REMARK   24  A    between atoms: C28_38  and  O6_39 
REMARK   25  A    between atoms: C29_42  and  O8_43 
REMARK   26  A    between atoms: C29_42  and  C35_49 
ROOT
ATOM      1  C14 non d ame     -32.828  10.127  26.562  0.00  0.00     0.089 C 
ATOM      2  H20 non d ame     -33.592  10.585  25.933  0.00  0.00     0.087 H 
ENDROOT
BRANCH   1   3
ATOM      3  N4  non d ame     -32.177   9.090  25.774  0.00  0.00    -0.346 N 
ATOM      4  C10 non d ame     -32.991   8.192  24.876  0.00  0.00     0.241 C 
ATOM      5  O4  non d ame     -34.168   8.321  24.806  0.00  0.00    -0.271 OA
ATOM      6  H19 non d ame     -31.174   8.996  25.850  0.00  0.00     0.163 HD
BRANCH   4   7
ATOM      7  C9  non d ame     -32.300   7.129  24.064  0.00  0.00     0.092 C 
ATOM      8  H11 non d ame     -32.883   6.927  23.165  0.00  0.00     0.088 H 
BRANCH   7   9
ATOM      9  N3  non d ame     -30.989   7.619  23.629  0.00  0.00    -0.346 N 
ATOM     10  C7  non d ame     -30.796   8.048  22.265  0.00  0.00     0.240 C 
ATOM     11  O3  non d ame     -31.685   8.002  21.504  0.00  0.00    -0.271 OA
ATOM     12  H10 non d ame     -30.213   7.663  24.273  0.00  0.00     0.163 HD
BRANCH  10  13
ATOM     13  C6  non d ame     -29.398   8.566  21.807  0.00  0.00     0.086 C 
ATOM     14  H6  non d ame     -29.094   8.162  20.842  0.00  0.00     0.086 H 
BRANCH  13  15
ATOM     15  N2  non d ame     -29.459  10.010  21.652  0.00  0.00    -0.343 N 
ATOM     16  C5  non d ame     -29.919  10.837  22.771  0.00  0.00     0.273 C 
ATOM     17  O2  non d ame     -30.240  10.331  23.789  0.00  0.00    -0.266 OA
ATOM     18  H5  non d ame     -29.186  10.434  20.777  0.00  0.00     0.163 HD
BRANCH  16  19
ATOM     19  C4  non d ame     -29.987  12.365  22.621  0.00  0.00     0.154 A 
ATOM     20  C1  non d ame     -30.741  13.279  23.422  0.00  0.00    -0.017 A 
ATOM     21  C2  non d ame     -30.463  14.554  22.879  0.00  0.00     0.077 A 
ATOM     22  H1  non d ame     -31.391  13.054  24.267  0.00  0.00     0.091 H 
ATOM     23  O1  non d ame     -29.642  14.380  21.885  0.00  0.00    -0.218 OA
ATOM     24  N1  non d ame     -29.351  13.111  21.714  0.00  0.00    -0.123 NA
BRANCH  21  25
ATOM     25  C3  non d ame     -31.020  15.884  23.369  0.00  0.00    -0.029 C 
ATOM     26  H2  non d ame     -30.942  16.626  22.574  0.00  0.00     0.036 H 
ATOM     27  H3  non d ame     -32.066  15.759  23.647  0.00  0.00     0.036 H 
ATOM     28  H4  non d ame     -30.451  16.219  24.235  0.00  0.00     0.036 H 
ENDBRANCH  21  25
ENDBRANCH  16  19
ENDBRANCH  13  15
BRANCH  13  29
ATOM     29  C8  non d ame     -28.360   8.201  22.838  0.00  0.00    -0.049 C 
ATOM     30  H7  non d ame     -28.745   8.420  23.834  0.00  0.00     0.030 H 
ATOM     31  H8  non d ame     -28.133   7.137  22.763  0.00  0.00     0.030 H 
ATOM     32  H9  non d ame     -27.454   8.780  22.663  0.00  0.00     0.030 H 
ENDBRANCH  13  29
ENDBRANCH  10  13
ENDBRANCH   7   9
BRANCH   7  33
ATOM     33  C11 non d ame     -32.110   5.853  24.935  0.00  0.00    -0.033 C 
ATOM     34  H12 non d ame     -31.136   5.429  24.688  0.00  0.00     0.042 H 
BRANCH  33  35
ATOM     35  C12 non d ame     -32.100   6.199  26.457  0.00  0.00    -0.071 C 
ATOM     36  H13 non d ame     -32.426   7.229  26.598  0.00  0.00     0.028 H 
ATOM     37  H14 non d ame     -32.776   5.528  26.986  0.00  0.00     0.028 H 
ATOM     38  H15 non d ame     -31.090   6.081  26.850  0.00  0.00     0.028 H 
ENDBRANCH  33  35
BRANCH  33  39
ATOM     39  C13 non d ame     -33.200   4.783  24.605  0.00  0.00    -0.071 C 
ATOM     40  H16 non d ame     -32.933   4.264  23.684  0.00  0.00     0.028 H 
ATOM     41  H17 non d ame     -33.264   4.064  25.422  0.00  0.00     0.028 H 
ATOM     42  H18 non d ame     -34.165   5.274  24.479  0.00  0.00     0.028 H 
ENDBRANCH  33  39
ENDBRANCH   7  33
ENDBRANCH   4   7
ENDBRANCH   1   3
BRANCH   1  43
ATOM     43  C15 non d ame     -31.751  11.151  27.018  0.00  0.00     0.240 C 
ATOM     44  O5  non d ame     -30.795  11.346  26.340  0.00  0.00    -0.271 OA
ATOM     45  N6  non d ame     -31.915  11.898  28.298  0.00  0.00    -0.355 N 
ATOM     46  H46 non d ame     -32.727  11.745  28.880  0.00  0.00     0.162 HD
BRANCH  45  47
ATOM     47  C20 non d ame     -30.883  12.871  28.718  0.00  0.00     0.013 C 
ATOM     48  H30 non d ame     -29.933  12.559  28.285  0.00  0.00     0.072 H 
BRANCH  47  49
ATOM     49  C21 non d ame     -30.787  12.877  30.227  0.00  0.00    -0.038 C 
ATOM     50  H31 non d ame     -29.721  12.945  30.453  0.00  0.00     0.036 H 
ATOM     51  H32 non d ame     -31.466  13.660  30.562  0.00  0.00     0.036 H 
BRANCH  49  52
ATOM     52  C22 non d ame     -31.285  11.563  30.864  0.00  0.00     0.018 C 
ATOM     53  H33 non d ame     -31.024  10.775  30.160  0.00  0.00     0.048 H 
ATOM     54  H34 non d ame     -30.872  11.550  31.874  0.00  0.00     0.048 H 
BRANCH  52  55
ATOM     55  C23 non d ame     -32.828  11.493  31.033  0.00  0.00     0.259 C 
ATOM     56  O7  non d ame     -33.499  12.457  30.851  0.00  0.00    -0.265 OA
BRANCH  55  57
ATOM     57  O8  non d ame     -33.432  10.265  31.423  0.00  0.00    -0.317 OA
BRANCH  57  58
ATOM     58  C29 non d ame     -34.747  10.412  31.969  0.00  0.00     0.052 C 
ATOM     59  H47 non d ame     -34.612  10.465  33.049  0.00  0.00     0.082 H 
ATOM     60  H48 non d ame     -35.197  11.247  31.433  0.00  0.00     0.082 H 
BRANCH  58  61
ATOM     61  C35 non d ame     -35.550   9.126  31.636  0.00  0.00    -0.034 A 
ATOM     62  C30 non d ame     -36.939   9.169  31.575  0.00  0.00    -0.075 A 
ATOM     63  C31 non d ame     -37.661   8.013  31.277  0.00  0.00    -0.082 A 
ATOM     64  H49 non d ame     -37.463  10.106  31.762  0.00  0.00     0.084 H 
ATOM     65  C32 non d ame     -36.987   6.811  31.042  0.00  0.00    -0.083 A 
ATOM     66  H50 non d ame     -38.749   8.050  31.228  0.00  0.00     0.083 H 
ATOM     67  C33 non d ame     -35.601   6.773  31.107  0.00  0.00    -0.082 A 
ATOM     68  H51 non d ame     -37.544   5.904  30.807  0.00  0.00     0.083 H 
ATOM     69  C34 non d ame     -34.876   7.926  31.403  0.00  0.00    -0.075 A 
ATOM     70  H52 non d ame     -35.079   5.833  30.925  0.00  0.00     0.083 H 
ATOM     71  H53 non d ame     -33.788   7.887  31.451  0.00  0.00     0.084 H 
ENDBRANCH  58  61
ENDBRANCH  57  58
ENDBRANCH  55  57
ENDBRANCH  52  55
ENDBRANCH  49  52
ENDBRANCH  47  49
BRANCH  47  72
ATOM     72  C24 non d ame     -31.258  14.267  28.225  0.00  0.00    -0.039 C 
ATOM     73  H35 non d ame     -30.986  14.943  29.037  0.00  0.00     0.036 H 
ATOM     74  H36 non d ame     -30.781  14.368  27.250  0.00  0.00     0.036 H 
BRANCH  72  75
ATOM     75  C25 non d ame     -32.836  14.412  27.997  0.00  0.00    -0.001 C 
ATOM     76  C26 non d ame     -33.142  14.784  26.425  0.00  0.00    -0.035 C 
ATOM     77  C27 non d ame     -33.953  15.869  26.382  0.00  0.00     0.085 C 
ATOM     78  H38 non d ame     -32.230  15.127  25.937  0.00  0.00     0.036 H 
ATOM     79  H39 non d ame     -33.744  13.999  25.965  0.00  0.00     0.036 H 
ATOM     80  N5  non d ame     -33.961  16.468  27.768  0.00  0.00    -0.049 N 
ATOM     81  H40 non d ame     -33.470  16.566  25.697  0.00  0.00     0.075 H 
ATOM     82  H41 non d ame     -34.946  15.482  26.157  0.00  0.00     0.075 H 
ATOM     83  C28 non d ame     -33.333  15.343  28.742  0.00  0.00     0.193 C 
ATOM     84  H42 non d ame     -33.333  17.258  27.743  0.00  0.00     0.280 HD
ATOM     85  H43 non d ame     -34.931  16.602  28.015  0.00  0.00     0.280 HD
ATOM     86  H44 non d ame     -33.977  14.753  29.393  0.00  0.00     0.129 H 
ATOM     87  H37 non d ame     -33.394  13.581  28.427  0.00  0.00     0.046 H 
BRANCH  83  88
ATOM     88  O6  non d ame     -32.352  15.927  29.601  0.00  0.00    -0.369 OA
ATOM     89  H45 non d ame     -32.790  16.415  30.302  0.00  0.00     0.212 HD
ENDBRANCH  83  88
ENDBRANCH  72  75
ENDBRANCH  47  72
ENDBRANCH  45  47
ENDBRANCH   1  43
BRANCH   1  90
ATOM     90  C16 non d ame     -33.477   9.490  27.780  0.00  0.00    -0.035 C 
ATOM     91  H21 non d ame     -33.526   8.425  27.558  0.00  0.00     0.037 H 
ATOM     92  H22 non d ame     -32.897   9.842  28.633  0.00  0.00     0.037 H 
BRANCH  90  93
ATOM     93  C17 non d ame     -34.948   9.957  28.023  0.00  0.00    -0.059 C 
ATOM     94  H23 non d ame     -35.021  10.299  29.055  0.00  0.00     0.038 H 
BRANCH  93  95
ATOM     95  C18 non d ame     -35.348  11.149  27.096  0.00  0.00    -0.073 C 
ATOM     96  H24 non d ame     -35.388  12.067  27.681  0.00  0.00     0.028 H 
ATOM     97  H25 non d ame     -34.607  11.257  26.303  0.00  0.00     0.028 H 
ATOM     98  H26 non d ame     -36.325  10.955  26.656  0.00  0.00     0.028 H 
ENDBRANCH  93  95
BRANCH  93  99
ATOM     99  C19 non d ame     -35.925   8.789  27.861  0.00  0.00    -0.073 C 
ATOM    100  H27 non d ame     -35.417   7.854  28.097  0.00  0.00     0.028 H 
ATOM    101  H28 non d ame     -36.768   8.924  28.538  0.00  0.00     0.028 H 
ATOM    102  H29 non d ame     -36.287   8.758  26.834  0.00  0.00     0.028 H 
ENDBRANCH  93  99
ENDBRANCH  90  93
ENDBRANCH   1  90
TORSDOF 26
ENDMDL
MODEL 4
REMARK VINA RESULT:      -7.2      2.630      7.256
REMARK  26 active torsions:
REMARK  status: ('A' for Active; 'I' for Inactive)
REMARK    1  A    between atoms: C2_2  and  C3_3 
REMARK    2  A    between atoms: C4_6  and  C5_7 
REMARK       I    between atoms: C5_7  and  N2_9 
REMARK    3  A    between atoms: N2_9  and  C6_10 
REMARK    4  A    between atoms: C6_10  and  C7_11 
REMARK    5  A    between atoms: C6_10  and  C8_13 
REMARK       I    between atoms: C7_11  and  N3_14 
REMARK    6  A    between atoms: N3_14  and  C9_15 
REMARK    7  A    between atoms: C9_15  and  C10_16 
REMARK    8  A    between atoms: C9_15  and  C11_18 
REMARK       I    between atoms: C10_16  and  N4_21 
REMARK    9  A    between atoms: C11_18  and  C12_19 
REMARK   10  A    between atoms: C11_18  and  C13_20 
REMARK   11  A    between atoms: N4_21  and  C14_22 
REMARK   12  A    between atoms: C14_22  and  C15_23 
REMARK   13  A    between atoms: C14_22  and  C16_25 
REMARK       I    between atoms: C15_23  and  N6_40 
REMARK   14  A    between atoms: C16_25  and  C17_26 
REMARK   15  A    between atoms: C17_26  and  C18_27 
REMARK   16  A    between atoms: C17_26  and  C19_28 
REMARK   17  A    between atoms: C20_29  and  C21_30 
REMARK   18  A    between atoms: C20_29  and  C24_33 
REMARK   19  A    between atoms: C20_29  and  N6_40 
REMARK   20  A    between atoms: C21_30  and  C22_31 
REMARK   21  A    between atoms: C22_31  and  C23_32 
REMARK   22  A    between atoms: C23_32  and  O8_43 
REMARK   23  A    between atoms: C24_33  and  C25_34 
REMARK   24  A    between atoms: C28_38  and  O6_39 
REMARK   25  A    between atoms: C29_42  and  O8_43 
REMARK   26  A    between atoms: C29_42  and  C35_49 
ROOT
ATOM      1  C14 non d ame     -35.295  14.129  26.303  0.00  0.00     0.089 C 
ATOM      2  H20 non d ame     -35.709  14.617  27.187  0.00  0.00     0.087 H 
ENDROOT
BRANCH   1   3
ATOM      3  N4  non d ame     -34.225  14.975  25.797  0.00  0.00    -0.346 N 
ATOM      4  C10 non d ame     -33.586  16.011  26.688  0.00  0.00     0.241 C 
ATOM      5  O4  non d ame     -33.953  16.148  27.808  0.00  0.00    -0.271 OA
ATOM      6  H19 non d ame     -33.928  14.844  24.840  0.00  0.00     0.163 HD
BRANCH   4   7
ATOM      7  C9  non d ame     -32.475  16.873  26.149  0.00  0.00     0.092 C 
ATOM      8  H11 non d ame     -31.639  16.860  26.848  0.00  0.00     0.088 H 
BRANCH   7   9
ATOM      9  N3  non d ame     -31.992  16.315  24.884  0.00  0.00    -0.346 N 
ATOM     10  C7  non d ame     -31.200  15.109  24.884  0.00  0.00     0.240 C 
ATOM     11  O3  non d ame     -30.941  14.577  25.894  0.00  0.00    -0.271 OA
ATOM     12  H10 non d ame     -32.206  16.763  24.005  0.00  0.00     0.163 HD
BRANCH  10  13
ATOM     13  C6  non d ame     -30.685  14.520  23.534  0.00  0.00     0.086 C 
ATOM     14  H6  non d ame     -29.614  14.663  23.392  0.00  0.00     0.086 H 
BRANCH  13  15
ATOM     15  N2  non d ame     -30.918  13.085  23.527  0.00  0.00    -0.343 N 
ATOM     16  C5  non d ame     -30.072  12.221  22.699  0.00  0.00     0.273 C 
ATOM     17  O2  non d ame     -29.211  12.691  22.040  0.00  0.00    -0.266 OA
ATOM     18  H5  non d ame     -31.659  12.693  24.090  0.00  0.00     0.163 HD
BRANCH  16  19
ATOM     19  C4  non d ame     -30.306  10.703  22.684  0.00  0.00     0.154 A 
ATOM     20  C1  non d ame     -31.350   9.982  23.345  0.00  0.00    -0.017 A 
ATOM     21  C2  non d ame     -31.120   8.627  23.017  0.00  0.00     0.077 A 
ATOM     22  H1  non d ame     -32.150  10.379  23.968  0.00  0.00     0.091 H 
ATOM     23  O1  non d ame     -30.066   8.586  22.254  0.00  0.00    -0.218 OA
ATOM     24  N1  non d ame     -29.573   9.785  22.046  0.00  0.00    -0.123 NA
BRANCH  21  25
ATOM     25  C3  non d ame     -31.952   7.435  23.471  0.00  0.00    -0.029 C 
ATOM     26  H2  non d ame     -32.092   7.480  24.552  0.00  0.00     0.036 H 
ATOM     27  H3  non d ame     -32.924   7.462  22.979  0.00  0.00     0.036 H 
ATOM     28  H4  non d ame     -31.438   6.511  23.210  0.00  0.00     0.036 H 
ENDBRANCH  21  25
ENDBRANCH  16  19
ENDBRANCH  13  15
BRANCH  13  29
ATOM     29  C8  non d ame     -31.420  15.167  22.387  0.00  0.00    -0.049 C 
ATOM     30  H7  non d ame     -32.459  14.839  22.389  0.00  0.00     0.030 H 
ATOM     31  H8  non d ame     -31.383  16.251  22.498  0.00  0.00     0.030 H 
ATOM     32  H9  non d ame     -30.950  14.882  21.446  0.00  0.00     0.030 H 
ENDBRANCH  13  29
ENDBRANCH  10  13
ENDBRANCH   7   9
BRANCH   7  33
ATOM     33  C11 non d ame     -33.010  18.315  25.906  0.00  0.00    -0.033 C 
ATOM     34  H12 non d ame     -32.588  18.667  24.964  0.00  0.00     0.042 H 
BRANCH  33  35
ATOM     35  C12 non d ame     -34.564  18.329  25.759  0.00  0.00    -0.071 C 
ATOM     36  H13 non d ame     -34.999  18.935  26.553  0.00  0.00     0.028 H 
ATOM     37  H14 non d ame     -34.833  18.750  24.791  0.00  0.00     0.028 H 
ATOM     38  H15 non d ame     -34.945  17.310  25.831  0.00  0.00     0.028 H 
ENDBRANCH  33  35
BRANCH  33  39
ATOM     39  C13 non d ame     -32.540  19.284  27.038  0.00  0.00    -0.071 C 
ATOM     40  H16 non d ame     -32.390  18.722  27.960  0.00  0.00     0.028 H 
ATOM     41  H17 non d ame     -31.603  19.758  26.744  0.00  0.00     0.028 H 
ATOM     42  H18 non d ame     -33.298  20.050  27.198  0.00  0.00     0.028 H 
ENDBRANCH  33  39
ENDBRANCH   7  33
ENDBRANCH   4   7
ENDBRANCH   1   3
BRANCH   1  43
ATOM     43  C15 non d ame     -34.707  12.726  26.627  0.00  0.00     0.240 C 
ATOM     44  O5  non d ame     -34.082  12.143  25.802  0.00  0.00    -0.271 OA
ATOM     45  N6  non d ame     -34.915  12.114  27.970  0.00  0.00    -0.355 N 
ATOM     46  H46 non d ame     -35.440  12.603  28.681  0.00  0.00     0.162 HD
BRANCH  45  47
ATOM     47  C20 non d ame     -34.347  10.780  28.264  0.00  0.00     0.013 C 
ATOM     48  H30 non d ame     -34.233  10.249  27.319  0.00  0.00     0.072 H 
BRANCH  47  49
ATOM     49  C21 non d ame     -35.292  10.023  29.170  0.00  0.00    -0.038 C 
ATOM     50  H31 non d ame     -35.330  10.595  30.099  0.00  0.00     0.036 H 
ATOM     51  H32 non d ame     -36.200   9.871  28.587  0.00  0.00     0.036 H 
BRANCH  49  52
ATOM     52  C22 non d ame     -34.771   8.619  29.542  0.00  0.00     0.018 C 
ATOM     53  H33 non d ame     -35.438   7.915  29.047  0.00  0.00     0.048 H 
ATOM     54  H34 non d ame     -33.707   8.625  29.299  0.00  0.00     0.048 H 
BRANCH  52  55
ATOM     55  C23 non d ame     -34.860   8.299  31.060  0.00  0.00     0.259 C 
ATOM     56  O7  non d ame     -34.328   9.002  31.857  0.00  0.00    -0.265 OA
BRANCH  55  57
ATOM     57  O8  non d ame     -35.575   7.146  31.488  0.00  0.00    -0.317 OA
BRANCH  57  58
ATOM     58  C29 non d ame     -35.770   6.168  30.462  0.00  0.00     0.052 C 
ATOM     59  H47 non d ame     -36.650   5.600  30.760  0.00  0.00     0.082 H 
ATOM     60  H48 non d ame     -35.769   6.721  29.523  0.00  0.00     0.082 H 
BRANCH  58  61
ATOM     61  C35 non d ame     -34.544   5.215  30.470  0.00  0.00    -0.034 A 
ATOM     62  C30 non d ame     -34.060   4.714  31.674  0.00  0.00    -0.075 A 
ATOM     63  C31 non d ame     -32.959   3.858  31.681  0.00  0.00    -0.082 A 
ATOM     64  H49 non d ame     -34.542   4.991  32.611  0.00  0.00     0.084 H 
ATOM     65  C32 non d ame     -32.341   3.506  30.479  0.00  0.00    -0.083 A 
ATOM     66  H50 non d ame     -32.583   3.465  32.627  0.00  0.00     0.083 H 
ATOM     67  C33 non d ame     -32.826   4.011  29.280  0.00  0.00    -0.082 A 
ATOM     68  H51 non d ame     -31.481   2.836  30.476  0.00  0.00     0.083 H 
ATOM     69  C34 non d ame     -33.927   4.865  29.268  0.00  0.00    -0.075 A 
ATOM     70  H52 non d ame     -32.340   3.736  28.343  0.00  0.00     0.083 H 
ATOM     71  H53 non d ame     -34.302   5.257  28.322  0.00  0.00     0.084 H 
ENDBRANCH  58  61
ENDBRANCH  57  58
ENDBRANCH  55  57
ENDBRANCH  52  55
ENDBRANCH  49  52
ENDBRANCH  47  49
BRANCH  47  72
ATOM     72  C24 non d ame     -32.993  10.934  28.953  0.00  0.00    -0.039 C 
ATOM     73  H35 non d ame     -32.947  10.126  29.684  0.00  0.00     0.036 H 
ATOM     74  H36 non d ame     -32.262  10.982  28.147  0.00  0.00     0.036 H 
BRANCH  72  75
ATOM     75  C25 non d ame     -32.894  12.312  29.764  0.00  0.00    -0.001 C 
ATOM     76  C26 non d ame     -31.862  13.338  29.000  0.00  0.00    -0.035 C 
ATOM     77  C27 non d ame     -30.956  13.794  29.898  0.00  0.00     0.085 C 
ATOM     78  H38 non d ame     -31.254  12.790  28.280  0.00  0.00     0.036 H 
ATOM     79  H39 non d ame     -32.391  14.240  28.693  0.00  0.00     0.036 H 
ATOM     80  N5  non d ame     -31.073  12.922  31.125  0.00  0.00    -0.049 N 
ATOM     81  H40 non d ame     -29.981  13.629  29.438  0.00  0.00     0.075 H 
ATOM     82  H41 non d ame     -31.276  14.804  30.149  0.00  0.00     0.075 H 
ATOM     83  C28 non d ame     -32.463  12.117  30.967  0.00  0.00     0.193 C 
ATOM     84  H42 non d ame     -30.311  12.261  31.081  0.00  0.00     0.280 HD
ATOM     85  H43 non d ame     -31.153  13.549  31.914  0.00  0.00     0.280 HD
ATOM     86  H44 non d ame     -33.341  12.408  31.541  0.00  0.00     0.129 H 
ATOM     87  H37 non d ame     -33.875  12.704  30.034  0.00  0.00     0.046 H 
BRANCH  83  88
ATOM     88  O6  non d ame     -32.265  10.730  31.250  0.00  0.00    -0.369 OA
ATOM     89  H45 non d ame     -31.347  10.500  31.093  0.00  0.00     0.212 HD
ENDBRANCH  83  88
ENDBRANCH  72  75
ENDBRANCH  47  72
ENDBRANCH  45  47
ENDBRANCH   1  43
BRANCH   1  90
ATOM     90  C16 non d ame     -36.371  13.999  25.236  0.00  0.00    -0.035 C 
ATOM     91  H21 non d ame     -36.037  14.627  24.411  0.00  0.00     0.037 H 
ATOM     92  H22 non d ame     -36.500  12.927  25.087  0.00  0.00     0.037 H 
BRANCH  90  93
ATOM     93  C17 non d ame     -37.762  14.555  25.677  0.00  0.00    -0.059 C 
ATOM     94  H23 non d ame     -38.303  14.844  24.777  0.00  0.00     0.038 H 
BRANCH  93  95
ATOM     95  C18 non d ame     -38.616  13.481  26.425  0.00  0.00    -0.073 C 
ATOM     96  H24 non d ame     -39.286  12.993  25.717  0.00  0.00     0.028 H 
ATOM     97  H25 non d ame     -37.955  12.737  26.870  0.00  0.00     0.028 H 
ATOM     98  H26 non d ame     -39.201  13.963  27.207  0.00  0.00     0.028 H 
ENDBRANCH  93  95
BRANCH  93  99
ATOM     99  C19 non d ame     -37.600  15.814  26.534  0.00  0.00    -0.073 C 
ATOM    100  H27 non d ame     -38.393  15.849  27.282  0.00  0.00     0.028 H 
ATOM    101  H28 non d ame     -36.632  15.793  27.033  0.00  0.00     0.028 H 
ATOM    102  H29 non d ame     -37.661  16.697  25.898  0.00  0.00     0.028 H 
ENDBRANCH  93  99
ENDBRANCH  90  93
ENDBRANCH   1  90
TORSDOF 26
ENDMDL
MODEL 5
REMARK VINA RESULT:      -7.2      2.483      8.199
REMARK  26 active torsions:
REMARK  status: ('A' for Active; 'I' for Inactive)
REMARK    1  A    between atoms: C2_2  and  C3_3 
REMARK    2  A    between atoms: C4_6  and  C5_7 
REMARK       I    between atoms: C5_7  and  N2_9 
REMARK    3  A    between atoms: N2_9  and  C6_10 
REMARK    4  A    between atoms: C6_10  and  C7_11 
REMARK    5  A    between atoms: C6_10  and  C8_13 
REMARK       I    between atoms: C7_11  and  N3_14 
REMARK    6  A    between atoms: N3_14  and  C9_15 
REMARK    7  A    between atoms: C9_15  and  C10_16 
REMARK    8  A    between atoms: C9_15  and  C11_18 
REMARK       I    between atoms: C10_16  and  N4_21 
REMARK    9  A    between atoms: C11_18  and  C12_19 
REMARK   10  A    between atoms: C11_18  and  C13_20 
REMARK   11  A    between atoms: N4_21  and  C14_22 
REMARK   12  A    between atoms: C14_22  and  C15_23 
REMARK   13  A    between atoms: C14_22  and  C16_25 
REMARK       I    between atoms: C15_23  and  N6_40 
REMARK   14  A    between atoms: C16_25  and  C17_26 
REMARK   15  A    between atoms: C17_26  and  C18_27 
REMARK   16  A    between atoms: C17_26  and  C19_28 
REMARK   17  A    between atoms: C20_29  and  C21_30 
REMARK   18  A    between atoms: C20_29  and  C24_33 
REMARK   19  A    between atoms: C20_29  and  N6_40 
REMARK   20  A    between atoms: C21_30  and  C22_31 
REMARK   21  A    between atoms: C22_31  and  C23_32 
REMARK   22  A    between atoms: C23_32  and  O8_43 
REMARK   23  A    between atoms: C24_33  and  C25_34 
REMARK   24  A    between atoms: C28_38  and  O6_39 
REMARK   25  A    between atoms: C29_42  and  O8_43 
REMARK   26  A    between atoms: C29_42  and  C35_49 
ROOT
ATOM      1  C14 non d ame     -36.497  15.967  26.490  0.00  0.00     0.089 C 
ATOM      2  H20 non d ame     -37.091  16.522  27.217  0.00  0.00     0.087 H 
ENDROOT
BRANCH   1   3
ATOM      3  N4  non d ame     -35.096  16.162  26.830  0.00  0.00    -0.346 N 
ATOM      4  C10 non d ame     -34.698  17.179  27.871  0.00  0.00     0.241 C 
ATOM      5  O4  non d ame     -35.524  17.832  28.418  0.00  0.00    -0.271 OA
ATOM      6  H19 non d ame     -34.408  15.598  26.351  0.00  0.00     0.163 HD
BRANCH   4   7
ATOM      7  C9  non d ame     -33.243  17.363  28.214  0.00  0.00     0.092 C 
ATOM      8  H11 non d ame     -33.163  17.901  29.159  0.00  0.00     0.088 H 
BRANCH   7   9
ATOM      9  N3  non d ame     -32.617  16.052  28.406  0.00  0.00    -0.346 N 
ATOM     10  C7  non d ame     -31.730  15.834  29.522  0.00  0.00     0.240 C 
ATOM     11  O3  non d ame     -31.508  16.703  30.275  0.00  0.00    -0.271 OA
ATOM     12  H10 non d ame     -32.797  15.294  27.765  0.00  0.00     0.163 HD
BRANCH  10  13
ATOM     13  C6  non d ame     -31.063  14.437  29.720  0.00  0.00     0.086 C 
ATOM     14  H6  non d ame     -30.435  14.392  30.610  0.00  0.00     0.086 H 
BRANCH  13  15
ATOM     15  N2  non d ame     -32.105  13.439  29.896  0.00  0.00    -0.343 N 
ATOM     16  C5  non d ame     -31.798  12.193  30.603  0.00  0.00     0.273 C 
ATOM     17  O2  non d ame     -30.710  12.003  31.024  0.00  0.00    -0.266 OA
ATOM     18  H5  non d ame     -33.030  13.608  29.530  0.00  0.00     0.163 HD
BRANCH  16  19
ATOM     19  C4  non d ame     -32.890  11.130  30.797  0.00  0.00     0.154 A 
ATOM     20  C1  non d ame     -33.257  10.091  29.885  0.00  0.00    -0.017 A 
ATOM     21  C2  non d ame     -34.303   9.393  30.530  0.00  0.00     0.077 A 
ATOM     22  H1  non d ame     -32.833   9.877  28.904  0.00  0.00     0.091 H 
ATOM     23  O1  non d ame     -34.502   9.970  31.679  0.00  0.00    -0.218 OA
ATOM     24  N1  non d ame     -33.690  10.986  31.857  0.00  0.00    -0.123 NA
BRANCH  21  25
ATOM     25  C3  non d ame     -35.055   8.188  29.982  0.00  0.00    -0.029 C 
ATOM     26  H2  non d ame     -34.655   7.924  29.002  0.00  0.00     0.036 H 
ATOM     27  H3  non d ame     -34.934   7.344  30.661  0.00  0.00     0.036 H 
ATOM     28  H4  non d ame     -36.112   8.430  29.888  0.00  0.00     0.036 H 
ENDBRANCH  21  25
ENDBRANCH  16  19
ENDBRANCH  13  15
BRANCH  13  29
ATOM     29  C8  non d ame     -30.224  14.102  28.513  0.00  0.00    -0.049 C 
ATOM     30  H7  non d ame     -30.792  14.312  27.606  0.00  0.00     0.030 H 
ATOM     31  H8  non d ame     -29.318  14.707  28.521  0.00  0.00     0.030 H 
ATOM     32  H9  non d ame     -29.957  13.046  28.538  0.00  0.00     0.030 H 
ENDBRANCH  13  29
ENDBRANCH  10  13
ENDBRANCH   7   9
BRANCH   7  33
ATOM     33  C11 non d ame     -32.527  18.112  27.053  0.00  0.00    -0.033 C 
ATOM     34  H12 non d ame     -31.479  18.223  27.331  0.00  0.00     0.042 H 
BRANCH  33  35
ATOM     35  C12 non d ame     -32.578  17.290  25.727  0.00  0.00    -0.071 C 
ATOM     36  H13 non d ame     -32.922  16.278  25.941  0.00  0.00     0.028 H 
ATOM     37  H14 non d ame     -33.265  17.768  25.030  0.00  0.00     0.028 H 
ATOM     38  H15 non d ame     -31.581  17.249  25.287  0.00  0.00     0.028 H 
ENDBRANCH  33  35
BRANCH  33  39
ATOM     39  C13 non d ame     -33.128  19.541  26.855  0.00  0.00    -0.071 C 
ATOM     40  H16 non d ame     -32.466  20.280  27.309  0.00  0.00     0.028 H 
ATOM     41  H17 non d ame     -33.228  19.750  25.790  0.00  0.00     0.028 H 
ATOM     42  H18 non d ame     -34.108  19.592  27.328  0.00  0.00     0.028 H 
ENDBRANCH  33  39
ENDBRANCH   7  33
ENDBRANCH   4   7
ENDBRANCH   1   3
BRANCH   1  43
ATOM     43  C15 non d ame     -36.806  14.443  26.518  0.00  0.00     0.240 C 
ATOM     44  O5  non d ame     -37.867  14.063  26.895  0.00  0.00    -0.271 OA
ATOM     45  N6  non d ame     -35.784  13.458  26.064  0.00  0.00    -0.355 N 
ATOM     46  H46 non d ame     -34.881  13.771  25.736  0.00  0.00     0.162 HD
BRANCH  45  47
ATOM     47  C20 non d ame     -36.094  12.012  26.094  0.00  0.00     0.013 C 
ATOM     48  H30 non d ame     -37.042  11.884  26.617  0.00  0.00     0.072 H 
BRANCH  47  49
ATOM     49  C21 non d ame     -34.994  11.281  26.831  0.00  0.00    -0.038 C 
ATOM     50  H31 non d ame     -34.754  11.903  27.694  0.00  0.00     0.036 H 
ATOM     51  H32 non d ame     -35.362  10.266  26.976  0.00  0.00     0.036 H 
BRANCH  49  52
ATOM     52  C22 non d ame     -33.696  11.161  26.005  0.00  0.00     0.018 C 
ATOM     53  H33 non d ame     -33.227  10.232  26.325  0.00  0.00     0.048 H 
ATOM     54  H34 non d ame     -33.996  11.290  24.963  0.00  0.00     0.048 H 
BRANCH  52  55
ATOM     55  C23 non d ame     -32.663  12.285  26.294  0.00  0.00     0.259 C 
ATOM     56  O7  non d ame     -32.963  13.224  26.958  0.00  0.00    -0.265 OA
BRANCH  55  57
ATOM     57  O8  non d ame     -31.355  12.188  25.744  0.00  0.00    -0.317 OA
BRANCH  57  58
ATOM     58  C29 non d ame     -31.334  11.906  24.341  0.00  0.00     0.052 C 
ATOM     59  H47 non d ame     -30.685  11.039  24.224  0.00  0.00     0.082 H 
ATOM     60  H48 non d ame     -32.378  11.852  24.035  0.00  0.00     0.082 H 
BRANCH  58  61
ATOM     61  C35 non d ame     -30.674  13.113  23.620  0.00  0.00    -0.034 A 
ATOM     62  C30 non d ame     -30.848  14.401  24.117  0.00  0.00    -0.075 A 
ATOM     63  C31 non d ame     -30.256  15.485  23.469  0.00  0.00    -0.082 A 
ATOM     64  H49 non d ame     -31.449  14.562  25.012  0.00  0.00     0.084 H 
ATOM     65  C32 non d ame     -29.489  15.277  22.319  0.00  0.00    -0.083 A 
ATOM     66  H50 non d ame     -30.394  16.493  23.861  0.00  0.00     0.083 H 
ATOM     67  C33 non d ame     -29.321  13.990  21.826  0.00  0.00    -0.082 A 
ATOM     68  H51 non d ame     -29.023  16.118  21.808  0.00  0.00     0.083 H 
ATOM     69  C34 non d ame     -29.909  12.904  22.471  0.00  0.00    -0.075 A 
ATOM     70  H52 non d ame     -28.724  13.831  20.928  0.00  0.00     0.083 H 
ATOM     71  H53 non d ame     -29.771  11.896  22.078  0.00  0.00     0.084 H 
ENDBRANCH  58  61
ENDBRANCH  57  58
ENDBRANCH  55  57
ENDBRANCH  52  55
ENDBRANCH  49  52
ENDBRANCH  47  49
BRANCH  47  72
ATOM     72  C24 non d ame     -36.197  11.476  24.668  0.00  0.00    -0.039 C 
ATOM     73  H35 non d ame     -35.717  12.228  24.040  0.00  0.00     0.036 H 
ATOM     74  H36 non d ame     -35.796  10.464  24.709  0.00  0.00     0.036 H 
BRANCH  72  75
ATOM     75  C25 non d ame     -37.721  11.361  24.187  0.00  0.00    -0.001 C 
ATOM     76  C26 non d ame     -37.979   9.892  23.495  0.00  0.00    -0.035 C 
ATOM     77  C27 non d ame     -38.560  10.076  22.285  0.00  0.00     0.085 C 
ATOM     78  H38 non d ame     -37.027   9.420  23.252  0.00  0.00     0.036 H 
ATOM     79  H39 non d ame     -38.733   9.341  24.058  0.00  0.00     0.036 H 
ATOM     80  N5  non d ame     -38.422  11.540  21.947  0.00  0.00    -0.049 N 
ATOM     81  H40 non d ame     -37.963   9.492  21.583  0.00  0.00     0.075 H 
ATOM     82  H41 non d ame     -39.615   9.843  22.429  0.00  0.00     0.075 H 
ATOM     83  C28 non d ame     -38.009  12.277  23.323  0.00  0.00     0.193 C 
ATOM     84  H42 non d ame     -37.651  11.614  21.299  0.00  0.00     0.280 HD
ATOM     85  H43 non d ame     -39.341  11.859  21.675  0.00  0.00     0.280 HD
ATOM     86  H44 non d ame     -38.743  12.854  23.884  0.00  0.00     0.129 H 
ATOM     87  H37 non d ame     -38.423  11.676  24.959  0.00  0.00     0.046 H 
BRANCH  83  88
ATOM     88  O6  non d ame     -36.915  13.168  23.097  0.00  0.00    -0.369 OA
ATOM     89  H45 non d ame     -36.093  12.671  23.095  0.00  0.00     0.212 HD
ENDBRANCH  83  88
ENDBRANCH  72  75
ENDBRANCH  47  72
ENDBRANCH  45  47
ENDBRANCH   1  43
BRANCH   1  90
ATOM     90  C16 non d ame     -36.749  16.515  25.095  0.00  0.00    -0.035 C 
ATOM     91  H21 non d ame     -35.762  16.650  24.654  0.00  0.00     0.037 H 
ATOM     92  H22 non d ame     -37.459  15.826  24.638  0.00  0.00     0.037 H 
BRANCH  90  93
ATOM     93  C17 non d ame     -37.430  17.921  25.087  0.00  0.00    -0.059 C 
ATOM     94  H23 non d ame     -38.018  17.999  24.172  0.00  0.00     0.038 H 
BRANCH  93  95
ATOM     95  C18 non d ame     -38.401  18.112  26.295  0.00  0.00    -0.073 C 
ATOM     96  H24 non d ame     -38.233  17.320  27.025  0.00  0.00     0.028 H 
ATOM     97  H25 non d ame     -38.215  19.080  26.761  0.00  0.00     0.028 H 
ATOM     98  H26 non d ame     -39.432  18.070  25.944  0.00  0.00     0.028 H 
ENDBRANCH  93  95
BRANCH  93  99
ATOM     99  C19 non d ame     -36.382  19.036  25.050  0.00  0.00    -0.073 C 
ATOM    100  H27 non d ame     -35.408  18.612  24.799  0.00  0.00     0.028 H 
ATOM    101  H28 non d ame     -36.660  19.772  24.296  0.00  0.00     0.028 H 
ATOM    102  H29 non d ame     -36.329  19.517  26.025  0.00  0.00     0.028 H 
ENDBRANCH  93  99
ENDBRANCH  90  93
ENDBRANCH   1  90
TORSDOF 26
ENDMDL
MODEL 6
REMARK VINA RESULT:      -7.1      1.866      5.521
REMARK  26 active torsions:
REMARK  status: ('A' for Active; 'I' for Inactive)
REMARK    1  A    between atoms: C2_2  and  C3_3 
REMARK    2  A    between atoms: C4_6  and  C5_7 
REMARK       I    between atoms: C5_7  and  N2_9 
REMARK    3  A    between atoms: N2_9  and  C6_10 
REMARK    4  A    between atoms: C6_10  and  C7_11 
REMARK    5  A    between atoms: C6_10  and  C8_13 
REMARK       I    between atoms: C7_11  and  N3_14 
REMARK    6  A    between atoms: N3_14  and  C9_15 
REMARK    7  A    between atoms: C9_15  and  C10_16 
REMARK    8  A    between atoms: C9_15  and  C11_18 
REMARK       I    between atoms: C10_16  and  N4_21 
REMARK    9  A    between atoms: C11_18  and  C12_19 
REMARK   10  A    between atoms: C11_18  and  C13_20 
REMARK   11  A    between atoms: N4_21  and  C14_22 
REMARK   12  A    between atoms: C14_22  and  C15_23 
REMARK   13  A    between atoms: C14_22  and  C16_25 
REMARK       I    between atoms: C15_23  and  N6_40 
REMARK   14  A    between atoms: C16_25  and  C17_26 
REMARK   15  A    between atoms: C17_26  and  C18_27 
REMARK   16  A    between atoms: C17_26  and  C19_28 
REMARK   17  A    between atoms: C20_29  and  C21_30 
REMARK   18  A    between atoms: C20_29  and  C24_33 
REMARK   19  A    between atoms: C20_29  and  N6_40 
REMARK   20  A    between atoms: C21_30  and  C22_31 
REMARK   21  A    between atoms: C22_31  and  C23_32 
REMARK   22  A    between atoms: C23_32  and  O8_43 
REMARK   23  A    between atoms: C24_33  and  C25_34 
REMARK   24  A    between atoms: C28_38  and  O6_39 
REMARK   25  A    between atoms: C29_42  and  O8_43 
REMARK   26  A    between atoms: C29_42  and  C35_49 
ROOT
ATOM      1  C14 non d ame     -32.634   9.779  25.016  0.00  0.00     0.089 C 
ATOM      2  H20 non d ame     -32.434   9.015  25.767  0.00  0.00     0.087 H 
ENDROOT
BRANCH   1   3
ATOM      3  N4  non d ame     -33.994  10.254  25.227  0.00  0.00    -0.346 N 
ATOM      4  C10 non d ame     -34.988   9.407  25.981  0.00  0.00     0.241 C 
ATOM      5  O4  non d ame     -34.672   8.345  26.406  0.00  0.00    -0.271 OA
ATOM      6  H19 non d ame     -34.243  11.159  24.855  0.00  0.00     0.163 HD
BRANCH   4   7
ATOM      7  C9  non d ame     -36.389   9.917  26.195  0.00  0.00     0.092 C 
ATOM      8  H11 non d ame     -36.567  10.039  27.264  0.00  0.00     0.088 H 
BRANCH   7   9
ATOM      9  N3  non d ame     -36.528  11.239  25.579  0.00  0.00    -0.346 N 
ATOM     10  C7  non d ame     -36.927  12.370  26.380  0.00  0.00     0.240 C 
ATOM     11  O3  non d ame     -37.142  12.233  27.523  0.00  0.00    -0.271 OA
ATOM     12  H10 non d ame     -36.347  11.373  24.594  0.00  0.00     0.163 HD
BRANCH  10  13
ATOM     13  C6  non d ame     -37.076  13.775  25.718  0.00  0.00     0.086 C 
ATOM     14  H6  non d ame     -37.969  14.304  26.049  0.00  0.00     0.086 H 
BRANCH  13  15
ATOM     15  N2  non d ame     -35.940  14.598  26.100  0.00  0.00    -0.343 N 
ATOM     16  C5  non d ame     -36.157  15.788  26.926  0.00  0.00     0.273 C 
ATOM     17  O2  non d ame     -37.249  16.075  27.276  0.00  0.00    -0.266 OA
ATOM     18  H5  non d ame     -35.011  14.347  25.793  0.00  0.00     0.163 HD
BRANCH  16  19
ATOM     19  C4  non d ame     -34.966  16.667  27.338  0.00  0.00     0.154 A 
ATOM     20  C1  non d ame     -34.334  17.687  26.559  0.00  0.00    -0.017 A 
ATOM     21  C2  non d ame     -33.302  18.188  27.384  0.00  0.00     0.077 A 
ATOM     22  H1  non d ame     -34.584  18.014  25.550  0.00  0.00     0.091 H 
ATOM     23  O1  non d ame     -33.347  17.527  28.504  0.00  0.00    -0.218 OA
ATOM     24  N1  non d ame     -34.309  16.633  28.500  0.00  0.00    -0.123 NA
BRANCH  21  25
ATOM     25  C3  non d ame     -32.321  19.297  27.028  0.00  0.00    -0.029 C 
ATOM     26  H2  non d ame     -31.889  19.707  27.941  0.00  0.00     0.036 H 
ATOM     27  H3  non d ame     -31.526  18.891  26.402  0.00  0.00     0.036 H 
ATOM     28  H4  non d ame     -32.843  20.085  26.488  0.00  0.00     0.036 H 
ENDBRANCH  21  25
ENDBRANCH  16  19
ENDBRANCH  13  15
BRANCH  13  29
ATOM     29  C8  non d ame     -37.124  13.624  24.218  0.00  0.00    -0.049 C 
ATOM     30  H7  non d ame     -36.121  13.428  23.841  0.00  0.00     0.030 H 
ATOM     31  H8  non d ame     -37.779  12.793  23.958  0.00  0.00     0.030 H 
ATOM     32  H9  non d ame     -37.507  14.542  23.773  0.00  0.00     0.030 H 
ENDBRANCH  13  29
ENDBRANCH  10  13
ENDBRANCH   7   9
BRANCH   7  33
ATOM     33  C11 non d ame     -37.404   8.934  25.542  0.00  0.00    -0.033 C 
ATOM     34  H12 non d ame     -36.971   7.934  25.592  0.00  0.00     0.042 H 
BRANCH  33  35
ATOM     35  C12 non d ame     -38.752   8.901  26.328  0.00  0.00    -0.071 C 
ATOM     36  H13 non d ame     -39.233   9.877  26.264  0.00  0.00     0.028 H 
ATOM     37  H14 non d ame     -39.405   8.144  25.896  0.00  0.00     0.028 H 
ATOM     38  H15 non d ame     -38.557   8.660  27.373  0.00  0.00     0.028 H 
ENDBRANCH  33  35
BRANCH  33  39
ATOM     39  C13 non d ame     -37.634   9.285  24.037  0.00  0.00    -0.071 C 
ATOM     40  H16 non d ame     -37.282   8.463  23.413  0.00  0.00     0.028 H 
ATOM     41  H17 non d ame     -38.698   9.447  23.860  0.00  0.00     0.028 H 
ATOM     42  H18 non d ame     -37.085  10.192  23.788  0.00  0.00     0.028 H 
ENDBRANCH  33  39
ENDBRANCH   7  33
ENDBRANCH   4   7
ENDBRANCH   1   3
BRANCH   1  43
ATOM     43  C15 non d ame     -31.664  10.988  25.133  0.00  0.00     0.240 C 
ATOM     44  O5  non d ame     -30.763  10.949  25.907  0.00  0.00    -0.271 OA
ATOM     45  N6  non d ame     -31.851  12.191  24.274  0.00  0.00    -0.355 N 
ATOM     46  H46 non d ame     -32.610  12.233  23.609  0.00  0.00     0.162 HD
BRANCH  45  47
ATOM     47  C20 non d ame     -30.918  13.333  24.396  0.00  0.00     0.013 C 
ATOM     48  H30 non d ame     -30.175  13.079  25.153  0.00  0.00     0.072 H 
BRANCH  47  49
ATOM     49  C21 non d ame     -31.687  14.564  24.819  0.00  0.00    -0.038 C 
ATOM     50  H31 non d ame     -31.262  15.389  24.245  0.00  0.00     0.036 H 
ATOM     51  H32 non d ame     -32.739  14.306  24.707  0.00  0.00     0.036 H 
BRANCH  49  52
ATOM     52  C22 non d ame     -31.479  14.918  26.308  0.00  0.00     0.018 C 
ATOM     53  H33 non d ame     -30.431  14.711  26.517  0.00  0.00     0.048 H 
ATOM     54  H34 non d ame     -31.869  15.930  26.427  0.00  0.00     0.048 H 
BRANCH  52  55
ATOM     55  C23 non d ame     -32.296  14.027  27.284  0.00  0.00     0.259 C 
ATOM     56  O7  non d ame     -33.298  13.498  26.924  0.00  0.00    -0.265 OA
BRANCH  55  57
ATOM     57  O8  non d ame     -31.840  13.860  28.621  0.00  0.00    -0.317 OA
BRANCH  57  58
ATOM     58  C29 non d ame     -31.207  12.600  28.866  0.00  0.00     0.052 C 
ATOM     59  H47 non d ame     -30.968  12.195  27.884  0.00  0.00     0.082 H 
ATOM     60  H48 non d ame     -30.409  12.805  29.581  0.00  0.00     0.082 H 
BRANCH  58  61
ATOM     61  C35 non d ame     -32.244  11.666  29.544  0.00  0.00    -0.034 A 
ATOM     62  C30 non d ame     -32.706  11.951  30.825  0.00  0.00    -0.075 A 
ATOM     63  C31 non d ame     -33.638  11.111  31.434  0.00  0.00    -0.082 A 
ATOM     64  H49 non d ame     -32.338  12.831  31.352  0.00  0.00     0.084 H 
ATOM     65  C32 non d ame     -34.106   9.981  30.758  0.00  0.00    -0.083 A 
ATOM     66  H50 non d ame     -33.999  11.338  32.438  0.00  0.00     0.083 H 
ATOM     67  C33 non d ame     -33.640   9.699  29.482  0.00  0.00    -0.082 A 
ATOM     68  H51 non d ame     -34.835   9.321  31.227  0.00  0.00     0.083 H 
ATOM     69  C34 non d ame     -32.710  10.537  28.869  0.00  0.00    -0.075 A 
ATOM     70  H52 non d ame     -34.005   8.815  28.957  0.00  0.00     0.083 H 
ATOM     71  H53 non d ame     -32.350  10.309  27.865  0.00  0.00     0.084 H 
ENDBRANCH  58  61
ENDBRANCH  57  58
ENDBRANCH  55  57
ENDBRANCH  52  55
ENDBRANCH  49  52
ENDBRANCH  47  49
BRANCH  47  72
ATOM     72  C24 non d ame     -30.239  13.592  23.053  0.00  0.00    -0.039 C 
ATOM     73  H35 non d ame     -29.200  13.289  23.190  0.00  0.00     0.036 H 
ATOM     74  H36 non d ame     -30.860  13.087  22.312  0.00  0.00     0.036 H 
BRANCH  72  75
ATOM     75  C25 non d ame     -30.233  15.150  22.682  0.00  0.00    -0.001 C 
ATOM     76  C26 non d ame     -31.212  15.421  21.389  0.00  0.00    -0.035 C 
ATOM     77  C27 non d ame     -30.522  16.125  20.459  0.00  0.00     0.085 C 
ATOM     78  H38 non d ame     -31.433  14.481  20.884  0.00  0.00     0.036 H 
ATOM     79  H39 non d ame     -32.022  16.094  21.668  0.00  0.00     0.036 H 
ATOM     80  N5  non d ame     -29.067  16.076  20.859  0.00  0.00    -0.049 N 
ATOM     81  H40 non d ame     -30.652  15.579  19.524  0.00  0.00     0.075 H 
ATOM     82  H41 non d ame     -30.879  17.151  20.546  0.00  0.00     0.075 H 
ATOM     83  C28 non d ame     -29.043  15.557  22.387  0.00  0.00     0.193 C 
ATOM     84  H42 non d ame     -28.633  15.376  20.274  0.00  0.00     0.280 HD
ATOM     85  H43 non d ame     -28.732  17.029  20.837  0.00  0.00     0.280 HD
ATOM     86  H44 non d ame     -28.863  16.252  23.206  0.00  0.00     0.129 H 
ATOM     87  H37 non d ame     -30.381  15.784  23.556  0.00  0.00     0.046 H 
BRANCH  83  88
ATOM     88  O6  non d ame     -28.067  14.524  22.542  0.00  0.00    -0.369 OA
ATOM     89  H45 non d ame     -27.346  14.670  21.926  0.00  0.00     0.212 HD
ENDBRANCH  83  88
ENDBRANCH  72  75
ENDBRANCH  47  72
ENDBRANCH  45  47
ENDBRANCH   1  43
BRANCH   1  90
ATOM     90  C16 non d ame     -32.531   9.174  23.625  0.00  0.00    -0.035 C 
ATOM     91  H21 non d ame     -33.303   8.406  23.586  0.00  0.00     0.037 H 
ATOM     92  H22 non d ame     -32.569  10.019  22.938  0.00  0.00     0.037 H 
BRANCH  90  93
ATOM     93  C17 non d ame     -31.175   8.447  23.356  0.00  0.00    -0.059 C 
ATOM     94  H23 non d ame     -30.576   8.518  24.264  0.00  0.00     0.038 H 
BRANCH  93  95
ATOM     95  C18 non d ame     -31.372   6.932  23.031  0.00  0.00    -0.073 C 
ATOM     96  H24 non d ame     -30.962   6.716  22.044  0.00  0.00     0.028 H 
ATOM     97  H25 non d ame     -30.854   6.330  23.778  0.00  0.00     0.028 H 
ATOM     98  H26 non d ame     -32.435   6.693  23.044  0.00  0.00     0.028 H 
ENDBRANCH  93  95
BRANCH  93  99
ATOM     99  C19 non d ame     -30.392   9.146  22.241  0.00  0.00    -0.073 C 
ATOM    100  H27 non d ame     -30.913  10.058  21.947  0.00  0.00     0.028 H 
ATOM    101  H28 non d ame     -29.395   9.399  22.600  0.00  0.00     0.028 H 
ATOM    102  H29 non d ame     -30.310   8.480  21.382  0.00  0.00     0.028 H 
ENDBRANCH  93  99
ENDBRANCH  90  93
ENDBRANCH   1  90
TORSDOF 26
ENDMDL
MODEL 7
REMARK VINA RESULT:      -7.1      3.359      7.232
REMARK  26 active torsions:
REMARK  status: ('A' for Active; 'I' for Inactive)
REMARK    1  A    between atoms: C2_2  and  C3_3 
REMARK    2  A    between atoms: C4_6  and  C5_7 
REMARK       I    between atoms: C5_7  and  N2_9 
REMARK    3  A    between atoms: N2_9  and  C6_10 
REMARK    4  A    between atoms: C6_10  and  C7_11 
REMARK    5  A    between atoms: C6_10  and  C8_13 
REMARK       I    between atoms: C7_11  and  N3_14 
REMARK    6  A    between atoms: N3_14  and  C9_15 
REMARK    7  A    between atoms: C9_15  and  C10_16 
REMARK    8  A    between atoms: C9_15  and  C11_18 
REMARK       I    between atoms: C10_16  and  N4_21 
REMARK    9  A    between atoms: C11_18  and  C12_19 
REMARK   10  A    between atoms: C11_18  and  C13_20 
REMARK   11  A    between atoms: N4_21  and  C14_22 
REMARK   12  A    between atoms: C14_22  and  C15_23 
REMARK   13  A    between atoms: C14_22  and  C16_25 
REMARK       I    between atoms: C15_23  and  N6_40 
REMARK   14  A    between atoms: C16_25  and  C17_26 
REMARK   15  A    between atoms: C17_26  and  C18_27 
REMARK   16  A    between atoms: C17_26  and  C19_28 
REMARK   17  A    between atoms: C20_29  and  C21_30 
REMARK   18  A    between atoms: C20_29  and  C24_33 
REMARK   19  A    between atoms: C20_29  and  N6_40 
REMARK   20  A    between atoms: C21_30  and  C22_31 
REMARK   21  A    between atoms: C22_31  and  C23_32 
REMARK   22  A    between atoms: C23_32  and  O8_43 
REMARK   23  A    between atoms: C24_33  and  C25_34 
REMARK   24  A    between atoms: C28_38  and  O6_39 
REMARK   25  A    between atoms: C29_42  and  O8_43 
REMARK   26  A    between atoms: C29_42  and  C35_49 
ROOT
ATOM      1  C14 non d ame     -32.984  10.328  25.701  0.00  0.00     0.089 C 
ATOM      2  H20 non d ame     -33.687  10.411  24.871  0.00  0.00     0.087 H 
ENDROOT
BRANCH   1   3
ATOM      3  N4  non d ame     -32.401   8.996  25.649  0.00  0.00    -0.346 N 
ATOM      4  C10 non d ame     -33.067   7.903  24.851  0.00  0.00     0.241 C 
ATOM      5  O4  non d ame     -34.074   8.119  24.262  0.00  0.00    -0.271 OA
ATOM      6  H19 non d ame     -31.544   8.833  26.159  0.00  0.00     0.163 HD
BRANCH   4   7
ATOM      7  C9  non d ame     -32.445   6.532  24.803  0.00  0.00     0.092 C 
ATOM      8  H11 non d ame     -31.389   6.608  25.065  0.00  0.00     0.088 H 
BRANCH   7   9
ATOM      9  N3  non d ame     -33.081   5.672  25.804  0.00  0.00    -0.346 N 
ATOM     10  C7  non d ame     -32.701   5.778  27.191  0.00  0.00     0.240 C 
ATOM     11  O3  non d ame     -31.885   6.550  27.519  0.00  0.00    -0.271 OA
ATOM     12  H10 non d ame     -33.785   5.000  25.536  0.00  0.00     0.163 HD
BRANCH  10  13
ATOM     13  C6  non d ame     -33.379   4.857  28.252  0.00  0.00     0.086 C 
ATOM     14  H6  non d ame     -32.757   4.699  29.133  0.00  0.00     0.086 H 
BRANCH  13  15
ATOM     15  N2  non d ame     -34.602   5.492  28.716  0.00  0.00    -0.343 N 
ATOM     16  C5  non d ame     -34.914   5.499  30.147  0.00  0.00     0.273 C 
ATOM     17  O2  non d ame     -34.177   4.988  30.916  0.00  0.00    -0.266 OA
ATOM     18  H5  non d ame     -35.228   5.923  28.050  0.00  0.00     0.163 HD
BRANCH  16  19
ATOM     19  C4  non d ame     -36.202   6.168  30.650  0.00  0.00     0.154 A 
ATOM     20  C1  non d ame     -36.495   7.569  30.679  0.00  0.00    -0.017 A 
ATOM     21  C2  non d ame     -37.794   7.658  31.227  0.00  0.00     0.077 A 
ATOM     22  H1  non d ame     -35.862   8.394  30.353  0.00  0.00     0.091 H 
ATOM     23  O1  non d ame     -38.192   6.444  31.477  0.00  0.00    -0.218 OA
ATOM     24  N1  non d ame     -37.280   5.559  31.150  0.00  0.00    -0.123 NA
BRANCH  21  25
ATOM     25  C3  non d ame     -38.581   8.937  31.476  0.00  0.00    -0.029 C 
ATOM     26  H2  non d ame     -38.964   9.319  30.529  0.00  0.00     0.036 H 
ATOM     27  H3  non d ame     -39.416   8.726  32.145  0.00  0.00     0.036 H 
ATOM     28  H4  non d ame     -37.931   9.682  31.931  0.00  0.00     0.036 H 
ENDBRANCH  21  25
ENDBRANCH  16  19
ENDBRANCH  13  15
BRANCH  13  29
ATOM     29  C8  non d ame     -33.696   3.519  27.632  0.00  0.00    -0.049 C 
ATOM     30  H7  non d ame     -33.110   3.393  26.722  0.00  0.00     0.030 H 
ATOM     31  H8  non d ame     -33.448   2.725  28.337  0.00  0.00     0.030 H 
ATOM     32  H9  non d ame     -34.758   3.472  27.391  0.00  0.00     0.030 H 
ENDBRANCH  13  29
ENDBRANCH  10  13
ENDBRANCH   7   9
BRANCH   7  33
ATOM     33  C11 non d ame     -32.652   5.919  23.387  0.00  0.00    -0.033 C 
ATOM     34  H12 non d ame     -33.475   6.455  22.914  0.00  0.00     0.042 H 
BRANCH  33  35
ATOM     35  C12 non d ame     -31.389   6.113  22.492  0.00  0.00    -0.071 C 
ATOM     36  H13 non d ame     -30.534   6.364  23.119  0.00  0.00     0.028 H 
ATOM     37  H14 non d ame     -31.183   5.190  21.950  0.00  0.00     0.028 H 
ATOM     38  H15 non d ame     -31.567   6.920  21.781  0.00  0.00     0.028 H 
ENDBRANCH  33  35
BRANCH  33  39
ATOM     39  C13 non d ame     -33.051   4.411  23.484  0.00  0.00    -0.071 C 
ATOM     40  H16 non d ame     -34.042   4.268  23.052  0.00  0.00     0.028 H 
ATOM     41  H17 non d ame     -32.326   3.807  22.939  0.00  0.00     0.028 H 
ATOM     42  H18 non d ame     -33.063   4.105  24.530  0.00  0.00     0.028 H 
ENDBRANCH  33  39
ENDBRANCH   7  33
ENDBRANCH   4   7
ENDBRANCH   1   3
BRANCH   1  43
ATOM     43  C15 non d ame     -31.838  11.375  25.608  0.00  0.00     0.240 C 
ATOM     44  O5  non d ame     -30.852  11.231  26.256  0.00  0.00    -0.271 OA
ATOM     45  N6  non d ame     -31.966  12.553  24.704  0.00  0.00    -0.355 N 
ATOM     46  H46 non d ame     -32.797  12.683  24.145  0.00  0.00     0.162 HD
BRANCH  45  47
ATOM     47  C20 non d ame     -30.866  13.540  24.625  0.00  0.00     0.013 C 
ATOM     48  H30 non d ame     -30.034  13.162  25.219  0.00  0.00     0.072 H 
BRANCH  47  49
ATOM     49  C21 non d ame     -31.341  14.863  25.183  0.00  0.00    -0.038 C 
ATOM     50  H31 non d ame     -30.541  15.575  24.973  0.00  0.00     0.036 H 
ATOM     51  H32 non d ame     -32.334  15.019  24.765  0.00  0.00     0.036 H 
BRANCH  49  52
ATOM     52  C22 non d ame     -31.511  14.840  26.717  0.00  0.00     0.018 C 
ATOM     53  H33 non d ame     -31.032  13.921  27.054  0.00  0.00     0.048 H 
ATOM     54  H34 non d ame     -31.143  15.805  27.069  0.00  0.00     0.048 H 
BRANCH  52  55
ATOM     55  C23 non d ame     -32.990  14.749  27.183  0.00  0.00     0.259 C 
ATOM     56  O7  non d ame     -33.773  14.088  26.581  0.00  0.00    -0.265 OA
BRANCH  55  57
ATOM     57  O8  non d ame     -33.405  15.478  28.332  0.00  0.00    -0.317 OA
BRANCH  57  58
ATOM     58  C29 non d ame     -34.495  16.374  28.089  0.00  0.00     0.052 C 
ATOM     59  H47 non d ame     -35.144  15.862  27.380  0.00  0.00     0.082 H 
ATOM     60  H48 non d ame     -34.872  16.652  29.073  0.00  0.00     0.082 H 
BRANCH  58  61
ATOM     61  C35 non d ame     -33.926  17.646  27.405  0.00  0.00    -0.034 A 
ATOM     62  C30 non d ame     -32.904  18.367  28.015  0.00  0.00    -0.075 A 
ATOM     63  C31 non d ame     -32.393  19.510  27.400  0.00  0.00    -0.082 A 
ATOM     64  H49 non d ame     -32.504  18.038  28.973  0.00  0.00     0.084 H 
ATOM     65  C32 non d ame     -32.910  19.932  26.172  0.00  0.00    -0.083 A 
ATOM     66  H50 non d ame     -31.591  20.072  27.880  0.00  0.00     0.083 H 
ATOM     67  C33 non d ame     -33.931  19.211  25.569  0.00  0.00    -0.082 A 
ATOM     68  H51 non d ame     -32.515  20.823  25.685  0.00  0.00     0.083 H 
ATOM     69  C34 non d ame     -34.443  18.067  26.179  0.00  0.00    -0.075 A 
ATOM     70  H52 non d ame     -34.334  19.544  24.612  0.00  0.00     0.083 H 
ATOM     71  H53 non d ame     -35.245  17.506  25.698  0.00  0.00     0.084 H 
ENDBRANCH  58  61
ENDBRANCH  57  58
ENDBRANCH  55  57
ENDBRANCH  52  55
ENDBRANCH  49  52
ENDBRANCH  47  49
BRANCH  47  72
ATOM     72  C24 non d ame     -30.440  13.723  23.170  0.00  0.00    -0.039 C 
ATOM     73  H35 non d ame     -29.477  13.217  23.085  0.00  0.00     0.036 H 
ATOM     74  H36 non d ame     -31.288  13.385  22.575  0.00  0.00     0.036 H 
BRANCH  72  75
ATOM     75  C25 non d ame     -30.197  15.266  22.813  0.00  0.00    -0.001 C 
ATOM     76  C26 non d ame     -31.271  15.750  21.666  0.00  0.00    -0.035 C 
ATOM     77  C27 non d ame     -30.592  16.347  20.657  0.00  0.00     0.085 C 
ATOM     78  H38 non d ame     -31.725  14.882  21.189  0.00  0.00     0.036 H 
ATOM     79  H39 non d ame     -31.900  16.550  22.057  0.00  0.00     0.036 H 
ATOM     80  N5  non d ame     -29.131  16.023  20.856  0.00  0.00    -0.049 N 
ATOM     81  H40 non d ame     -30.942  15.864  19.744  0.00  0.00     0.075 H 
ATOM     82  H41 non d ame     -30.740  17.417  20.799  0.00  0.00     0.075 H 
ATOM     83  C28 non d ame     -29.002  15.459  22.363  0.00  0.00     0.193 C 
ATOM     84  H42 non d ame     -28.913  15.275  20.213  0.00  0.00     0.280 HD
ATOM     85  H43 non d ame     -28.633  16.900  20.796  0.00  0.00     0.280 HD
ATOM     86  H44 non d ame     -28.591  16.084  23.155  0.00  0.00     0.129 H 
ATOM     87  H37 non d ame     -30.109  15.887  23.704  0.00  0.00     0.046 H 
BRANCH  83  88
ATOM     88  O6  non d ame     -28.220  14.263  22.377  0.00  0.00    -0.369 OA
ATOM     89  H45 non d ame     -27.459  14.372  21.804  0.00  0.00     0.212 HD
ENDBRANCH  83  88
ENDBRANCH  72  75
ENDBRANCH  47  72
ENDBRANCH  45  47
ENDBRANCH   1  43
BRANCH   1  90
ATOM     90  C16 non d ame     -33.723  10.494  27.020  0.00  0.00    -0.035 C 
ATOM     91  H21 non d ame     -33.510   9.588  27.586  0.00  0.00     0.037 H 
ATOM     92  H22 non d ame     -33.410  11.464  27.405  0.00  0.00     0.037 H 
BRANCH  90  93
ATOM     93  C17 non d ame     -35.276  10.560  26.864  0.00  0.00    -0.059 C 
ATOM     94  H23 non d ame     -35.653  11.266  27.603  0.00  0.00     0.038 H 
BRANCH  93  95
ATOM     95  C18 non d ame     -35.705  11.072  25.452  0.00  0.00    -0.073 C 
ATOM     96  H24 non d ame     -34.863  10.994  24.766  0.00  0.00     0.028 H 
ATOM     97  H25 non d ame     -36.532  10.464  25.082  0.00  0.00     0.028 H 
ATOM     98  H26 non d ame     -36.023  12.111  25.523  0.00  0.00     0.028 H 
ENDBRANCH  93  95
BRANCH  93  99
ATOM     99  C19 non d ame     -35.913   9.201  27.168  0.00  0.00    -0.073 C 
ATOM    100  H27 non d ame     -35.560   8.464  26.446  0.00  0.00     0.028 H 
ATOM    101  H28 non d ame     -35.635   8.885  28.173  0.00  0.00     0.028 H 
ATOM    102  H29 non d ame     -36.998   9.286  27.102  0.00  0.00     0.028 H 
ENDBRANCH  93  99
ENDBRANCH  90  93
ENDBRANCH   1  90
TORSDOF 26
ENDMDL
MODEL 8
REMARK VINA RESULT:      -7.1      2.937      7.385
REMARK  26 active torsions:
REMARK  status: ('A' for Active; 'I' for Inactive)
REMARK    1  A    between atoms: C2_2  and  C3_3 
REMARK    2  A    between atoms: C4_6  and  C5_7 
REMARK       I    between atoms: C5_7  and  N2_9 
REMARK    3  A    between atoms: N2_9  and  C6_10 
REMARK    4  A    between atoms: C6_10  and  C7_11 
REMARK    5  A    between atoms: C6_10  and  C8_13 
REMARK       I    between atoms: C7_11  and  N3_14 
REMARK    6  A    between atoms: N3_14  and  C9_15 
REMARK    7  A    between atoms: C9_15  and  C10_16 
REMARK    8  A    between atoms: C9_15  and  C11_18 
REMARK       I    between atoms: C10_16  and  N4_21 
REMARK    9  A    between atoms: C11_18  and  C12_19 
REMARK   10  A    between atoms: C11_18  and  C13_20 
REMARK   11  A    between atoms: N4_21  and  C14_22 
REMARK   12  A    between atoms: C14_22  and  C15_23 
REMARK   13  A    between atoms: C14_22  and  C16_25 
REMARK       I    between atoms: C15_23  and  N6_40 
REMARK   14  A    between atoms: C16_25  and  C17_26 
REMARK   15  A    between atoms: C17_26  and  C18_27 
REMARK   16  A    between atoms: C17_26  and  C19_28 
REMARK   17  A    between atoms: C20_29  and  C21_30 
REMARK   18  A    between atoms: C20_29  and  C24_33 
REMARK   19  A    between atoms: C20_29  and  N6_40 
REMARK   20  A    between atoms: C21_30  and  C22_31 
REMARK   21  A    between atoms: C22_31  and  C23_32 
REMARK   22  A    between atoms: C23_32  and  O8_43 
REMARK   23  A    between atoms: C24_33  and  C25_34 
REMARK   24  A    between atoms: C28_38  and  O6_39 
REMARK   25  A    between atoms: C29_42  and  O8_43 
REMARK   26  A    between atoms: C29_42  and  C35_49 
ROOT
ATOM      1  C14 non d ame     -31.135  14.022  24.171  0.00  0.00     0.089 C 
ATOM      2  H20 non d ame     -30.133  13.945  24.595  0.00  0.00     0.087 H 
ENDROOT
BRANCH   1   3
ATOM      3  N4  non d ame     -31.703  12.682  24.148  0.00  0.00    -0.346 N 
ATOM      4  C10 non d ame     -31.568  11.776  25.346  0.00  0.00     0.241 C 
ATOM      5  O4  non d ame     -30.995  12.146  26.316  0.00  0.00    -0.271 OA
ATOM      6  H19 non d ame     -32.186  12.386  23.311  0.00  0.00     0.163 HD
BRANCH   4   7
ATOM      7  C9  non d ame     -32.168  10.395  25.306  0.00  0.00     0.092 C 
ATOM      8  H11 non d ame     -33.056  10.408  24.672  0.00  0.00     0.088 H 
BRANCH   7   9
ATOM      9  N3  non d ame     -31.214   9.465  24.697  0.00  0.00    -0.346 N 
ATOM     10  C7  non d ame     -31.315   9.143  23.295  0.00  0.00     0.240 C 
ATOM     11  O3  non d ame     -32.160   9.623  22.642  0.00  0.00    -0.271 OA
ATOM     12  H10 non d ame     -30.481   9.041  25.247  0.00  0.00     0.163 HD
BRANCH  10  13
ATOM     13  C6  non d ame     -30.298   8.149  22.652  0.00  0.00     0.086 C 
ATOM     14  H6  non d ame     -29.999   7.353  23.334  0.00  0.00     0.086 H 
BRANCH  13  15
ATOM     15  N2  non d ame     -30.926   7.505  21.511  0.00  0.00    -0.343 N 
ATOM     16  C5  non d ame     -31.687   6.269  21.708  0.00  0.00     0.273 C 
ATOM     17  O2  non d ame     -31.786   5.800  22.788  0.00  0.00    -0.266 OA
ATOM     18  H5  non d ame     -30.833   7.911  20.590  0.00  0.00     0.163 HD
BRANCH  16  19
ATOM     19  C4  non d ame     -32.357   5.578  20.511  0.00  0.00     0.154 A 
ATOM     20  C1  non d ame     -32.372   4.178  20.217  0.00  0.00    -0.017 A 
ATOM     21  C2  non d ame     -33.112   4.065  19.019  0.00  0.00     0.077 A 
ATOM     22  H1  non d ame     -31.915   3.368  20.784  0.00  0.00     0.091 H 
ATOM     23  O1  non d ame     -33.478   5.266  18.675  0.00  0.00    -0.218 OA
ATOM     24  N1  non d ame     -33.048   6.165  19.530  0.00  0.00    -0.123 NA
BRANCH  21  25
ATOM     25  C3  non d ame     -33.426   2.777  18.270  0.00  0.00    -0.029 C 
ATOM     26  H2  non d ame     -34.217   2.237  18.791  0.00  0.00     0.036 H 
ATOM     27  H3  non d ame     -33.755   3.015  17.259  0.00  0.00     0.036 H 
ATOM     28  H4  non d ame     -32.532   2.156  18.225  0.00  0.00     0.036 H 
ENDBRANCH  21  25
ENDBRANCH  16  19
ENDBRANCH  13  15
BRANCH  13  29
ATOM     29  C8  non d ame     -29.068   8.900  22.210  0.00  0.00    -0.049 C 
ATOM     30  H7  non d ame     -28.655   9.452  23.054  0.00  0.00     0.030 H 
ATOM     31  H8  non d ame     -28.325   8.193  21.840  0.00  0.00     0.030 H 
ATOM     32  H9  non d ame     -29.334   9.597  21.415  0.00  0.00     0.030 H 
ENDBRANCH  13  29
ENDBRANCH  10  13
ENDBRANCH   7   9
BRANCH   7  33
ATOM     33  C11 non d ame     -32.492   9.929  26.755  0.00  0.00    -0.033 C 
ATOM     34  H12 non d ame     -31.730  10.349  27.413  0.00  0.00     0.042 H 
BRANCH  33  35
ATOM     35  C12 non d ame     -33.875  10.471  27.232  0.00  0.00    -0.071 C 
ATOM     36  H13 non d ame     -34.322   9.763  27.930  0.00  0.00     0.028 H 
ATOM     37  H14 non d ame     -33.737  11.431  27.727  0.00  0.00     0.028 H 
ATOM     38  H15 non d ame     -34.533  10.595  26.372  0.00  0.00     0.028 H 
ENDBRANCH  33  35
BRANCH  33  39
ATOM     39  C13 non d ame     -32.423   8.372  26.870  0.00  0.00    -0.071 C 
ATOM     40  H16 non d ame     -31.512   8.011  26.391  0.00  0.00     0.028 H 
ATOM     41  H17 non d ame     -32.419   8.084  27.922  0.00  0.00     0.028 H 
ATOM     42  H18 non d ame     -33.291   7.932  26.378  0.00  0.00     0.028 H 
ENDBRANCH  33  39
ENDBRANCH   7  33
ENDBRANCH   4   7
ENDBRANCH   1   3
BRANCH   1  43
ATOM     43  C15 non d ame     -32.063  14.939  25.017  0.00  0.00     0.240 C 
ATOM     44  O5  non d ame     -33.002  15.460  24.507  0.00  0.00    -0.271 OA
ATOM     45  N6  non d ame     -31.787  15.161  26.464  0.00  0.00    -0.355 N 
ATOM     46  H46 non d ame     -30.994  14.719  26.909  0.00  0.00     0.162 HD
BRANCH  45  47
ATOM     47  C20 non d ame     -32.680  16.035  27.256  0.00  0.00     0.013 C 
ATOM     48  H30 non d ame     -33.689  15.934  26.856  0.00  0.00     0.072 H 
BRANCH  47  49
ATOM     49  C21 non d ame     -32.216  17.469  27.131  0.00  0.00    -0.038 C 
ATOM     50  H31 non d ame     -31.330  17.548  27.763  0.00  0.00     0.036 H 
ATOM     51  H32 non d ame     -32.141  17.661  26.061  0.00  0.00     0.036 H 
BRANCH  49  52
ATOM     52  C22 non d ame     -33.240  18.481  27.687  0.00  0.00     0.018 C 
ATOM     53  H33 non d ame     -34.172  17.928  27.798  0.00  0.00     0.048 H 
ATOM     54  H34 non d ame     -32.765  18.929  28.562  0.00  0.00     0.048 H 
BRANCH  52  55
ATOM     55  C23 non d ame     -33.549  19.656  26.719  0.00  0.00     0.259 C 
ATOM     56  O7  non d ame     -33.164  20.754  26.959  0.00  0.00    -0.265 OA
BRANCH  55  57
ATOM     57  O8  non d ame     -34.313  19.408  25.544  0.00  0.00    -0.317 OA
BRANCH  57  58
ATOM     58  C29 non d ame     -35.728  19.501  25.740  0.00  0.00     0.052 C 
ATOM     59  H47 non d ame     -35.876  19.500  26.819  0.00  0.00     0.082 H 
ATOM     60  H48 non d ame     -36.052  20.355  25.145  0.00  0.00     0.082 H 
BRANCH  58  61
ATOM     61  C35 non d ame     -36.378  18.219  25.154  0.00  0.00    -0.034 A 
ATOM     62  C30 non d ame     -35.925  16.965  25.551  0.00  0.00    -0.075 A 
ATOM     63  C31 non d ame     -36.509  15.813  25.024  0.00  0.00    -0.082 A 
ATOM     64  H49 non d ame     -35.113  16.884  26.273  0.00  0.00     0.084 H 
ATOM     65  C32 non d ame     -37.548  15.920  24.095  0.00  0.00    -0.083 A 
ATOM     66  H50 non d ame     -36.153  14.832  25.338  0.00  0.00     0.083 H 
ATOM     67  C33 non d ame     -37.994  17.173  23.700  0.00  0.00    -0.082 A 
ATOM     68  H51 non d ame     -38.010  15.024  23.680  0.00  0.00     0.083 H 
ATOM     69  C34 non d ame     -37.415  18.327  24.226  0.00  0.00    -0.075 A 
ATOM     70  H52 non d ame     -38.804  17.254  22.974  0.00  0.00     0.083 H 
ATOM     71  H53 non d ame     -37.772  19.308  23.911  0.00  0.00     0.084 H 
ENDBRANCH  58  61
ENDBRANCH  57  58
ENDBRANCH  55  57
ENDBRANCH  52  55
ENDBRANCH  49  52
ENDBRANCH  47  49
BRANCH  47  72
ATOM     72  C24 non d ame     -32.647  15.614  28.724  0.00  0.00    -0.039 C 
ATOM     73  H35 non d ame     -32.289  16.489  29.268  0.00  0.00     0.036 H 
ATOM     74  H36 non d ame     -33.638  15.211  28.932  0.00  0.00     0.036 H 
BRANCH  72  75
ATOM     75  C25 non d ame     -31.593  14.435  28.979  0.00  0.00    -0.001 C 
ATOM     76  C26 non d ame     -32.387  13.057  29.395  0.00  0.00    -0.035 C 
ATOM     77  C27 non d ame     -31.841  12.565  30.533  0.00  0.00     0.085 C 
ATOM     78  H38 non d ame     -33.412  13.288  29.684  0.00  0.00     0.036 H 
ATOM     79  H39 non d ame     -32.190  12.276  28.660  0.00  0.00     0.036 H 
ATOM     80  N5  non d ame     -30.968  13.653  31.109  0.00  0.00    -0.049 N 
ATOM     81  H40 non d ame     -32.680  12.389  31.207  0.00  0.00     0.075 H 
ATOM     82  H41 non d ame     -31.211  11.733  30.218  0.00  0.00     0.075 H 
ATOM     83  C28 non d ame     -30.773  14.738  29.929  0.00  0.00     0.193 C 
ATOM     84  H42 non d ame     -31.497  14.081  31.855  0.00  0.00     0.280 HD
ATOM     85  H43 non d ame     -30.072  13.227  31.305  0.00  0.00     0.280 HD
ATOM     86  H44 non d ame     -29.838  14.791  29.374  0.00  0.00     0.129 H 
ATOM     87  H37 non d ame     -30.855  14.360  28.181  0.00  0.00     0.046 H 
BRANCH  83  88
ATOM     88  O6  non d ame     -30.994  16.057  30.432  0.00  0.00    -0.369 OA
ATOM     89  H45 non d ame     -31.256  16.634  29.711  0.00  0.00     0.212 HD
ENDBRANCH  83  88
ENDBRANCH  72  75
ENDBRANCH  47  72
ENDBRANCH  45  47
ENDBRANCH   1  43
BRANCH   1  90
ATOM     90  C16 non d ame     -31.052  14.550  22.748  0.00  0.00    -0.035 C 
ATOM     91  H21 non d ame     -31.780  13.969  22.181  0.00  0.00     0.037 H 
ATOM     92  H22 non d ame     -31.166  15.630  22.834  0.00  0.00     0.037 H 
BRANCH  90  93
ATOM     93  C17 non d ame     -29.668  14.305  22.067  0.00  0.00    -0.059 C 
ATOM     94  H23 non d ame     -29.729  14.684  21.047  0.00  0.00     0.038 H 
BRANCH  93  95
ATOM     95  C18 non d ame     -28.512  15.066  22.791  0.00  0.00    -0.073 C 
ATOM     96  H24 non d ame     -28.111  14.442  23.590  0.00  0.00     0.028 H 
ATOM     97  H25 non d ame     -27.721  15.291  22.076  0.00  0.00     0.028 H 
ATOM     98  H26 non d ame     -28.896  15.994  23.213  0.00  0.00     0.028 H 
ENDBRANCH  93  95
BRANCH  93  99
ATOM     99  C19 non d ame     -29.361  12.807  21.977  0.00  0.00    -0.073 C 
ATOM    100  H27 non d ame     -28.588  12.550  22.703  0.00  0.00     0.028 H 
ATOM    101  H28 non d ame     -30.264  12.237  22.194  0.00  0.00     0.028 H 
ATOM    102  H29 non d ame     -29.012  12.567  20.974  0.00  0.00     0.028 H 
ENDBRANCH  93  99
ENDBRANCH  90  93
ENDBRANCH   1  90
TORSDOF 26
ENDMDL
MODEL 9
REMARK VINA RESULT:      -7.0      3.207      8.429
REMARK  26 active torsions:
REMARK  status: ('A' for Active; 'I' for Inactive)
REMARK    1  A    between atoms: C2_2  and  C3_3 
REMARK    2  A    between atoms: C4_6  and  C5_7 
REMARK       I    between atoms: C5_7  and  N2_9 
REMARK    3  A    between atoms: N2_9  and  C6_10 
REMARK    4  A    between atoms: C6_10  and  C7_11 
REMARK    5  A    between atoms: C6_10  and  C8_13 
REMARK       I    between atoms: C7_11  and  N3_14 
REMARK    6  A    between atoms: N3_14  and  C9_15 
REMARK    7  A    between atoms: C9_15  and  C10_16 
REMARK    8  A    between atoms: C9_15  and  C11_18 
REMARK       I    between atoms: C10_16  and  N4_21 
REMARK    9  A    between atoms: C11_18  and  C12_19 
REMARK   10  A    between atoms: C11_18  and  C13_20 
REMARK   11  A    between atoms: N4_21  and  C14_22 
REMARK   12  A    between atoms: C14_22  and  C15_23 
REMARK   13  A    between atoms: C14_22  and  C16_25 
REMARK       I    between atoms: C15_23  and  N6_40 
REMARK   14  A    between atoms: C16_25  and  C17_26 
REMARK   15  A    between atoms: C17_26  and  C18_27 
REMARK   16  A    between atoms: C17_26  and  C19_28 
REMARK   17  A    between atoms: C20_29  and  C21_30 
REMARK   18  A    between atoms: C20_29  and  C24_33 
REMARK   19  A    between atoms: C20_29  and  N6_40 
REMARK   20  A    between atoms: C21_30  and  C22_31 
REMARK   21  A    between atoms: C22_31  and  C23_32 
REMARK   22  A    between atoms: C23_32  and  O8_43 
REMARK   23  A    between atoms: C24_33  and  C25_34 
REMARK   24  A    between atoms: C28_38  and  O6_39 
REMARK   25  A    between atoms: C29_42  and  O8_43 
REMARK   26  A    between atoms: C29_42  and  C35_49 
ROOT
ATOM      1  C14 non d ame     -35.243   9.837  29.587  0.00  0.00     0.089 C 
ATOM      2  H20 non d ame     -34.706   9.093  30.176  0.00  0.00     0.087 H 
ENDROOT
BRANCH   1   3
ATOM      3  N4  non d ame     -34.366  10.988  29.430  0.00  0.00    -0.346 N 
ATOM      4  C10 non d ame     -32.922  10.797  29.036  0.00  0.00     0.241 C 
ATOM      5  O4  non d ame     -32.489   9.708  28.856  0.00  0.00    -0.271 OA
ATOM      6  H19 non d ame     -34.755  11.906  29.590  0.00  0.00     0.163 HD
BRANCH   4   7
ATOM      7  C9  non d ame     -32.031  12.000  28.872  0.00  0.00     0.092 C 
ATOM      8  H11 non d ame     -31.140  11.712  28.314  0.00  0.00     0.088 H 
BRANCH   7   9
ATOM      9  N3  non d ame     -32.726  13.020  28.083  0.00  0.00    -0.346 N 
ATOM     10  C7  non d ame     -32.271  13.336  26.752  0.00  0.00     0.240 C 
ATOM     11  O3  non d ame     -31.345  12.780  26.300  0.00  0.00    -0.271 OA
ATOM     12  H10 non d ame     -33.525  13.510  28.460  0.00  0.00     0.163 HD
BRANCH  10  13
ATOM     13  C6  non d ame     -33.014  14.426  25.918  0.00  0.00     0.086 C 
ATOM     14  H6  non d ame     -32.939  15.419  26.360  0.00  0.00     0.086 H 
BRANCH  13  15
ATOM     15  N2  non d ame     -32.401  14.511  24.602  0.00  0.00    -0.343 N 
ATOM     16  C5  non d ame     -31.365  15.515  24.352  0.00  0.00     0.273 C 
ATOM     17  O2  non d ame     -31.033  16.251  25.215  0.00  0.00    -0.266 OA
ATOM     18  H5  non d ame     -32.694  13.880  23.870  0.00  0.00     0.163 HD
BRANCH  16  19
ATOM     19  C4  non d ame     -30.708  15.614  22.967  0.00  0.00     0.154 A 
ATOM     20  C1  non d ame     -31.367  15.776  21.707  0.00  0.00    -0.017 A 
ATOM     21  C2  non d ame     -30.325  15.811  20.753  0.00  0.00     0.077 A 
ATOM     22  H1  non d ame     -32.437  15.854  21.513  0.00  0.00     0.091 H 
ATOM     23  O1  non d ame     -29.203  15.687  21.401  0.00  0.00    -0.218 OA
ATOM     24  N1  non d ame     -29.402  15.570  22.693  0.00  0.00    -0.123 NA
BRANCH  21  25
ATOM     25  C3  non d ame     -30.487  15.967  19.247  0.00  0.00    -0.029 C 
ATOM     26  H2  non d ame     -31.545  16.062  19.002  0.00  0.00     0.036 H 
ATOM     27  H3  non d ame     -29.957  16.860  18.916  0.00  0.00     0.036 H 
ATOM     28  H4  non d ame     -30.075  15.093  18.744  0.00  0.00     0.036 H 
ENDBRANCH  21  25
ENDBRANCH  16  19
ENDBRANCH  13  15
BRANCH  13  29
ATOM     29  C8  non d ame     -34.470  14.057  25.787  0.00  0.00    -0.049 C 
ATOM     30  H7  non d ame     -34.564  12.976  25.693  0.00  0.00     0.030 H 
ATOM     31  H8  non d ame     -35.010  14.394  26.672  0.00  0.00     0.030 H 
ATOM     32  H9  non d ame     -34.888  14.537  24.902  0.00  0.00     0.030 H 
ENDBRANCH  13  29
ENDBRANCH  10  13
ENDBRANCH   7   9
BRANCH   7  33
ATOM     33  C11 non d ame     -31.680  12.580  30.273  0.00  0.00    -0.033 C 
ATOM     34  H12 non d ame     -32.593  12.571  30.870  0.00  0.00     0.042 H 
BRANCH  33  35
ATOM     35  C12 non d ame     -30.629  11.693  31.010  0.00  0.00    -0.071 C 
ATOM     36  H13 non d ame     -31.143  10.934  31.599  0.00  0.00     0.028 H 
ATOM     37  H14 non d ame     -29.985  11.209  30.277  0.00  0.00     0.028 H 
ATOM     38  H15 non d ame     -30.026  12.316  31.670  0.00  0.00     0.028 H 
ENDBRANCH  33  35
BRANCH  33  39
ATOM     39  C13 non d ame     -31.192  14.060  30.159  0.00  0.00    -0.071 C 
ATOM     40  H16 non d ame     -30.506  14.281  30.977  0.00  0.00     0.028 H 
ATOM     41  H17 non d ame     -30.681  14.202  29.207  0.00  0.00     0.028 H 
ATOM     42  H18 non d ame     -32.049  14.730  30.213  0.00  0.00     0.028 H 
ENDBRANCH  33  39
ENDBRANCH   7  33
ENDBRANCH   4   7
ENDBRANCH   1   3
BRANCH   1  43
ATOM     43  C15 non d ame     -35.624   9.308  28.176  0.00  0.00     0.240 C 
ATOM     44  O5  non d ame     -36.534   9.796  27.587  0.00  0.00    -0.271 OA
ATOM     45  N6  non d ame     -34.850   8.197  27.553  0.00  0.00    -0.355 N 
ATOM     46  H46 non d ame     -34.072   7.777  28.043  0.00  0.00     0.162 HD
BRANCH  45  47
ATOM     47  C20 non d ame     -35.223   7.705  26.209  0.00  0.00     0.013 C 
ATOM     48  H30 non d ame     -35.919   8.421  25.772  0.00  0.00     0.072 H 
BRANCH  47  49
ATOM     49  C21 non d ame     -35.887   6.352  26.338  0.00  0.00    -0.038 C 
ATOM     50  H31 non d ame     -36.932   6.559  26.579  0.00  0.00     0.036 H 
ATOM     51  H32 non d ame     -35.635   5.812  25.427  0.00  0.00     0.036 H 
BRANCH  49  52
ATOM     52  C22 non d ame     -35.327   5.519  27.510  0.00  0.00     0.018 C 
ATOM     53  H33 non d ame     -34.549   6.131  27.963  0.00  0.00     0.048 H 
ATOM     54  H34 non d ame     -36.195   5.218  28.099  0.00  0.00     0.048 H 
BRANCH  52  55
ATOM     55  C23 non d ame     -34.633   4.202  27.067  0.00  0.00     0.259 C 
ATOM     56  O7  non d ame     -34.920   3.685  26.036  0.00  0.00    -0.265 OA
BRANCH  55  57
ATOM     57  O8  non d ame     -33.657   3.608  27.915  0.00  0.00    -0.317 OA
BRANCH  57  58
ATOM     58  C29 non d ame     -32.894   4.552  28.673  0.00  0.00     0.052 C 
ATOM     59  H47 non d ame     -31.855   4.390  28.386  0.00  0.00     0.082 H 
ATOM     60  H48 non d ame     -33.364   5.520  28.499  0.00  0.00     0.082 H 
BRANCH  58  61
ATOM     61  C35 non d ame     -33.049   4.196  30.177  0.00  0.00    -0.034 A 
ATOM     62  C30 non d ame     -34.045   4.801  30.936  0.00  0.00    -0.075 A 
ATOM     63  C31 non d ame     -34.184   4.482  32.287  0.00  0.00    -0.082 A 
ATOM     64  H49 non d ame     -34.716   5.526  30.475  0.00  0.00     0.084 H 
ATOM     65  C32 non d ame     -33.321   3.555  32.877  0.00  0.00    -0.083 A 
ATOM     66  H50 non d ame     -34.967   4.957  32.879  0.00  0.00     0.083 H 
ATOM     67  C33 non d ame     -32.326   2.956  32.116  0.00  0.00    -0.082 A 
ATOM     68  H51 non d ame     -33.423   3.299  33.932  0.00  0.00     0.083 H 
ATOM     69  C34 non d ame     -32.185   3.271  30.765  0.00  0.00    -0.075 A 
ATOM     70  H52 non d ame     -31.653   2.235  32.579  0.00  0.00     0.083 H 
ATOM     71  H53 non d ame     -31.402   2.795  30.174  0.00  0.00     0.084 H 
ENDBRANCH  58  61
ENDBRANCH  57  58
ENDBRANCH  55  57
ENDBRANCH  52  55
ENDBRANCH  49  52
ENDBRANCH  47  49
BRANCH  47  72
ATOM     72  C24 non d ame     -33.974   7.579  25.339  0.00  0.00    -0.039 C 
ATOM     73  H35 non d ame     -33.189   7.227  26.010  0.00  0.00     0.036 H 
ATOM     74  H36 non d ame     -34.275   6.971  24.487  0.00  0.00     0.036 H 
BRANCH  72  75
ATOM     75  C25 non d ame     -33.506   8.999  24.766  0.00  0.00    -0.001 C 
ATOM     76  C26 non d ame     -33.237   8.887  23.148  0.00  0.00    -0.035 C 
ATOM     77  C27 non d ame     -32.009   9.390  22.873  0.00  0.00     0.085 C 
ATOM     78  H38 non d ame     -33.157   7.841  22.853  0.00  0.00     0.036 H 
ATOM     79  H39 non d ame     -33.911   9.555  22.610  0.00  0.00     0.036 H 
ATOM     80  N5  non d ame     -31.286   9.530  24.191  0.00  0.00    -0.049 N 
ATOM     81  H40 non d ame     -31.510   8.628  22.274  0.00  0.00     0.075 H 
ATOM     82  H41 non d ame     -32.186  10.381  22.458  0.00  0.00     0.075 H 
ATOM     83  C28 non d ame     -32.417   9.397  25.335  0.00  0.00     0.193 C 
ATOM     84  H42 non d ame     -30.662   8.740  24.261  0.00  0.00     0.280 HD
ATOM     85  H43 non d ame     -30.914  10.470  24.213  0.00  0.00     0.280 HD
ATOM     86  H44 non d ame     -32.779  10.280  25.861  0.00  0.00     0.129 H 
ATOM     87  H37 non d ame     -34.144   9.814  25.108  0.00  0.00     0.046 H 
BRANCH  83  88
ATOM     88  O6  non d ame     -31.981   8.497  26.356  0.00  0.00    -0.369 OA
ATOM     89  H45 non d ame     -32.341   8.774  27.201  0.00  0.00     0.212 HD
ENDBRANCH  83  88
ENDBRANCH  72  75
ENDBRANCH  47  72
ENDBRANCH  45  47
ENDBRANCH   1  43
BRANCH   1  90
ATOM     90  C16 non d ame     -36.499  10.270  30.328  0.00  0.00    -0.035 C 
ATOM     91  H21 non d ame     -36.327  11.308  30.607  0.00  0.00     0.037 H 
ATOM     92  H22 non d ame     -37.326  10.013  29.666  0.00  0.00     0.037 H 
BRANCH  90  93
ATOM     93  C17 non d ame     -36.741   9.491  31.660  0.00  0.00    -0.059 C 
ATOM     94  H23 non d ame     -37.026  10.217  32.421  0.00  0.00     0.038 H 
BRANCH  93  95
ATOM     95  C18 non d ame     -37.901   8.453  31.533  0.00  0.00    -0.073 C 
ATOM     96  H24 non d ame     -37.585   7.500  31.957  0.00  0.00     0.028 H 
ATOM     97  H25 non d ame     -38.776   8.817  32.073  0.00  0.00     0.028 H 
ATOM     98  H26 non d ame     -38.155   8.317  30.482  0.00  0.00     0.028 H 
ENDBRANCH  93  95
BRANCH  93  99
ATOM     99  C19 non d ame     -35.454   8.813  32.137  0.00  0.00    -0.073 C 
ATOM    100  H27 non d ame     -35.447   7.773  31.808  0.00  0.00     0.028 H 
ATOM    101  H28 non d ame     -34.592   9.331  31.717  0.00  0.00     0.028 H 
ATOM    102  H29 non d ame     -35.405   8.850  33.225  0.00  0.00     0.028 H 
ENDBRANCH  93  99
ENDBRANCH  90  93
ENDBRANCH   1  90
TORSDOF 26
ENDMDL
MODEL 10
REMARK VINA RESULT:      -7.0      2.261      5.101
REMARK  26 active torsions:
REMARK  status: ('A' for Active; 'I' for Inactive)
REMARK    1  A    between atoms: C2_2  and  C3_3 
REMARK    2  A    between atoms: C4_6  and  C5_7 
REMARK       I    between atoms: C5_7  and  N2_9 
REMARK    3  A    between atoms: N2_9  and  C6_10 
REMARK    4  A    between atoms: C6_10  and  C7_11 
REMARK    5  A    between atoms: C6_10  and  C8_13 
REMARK       I    between atoms: C7_11  and  N3_14 
REMARK    6  A    between atoms: N3_14  and  C9_15 
REMARK    7  A    between atoms: C9_15  and  C10_16 
REMARK    8  A    between atoms: C9_15  and  C11_18 
REMARK       I    between atoms: C10_16  and  N4_21 
REMARK    9  A    between atoms: C11_18  and  C12_19 
REMARK   10  A    between atoms: C11_18  and  C13_20 
REMARK   11  A    between atoms: N4_21  and  C14_22 
REMARK   12  A    between atoms: C14_22  and  C15_23 
REMARK   13  A    between atoms: C14_22  and  C16_25 
REMARK       I    between atoms: C15_23  and  N6_40 
REMARK   14  A    between atoms: C16_25  and  C17_26 
REMARK   15  A    between atoms: C17_26  and  C18_27 
REMARK   16  A    between atoms: C17_26  and  C19_28 
REMARK   17  A    between atoms: C20_29  and  C21_30 
REMARK   18  A    between atoms: C20_29  and  C24_33 
REMARK   19  A    between atoms: C20_29  and  N6_40 
REMARK   20  A    between atoms: C21_30  and  C22_31 
REMARK   21  A    between atoms: C22_31  and  C23_32 
REMARK   22  A    between atoms: C23_32  and  O8_43 
REMARK   23  A    between atoms: C24_33  and  C25_34 
REMARK   24  A    between atoms: C28_38  and  O6_39 
REMARK   25  A    between atoms: C29_42  and  O8_43 
REMARK   26  A    between atoms: C29_42  and  C35_49 
ROOT
ATOM      1  C14 non d ame     -30.986  14.676  23.800  0.00  0.00     0.089 C 
ATOM      2  H20 non d ame     -29.907  14.819  23.876  0.00  0.00     0.087 H 
ENDROOT
BRANCH   1   3
ATOM      3  N4  non d ame     -31.269  13.289  24.138  0.00  0.00    -0.346 N 
ATOM      4  C10 non d ame     -30.575  12.169  23.403  0.00  0.00     0.241 C 
ATOM      5  O4  non d ame     -29.796  12.409  22.542  0.00  0.00    -0.271 OA
ATOM      6  H19 non d ame     -31.938  13.107  24.873  0.00  0.00     0.163 HD
BRANCH   4   7
ATOM      7  C9  non d ame     -30.876  10.740  23.771  0.00  0.00     0.092 C 
ATOM      8  H11 non d ame     -30.207  10.427  24.572  0.00  0.00     0.088 H 
BRANCH   7   9
ATOM      9  N3  non d ame     -32.244  10.645  24.287  0.00  0.00    -0.346 N 
ATOM     10  C7  non d ame     -32.484  10.693  25.708  0.00  0.00     0.240 C 
ATOM     11  O3  non d ame     -31.586  10.806  26.451  0.00  0.00    -0.271 OA
ATOM     12  H10 non d ame     -33.029  10.546  23.659  0.00  0.00     0.163 HD
BRANCH  10  13
ATOM     13  C6  non d ame     -33.942  10.589  26.252  0.00  0.00     0.086 C 
ATOM     14  H6  non d ame     -34.025  10.885  27.298  0.00  0.00     0.086 H 
BRANCH  13  15
ATOM     15  N2  non d ame     -34.793  11.493  25.496  0.00  0.00    -0.343 N 
ATOM     16  C5  non d ame     -35.046  12.842  26.007  0.00  0.00     0.273 C 
ATOM     17  O2  non d ame     -34.563  13.189  27.028  0.00  0.00    -0.266 OA
ATOM     18  H5  non d ame     -35.205  11.187  24.626  0.00  0.00     0.163 HD
BRANCH  16  19
ATOM     19  C4  non d ame     -35.942  13.809  25.217  0.00  0.00     0.154 A 
ATOM     20  C1  non d ame     -35.988  15.234  25.331  0.00  0.00    -0.017 A 
ATOM     21  C2  non d ame     -36.965  15.643  24.397  0.00  0.00     0.077 A 
ATOM     22  H1  non d ame     -35.403  15.874  25.992  0.00  0.00     0.091 H 
ATOM     23  O1  non d ame     -37.419  14.570  23.817  0.00  0.00    -0.218 OA
ATOM     24  N1  non d ame     -36.837  13.488  24.280  0.00  0.00    -0.123 NA
BRANCH  21  25
ATOM     25  C3  non d ame     -37.404  17.074  24.119  0.00  0.00    -0.029 C 
ATOM     26  H2  non d ame     -36.607  17.761  24.404  0.00  0.00     0.036 H 
ATOM     27  H3  non d ame     -37.618  17.189  23.056  0.00  0.00     0.036 H 
ATOM     28  H4  non d ame     -38.300  17.299  24.696  0.00  0.00     0.036 H 
ENDBRANCH  21  25
ENDBRANCH  16  19
ENDBRANCH  13  15
BRANCH  13  29
ATOM     29  C8  non d ame     -34.436   9.171  26.106  0.00  0.00    -0.049 C 
ATOM     30  H7  non d ame     -33.829   8.650  25.367  0.00  0.00     0.030 H 
ATOM     31  H8  non d ame     -34.359   8.660  27.065  0.00  0.00     0.030 H 
ATOM     32  H9  non d ame     -35.477   9.181  25.781  0.00  0.00     0.030 H 
ENDBRANCH  13  29
ENDBRANCH  10  13
ENDBRANCH   7   9
BRANCH   7  33
ATOM     33  C11 non d ame     -30.737   9.840  22.508  0.00  0.00    -0.033 C 
ATOM     34  H12 non d ame     -30.728  10.496  21.637  0.00  0.00     0.042 H 
BRANCH  33  35
ATOM     35  C12 non d ame     -29.390   9.052  22.516  0.00  0.00    -0.071 C 
ATOM     36  H13 non d ame     -28.748   9.438  23.307  0.00  0.00     0.028 H 
ATOM     37  H14 non d ame     -29.589   7.996  22.693  0.00  0.00     0.028 H 
ATOM     38  H15 non d ame     -28.892   9.173  21.554  0.00  0.00     0.028 H 
ENDBRANCH  33  35
BRANCH  33  39
ATOM     39  C13 non d ame     -31.958   8.875  22.372  0.00  0.00    -0.071 C 
ATOM     40  H16 non d ame     -31.900   8.104  23.141  0.00  0.00     0.028 H 
ATOM     41  H17 non d ame     -32.883   9.439  22.492  0.00  0.00     0.028 H 
ATOM     42  H18 non d ame     -31.944   8.408  21.388  0.00  0.00     0.028 H 
ENDBRANCH  33  39
ENDBRANCH   7  33
ENDBRANCH   4   7
ENDBRANCH   1   3
BRANCH   1  43
ATOM     43  C15 non d ame     -31.771  15.595  24.779  0.00  0.00     0.240 C 
ATOM     44  O5  non d ame     -32.205  16.632  24.396  0.00  0.00    -0.271 OA
ATOM     45  N6  non d ame     -31.989  15.177  26.193  0.00  0.00    -0.355 N 
ATOM     46  H46 non d ame     -31.629  14.295  26.529  0.00  0.00     0.162 HD
BRANCH  45  47
ATOM     47  C20 non d ame     -32.739  16.061  27.112  0.00  0.00     0.013 C 
ATOM     48  H30 non d ame     -33.749  16.175  26.717  0.00  0.00     0.072 H 
BRANCH  47  49
ATOM     49  C21 non d ame     -32.055  17.408  27.180  0.00  0.00    -0.038 C 
ATOM     50  H31 non d ame     -31.312  17.321  27.974  0.00  0.00     0.036 H 
ATOM     51  H32 non d ame     -31.741  17.629  26.160  0.00  0.00     0.036 H 
BRANCH  49  52
ATOM     52  C22 non d ame     -33.011  18.545  27.600  0.00  0.00     0.018 C 
ATOM     53  H33 non d ame     -33.885  18.054  28.025  0.00  0.00     0.048 H 
ATOM     54  H34 non d ame     -32.413  19.220  28.215  0.00  0.00     0.048 H 
BRANCH  52  55
ATOM     55  C23 non d ame     -33.532  19.397  26.411  0.00  0.00     0.259 C 
ATOM     56  O7  non d ame     -32.988  20.410  26.110  0.00  0.00    -0.265 OA
BRANCH  55  57
ATOM     57  O8  non d ame     -34.679  18.961  25.691  0.00  0.00    -0.317 OA
BRANCH  57  58
ATOM     58  C29 non d ame     -35.811  19.827  25.822  0.00  0.00     0.052 C 
ATOM     59  H47 non d ame     -35.414  20.840  25.779  0.00  0.00     0.082 H 
ATOM     60  H48 non d ame     -36.529  19.490  25.074  0.00  0.00     0.082 H 
BRANCH  58  61
ATOM     61  C35 non d ame     -36.427  19.601  27.229  0.00  0.00    -0.034 A 
ATOM     62  C30 non d ame     -36.776  18.317  27.638  0.00  0.00    -0.075 A 
ATOM     63  C31 non d ame     -37.329  18.114  28.902  0.00  0.00    -0.082 A 
ATOM     64  H49 non d ame     -36.616  17.472  26.970  0.00  0.00     0.084 H 
ATOM     65  C32 non d ame     -37.536  19.201  29.756  0.00  0.00    -0.083 A 
ATOM     66  H50 non d ame     -37.600  17.107  29.220  0.00  0.00     0.083 H 
ATOM     67  C33 non d ame     -37.190  20.479  29.342  0.00  0.00    -0.082 A 
ATOM     68  H51 non d ame     -37.968  19.050  30.745  0.00  0.00     0.083 H 
ATOM     69  C34 non d ame     -36.635  20.687  28.080  0.00  0.00    -0.075 A 
ATOM     70  H52 non d ame     -37.355  21.326  30.009  0.00  0.00     0.083 H 
ATOM     71  H53 non d ame     -36.364  21.694  27.763  0.00  0.00     0.084 H 
ENDBRANCH  58  61
ENDBRANCH  57  58
ENDBRANCH  55  57
ENDBRANCH  52  55
ENDBRANCH  49  52
ENDBRANCH  47  49
BRANCH  47  72
ATOM     72  C24 non d ame     -32.783  15.439  28.506  0.00  0.00    -0.039 C 
ATOM     73  H35 non d ame     -32.797  16.282  29.198  0.00  0.00     0.036 H 
ATOM     74  H36 non d ame     -33.616  14.738  28.485  0.00  0.00     0.036 H 
BRANCH  72  75
ATOM     75  C25 non d ame     -31.460  14.592  28.819  0.00  0.00    -0.001 C 
ATOM     76  C26 non d ame     -31.856  13.024  29.111  0.00  0.00    -0.035 C 
ATOM     77  C27 non d ame     -31.286  12.639  30.278  0.00  0.00     0.085 C 
ATOM     78  H38 non d ame     -32.924  12.938  29.309  0.00  0.00     0.036 H 
ATOM     79  H39 non d ame     -31.385  12.376  28.372  0.00  0.00     0.036 H 
ATOM     80  N5  non d ame     -30.811  13.893  30.971  0.00  0.00    -0.049 N 
ATOM     81  H40 non d ame     -32.091  12.193  30.863  0.00  0.00     0.075 H 
ATOM     82  H41 non d ame     -30.420  12.040  29.996  0.00  0.00     0.075 H 
ATOM     83  C28 non d ame     -30.840  15.057  29.853  0.00  0.00     0.193 C 
ATOM     84  H42 non d ame     -31.499  14.108  31.678  0.00  0.00     0.280 HD
ATOM     85  H43 non d ame     -29.850  13.726  31.237  0.00  0.00     0.280 HD
ATOM     86  H44 non d ame     -29.918  15.405  29.391  0.00  0.00     0.129 H 
ATOM     87  H37 non d ame     -30.669  14.777  28.093  0.00  0.00     0.046 H 
BRANCH  83  88
ATOM     88  O6  non d ame     -31.470  16.228  30.378  0.00  0.00    -0.369 OA
ATOM     89  H45 non d ame     -30.801  16.829  30.712  0.00  0.00     0.212 HD
ENDBRANCH  83  88
ENDBRANCH  72  75
ENDBRANCH  47  72
ENDBRANCH  45  47
ENDBRANCH   1  43
BRANCH   1  90
ATOM     90  C16 non d ame     -31.441  14.942  22.374  0.00  0.00    -0.035 C 
ATOM     91  H21 non d ame     -31.487  13.963  21.898  0.00  0.00     0.037 H 
ATOM     92  H22 non d ame     -32.343  15.546  22.466  0.00  0.00     0.037 H 
BRANCH  90  93
ATOM     93  C17 non d ame     -30.427  15.788  21.540  0.00  0.00    -0.059 C 
ATOM     94  H23 non d ame     -30.661  16.840  21.701  0.00  0.00     0.038 H 
BRANCH  93  95
ATOM     95  C18 non d ame     -28.950  15.553  21.993  0.00  0.00    -0.073 C 
ATOM     96  H24 non d ame     -28.850  14.547  22.399  0.00  0.00     0.028 H 
ATOM     97  H25 non d ame     -28.285  15.666  21.137  0.00  0.00     0.028 H 
ATOM     98  H26 non d ame     -28.684  16.282  22.758  0.00  0.00     0.028 H 
ENDBRANCH  93  95
BRANCH  93  99
ATOM     99  C19 non d ame     -30.587  15.512  20.042  0.00  0.00    -0.073 C 
ATOM    100  H27 non d ame     -29.611  15.294  19.606  0.00  0.00     0.028 H 
ATOM    101  H28 non d ame     -31.246  14.656  19.899  0.00  0.00     0.028 H 
ATOM    102  H29 non d ame     -31.016  16.386  19.555  0.00  0.00     0.028 H 
ENDBRANCH  93  99
ENDBRANCH  90  93
ENDBRANCH   1  90
TORSDOF 26
ENDMDL
MODEL 11
REMARK VINA RESULT:      -7.0      2.503      8.821
REMARK  26 active torsions:
REMARK  status: ('A' for Active; 'I' for Inactive)
REMARK    1  A    between atoms: C2_2  and  C3_3 
REMARK    2  A    between atoms: C4_6  and  C5_7 
REMARK       I    between atoms: C5_7  and  N2_9 
REMARK    3  A    between atoms: N2_9  and  C6_10 
REMARK    4  A    between atoms: C6_10  and  C7_11 
REMARK    5  A    between atoms: C6_10  and  C8_13 
REMARK       I    between atoms: C7_11  and  N3_14 
REMARK    6  A    between atoms: N3_14  and  C9_15 
REMARK    7  A    between atoms: C9_15  and  C10_16 
REMARK    8  A    between atoms: C9_15  and  C11_18 
REMARK       I    between atoms: C10_16  and  N4_21 
REMARK    9  A    between atoms: C11_18  and  C12_19 
REMARK   10  A    between atoms: C11_18  and  C13_20 
REMARK   11  A    between atoms: N4_21  and  C14_22 
REMARK   12  A    between atoms: C14_22  and  C15_23 
REMARK   13  A    between atoms: C14_22  and  C16_25 
REMARK       I    between atoms: C15_23  and  N6_40 
REMARK   14  A    between atoms: C16_25  and  C17_26 
REMARK   15  A    between atoms: C17_26  and  C18_27 
REMARK   16  A    between atoms: C17_26  and  C19_28 
REMARK   17  A    between atoms: C20_29  and  C21_30 
REMARK   18  A    between atoms: C20_29  and  C24_33 
REMARK   19  A    between atoms: C20_29  and  N6_40 
REMARK   20  A    between atoms: C21_30  and  C22_31 
REMARK   21  A    between atoms: C22_31  and  C23_32 
REMARK   22  A    between atoms: C23_32  and  O8_43 
REMARK   23  A    between atoms: C24_33  and  C25_34 
REMARK   24  A    between atoms: C28_38  and  O6_39 
REMARK   25  A    between atoms: C29_42  and  O8_43 
REMARK   26  A    between atoms: C29_42  and  C35_49 
ROOT
ATOM      1  C14 non d ame     -37.427  13.985  25.110  0.00  0.00     0.089 C 
ATOM      2  H20 non d ame     -38.480  14.003  25.390  0.00  0.00     0.087 H 
ENDROOT
BRANCH   1   3
ATOM      3  N4  non d ame     -36.889  15.316  25.347  0.00  0.00    -0.346 N 
ATOM      4  C10 non d ame     -37.502  16.210  26.396  0.00  0.00     0.241 C 
ATOM      5  O4  non d ame     -38.430  15.838  27.034  0.00  0.00    -0.271 OA
ATOM      6  H19 non d ame     -36.100  15.615  24.791  0.00  0.00     0.163 HD
BRANCH   4   7
ATOM      7  C9  non d ame     -36.928  17.583  26.632  0.00  0.00     0.092 C 
ATOM      8  H11 non d ame     -37.316  17.977  27.571  0.00  0.00     0.088 H 
BRANCH   7   9
ATOM      9  N3  non d ame     -35.472  17.487  26.770  0.00  0.00    -0.346 N 
ATOM     10  C7  non d ame     -34.806  18.157  27.860  0.00  0.00     0.240 C 
ATOM     11  O3  non d ame     -35.427  18.779  28.634  0.00  0.00    -0.271 OA
ATOM     12  H10 non d ame     -34.923  16.956  26.110  0.00  0.00     0.163 HD
BRANCH  10  13
ATOM     13  C6  non d ame     -33.256  18.054  28.001  0.00  0.00     0.086 C 
ATOM     14  H6  non d ame     -32.883  18.521  28.912  0.00  0.00     0.086 H 
BRANCH  13  15
ATOM     15  N2  non d ame     -32.881  16.651  28.070  0.00  0.00    -0.343 N 
ATOM     16  C5  non d ame     -32.081  16.173  29.200  0.00  0.00     0.273 C 
ATOM     17  O2  non d ame     -31.743  16.925  30.047  0.00  0.00    -0.266 OA
ATOM     18  H5  non d ame     -33.171  16.017  27.340  0.00  0.00     0.163 HD
BRANCH  16  19
ATOM     19  C4  non d ame     -31.680  14.693  29.286  0.00  0.00     0.154 A 
ATOM     20  C1  non d ame     -32.472  13.609  29.780  0.00  0.00    -0.017 A 
ATOM     21  C2  non d ame     -31.652  12.466  29.645  0.00  0.00     0.077 A 
ATOM     22  H1  non d ame     -33.487  13.645  30.178  0.00  0.00     0.091 H 
ATOM     23  O1  non d ame     -30.524  12.859  29.129  0.00  0.00    -0.218 OA
ATOM     24  N1  non d ame     -30.516  14.154  28.912  0.00  0.00    -0.123 NA
BRANCH  21  25
ATOM     25  C3  non d ame     -32.022  11.040  30.028  0.00  0.00    -0.029 C 
ATOM     26  H2  non d ame     -31.541  10.781  30.972  0.00  0.00     0.036 H 
ATOM     27  H3  non d ame     -33.103  10.962  30.140  0.00  0.00     0.036 H 
ATOM     28  H4  non d ame     -31.686  10.355  29.250  0.00  0.00     0.036 H 
ENDBRANCH  21  25
ENDBRANCH  16  19
ENDBRANCH  13  15
BRANCH  13  29
ATOM     29  C8  non d ame     -32.596  18.707  26.812  0.00  0.00    -0.049 C 
ATOM     30  H7  non d ame     -32.221  17.939  26.137  0.00  0.00     0.030 H 
ATOM     31  H8  non d ame     -33.324  19.327  26.289  0.00  0.00     0.030 H 
ATOM     32  H9  non d ame     -31.767  19.328  27.153  0.00  0.00     0.030 H 
ENDBRANCH  13  29
ENDBRANCH  10  13
ENDBRANCH   7   9
BRANCH   7  33
ATOM     33  C11 non d ame     -37.272  18.503  25.424  0.00  0.00    -0.033 C 
ATOM     34  H12 non d ame     -37.522  17.858  24.581  0.00  0.00     0.042 H 
BRANCH  33  35
ATOM     35  C12 non d ame     -38.521  19.390  25.723  0.00  0.00    -0.071 C 
ATOM     36  H13 non d ame     -38.909  19.796  24.789  0.00  0.00     0.028 H 
ATOM     37  H14 non d ame     -39.289  18.785  26.204  0.00  0.00     0.028 H 
ATOM     38  H15 non d ame     -38.236  20.209  26.383  0.00  0.00     0.028 H 
ENDBRANCH  33  35
BRANCH  33  39
ATOM     39  C13 non d ame     -36.042  19.375  25.017  0.00  0.00    -0.071 C 
ATOM     40  H16 non d ame     -36.345  20.420  24.944  0.00  0.00     0.028 H 
ATOM     41  H17 non d ame     -35.259  19.275  25.770  0.00  0.00     0.028 H 
ATOM     42  H18 non d ame     -35.661  19.039  24.053  0.00  0.00     0.028 H 
ENDBRANCH  33  39
ENDBRANCH   7  33
ENDBRANCH   4   7
ENDBRANCH   1   3
BRANCH   1  43
ATOM     43  C15 non d ame     -36.611  12.964  25.952  0.00  0.00     0.240 C 
ATOM     44  O5  non d ame     -36.839  12.839  27.112  0.00  0.00    -0.271 OA
ATOM     45  N6  non d ame     -35.553  12.133  25.311  0.00  0.00    -0.355 N 
ATOM     46  H46 non d ame     -35.354  12.226  24.325  0.00  0.00     0.162 HD
BRANCH  45  47
ATOM     47  C20 non d ame     -34.787  11.164  26.126  0.00  0.00     0.013 C 
ATOM     48  H30 non d ame     -35.461  10.751  26.877  0.00  0.00     0.072 H 
BRANCH  47  49
ATOM     49  C21 non d ame     -33.636  11.877  26.799  0.00  0.00    -0.038 C 
ATOM     50  H31 non d ame     -34.093  12.564  27.513  0.00  0.00     0.036 H 
ATOM     51  H32 non d ame     -32.969  11.091  27.151  0.00  0.00     0.036 H 
BRANCH  49  52
ATOM     52  C22 non d ame     -32.814  12.745  25.823  0.00  0.00     0.018 C 
ATOM     53  H33 non d ame     -31.771  12.586  26.094  0.00  0.00     0.048 H 
ATOM     54  H34 non d ame     -33.164  12.478  24.825  0.00  0.00     0.048 H 
BRANCH  52  55
ATOM     55  C23 non d ame     -33.070  14.270  25.973  0.00  0.00     0.259 C 
ATOM     56  O7  non d ame     -34.057  14.667  26.501  0.00  0.00    -0.265 OA
BRANCH  55  57
ATOM     57  O8  non d ame     -32.115  15.190  25.457  0.00  0.00    -0.317 OA
BRANCH  57  58
ATOM     58  C29 non d ame     -30.863  14.594  25.104  0.00  0.00     0.052 C 
ATOM     59  H47 non d ame     -30.105  15.157  25.648  0.00  0.00     0.082 H 
ATOM     60  H48 non d ame     -30.984  13.526  25.285  0.00  0.00     0.082 H 
BRANCH  58  61
ATOM     61  C35 non d ame     -30.640  14.812  23.584  0.00  0.00    -0.034 A 
ATOM     62  C30 non d ame     -31.168  15.937  22.957  0.00  0.00    -0.075 A 
ATOM     63  C31 non d ame     -30.968  16.132  21.591  0.00  0.00    -0.082 A 
ATOM     64  H49 non d ame     -31.738  16.663  23.535  0.00  0.00     0.084 H 
ATOM     65  C32 non d ame     -30.239  15.197  20.851  0.00  0.00    -0.083 A 
ATOM     66  H50 non d ame     -31.381  17.016  21.103  0.00  0.00     0.083 H 
ATOM     67  C33 non d ame     -29.717  14.075  21.480  0.00  0.00    -0.082 A 
ATOM     68  H51 non d ame     -30.077  15.344  19.783  0.00  0.00     0.083 H 
ATOM     69  C34 non d ame     -29.913  13.877  22.846  0.00  0.00    -0.075 A 
ATOM     70  H52 non d ame     -29.151  13.346  20.900  0.00  0.00     0.083 H 
ATOM     71  H53 non d ame     -29.499  12.993  23.333  0.00  0.00     0.084 H 
ENDBRANCH  58  61
ENDBRANCH  57  58
ENDBRANCH  55  57
ENDBRANCH  52  55
ENDBRANCH  49  52
ENDBRANCH  47  49
BRANCH  47  72
ATOM     72  C24 non d ame     -34.245  10.051  25.231  0.00  0.00    -0.039 C 
ATOM     73  H35 non d ame     -34.966   9.955  24.419  0.00  0.00     0.036 H 
ATOM     74  H36 non d ame     -33.214  10.331  25.013  0.00  0.00     0.036 H 
BRANCH  72  75
ATOM     75  C25 non d ame     -34.201   8.644  25.995  0.00  0.00    -0.001 C 
ATOM     76  C26 non d ame     -34.933   8.781  27.461  0.00  0.00    -0.035 C 
ATOM     77  C27 non d ame     -34.099   8.296  28.412  0.00  0.00     0.085 C 
ATOM     78  H38 non d ame     -35.041   9.832  27.728  0.00  0.00     0.036 H 
ATOM     79  H39 non d ame     -35.793   8.114  27.512  0.00  0.00     0.036 H 
ATOM     80  N5  non d ame     -32.740   8.145  27.772  0.00  0.00    -0.049 N 
ATOM     81  H40 non d ame     -34.047   9.071  29.177  0.00  0.00     0.075 H 
ATOM     82  H41 non d ame     -34.486   7.308  28.662  0.00  0.00     0.075 H 
ATOM     83  C28 non d ame     -32.985   8.250  26.180  0.00  0.00     0.193 C 
ATOM     84  H42 non d ame     -32.194   8.941  28.067  0.00  0.00     0.280 HD
ATOM     85  H43 non d ame     -32.426   7.209  27.988  0.00  0.00     0.280 HD
ATOM     86  H44 non d ame     -32.970   7.357  25.557  0.00  0.00     0.129 H 
ATOM     87  H37 non d ame     -34.516   7.818  25.358  0.00  0.00     0.046 H 
BRANCH  83  88
ATOM     88  O6  non d ame     -32.034   9.141  25.593  0.00  0.00    -0.369 OA
ATOM     89  H45 non d ame     -31.982   9.944  26.117  0.00  0.00     0.212 HD
ENDBRANCH  83  88
ENDBRANCH  72  75
ENDBRANCH  47  72
ENDBRANCH  45  47
ENDBRANCH   1  43
BRANCH   1  90
ATOM     90  C16 non d ame     -37.293  13.652  23.632  0.00  0.00    -0.035 C 
ATOM     91  H21 non d ame     -36.285  13.962  23.356  0.00  0.00     0.037 H 
ATOM     92  H22 non d ame     -37.583  12.606  23.545  0.00  0.00     0.037 H 
BRANCH  90  93
ATOM     93  C17 non d ame     -38.267  14.459  22.717  0.00  0.00    -0.059 C 
ATOM     94  H23 non d ame     -38.081  15.519  22.888  0.00  0.00     0.038 H 
BRANCH  93  95
ATOM     95  C18 non d ame     -38.025  14.171  21.200  0.00  0.00    -0.073 C 
ATOM     96  H24 non d ame     -37.063  13.677  21.073  0.00  0.00     0.028 H 
ATOM     97  H25 non d ame     -38.818  13.524  20.823  0.00  0.00     0.028 H 
ATOM     98  H26 non d ame     -38.028  15.110  20.647  0.00  0.00     0.028 H 
ENDBRANCH  93  95
BRANCH  93  99
ATOM     99  C19 non d ame     -39.725  14.187  23.096  0.00  0.00    -0.073 C 
ATOM    100  H27 non d ame     -39.777  13.871  24.139  0.00  0.00     0.028 H 
ATOM    101  H28 non d ame     -40.312  15.096  22.964  0.00  0.00     0.028 H 
ATOM    102  H29 non d ame     -40.126  13.400  22.458  0.00  0.00     0.028 H 
ENDBRANCH  93  99
ENDBRANCH  90  93
ENDBRANCH   1  90
TORSDOF 26
ENDMDL
MODEL 12
REMARK VINA RESULT:      -7.0      2.904      9.108
REMARK  26 active torsions:
REMARK  status: ('A' for Active; 'I' for Inactive)
REMARK    1  A    between atoms: C2_2  and  C3_3 
REMARK    2  A    between atoms: C4_6  and  C5_7 
REMARK       I    between atoms: C5_7  and  N2_9 
REMARK    3  A    between atoms: N2_9  and  C6_10 
REMARK    4  A    between atoms: C6_10  and  C7_11 
REMARK    5  A    between atoms: C6_10  and  C8_13 
REMARK       I    between atoms: C7_11  and  N3_14 
REMARK    6  A    between atoms: N3_14  and  C9_15 
REMARK    7  A    between atoms: C9_15  and  C10_16 
REMARK    8  A    between atoms: C9_15  and  C11_18 
REMARK       I    between atoms: C10_16  and  N4_21 
REMARK    9  A    between atoms: C11_18  and  C12_19 
REMARK   10  A    between atoms: C11_18  and  C13_20 
REMARK   11  A    between atoms: N4_21  and  C14_22 
REMARK   12  A    between atoms: C14_22  and  C15_23 
REMARK   13  A    between atoms: C14_22  and  C16_25 
REMARK       I    between atoms: C15_23  and  N6_40 
REMARK   14  A    between atoms: C16_25  and  C17_26 
REMARK   15  A    between atoms: C17_26  and  C18_27 
REMARK   16  A    between atoms: C17_26  and  C19_28 
REMARK   17  A    between atoms: C20_29  and  C21_30 
REMARK   18  A    between atoms: C20_29  and  C24_33 
REMARK   19  A    between atoms: C20_29  and  N6_40 
REMARK   20  A    between atoms: C21_30  and  C22_31 
REMARK   21  A    between atoms: C22_31  and  C23_32 
REMARK   22  A    between atoms: C23_32  and  O8_43 
REMARK   23  A    between atoms: C24_33  and  C25_34 
REMARK   24  A    between atoms: C28_38  and  O6_39 
REMARK   25  A    between atoms: C29_42  and  O8_43 
REMARK   26  A    between atoms: C29_42  and  C35_49 
ROOT
ATOM      1  C14 non d ame     -33.993   6.963  27.764  0.00  0.00     0.089 C 
ATOM      2  H20 non d ame     -33.622   6.472  28.664  0.00  0.00     0.087 H 
ENDROOT
BRANCH   1   3
ATOM      3  N4  non d ame     -34.376   8.318  28.131  0.00  0.00    -0.346 N 
ATOM      4  C10 non d ame     -34.831   8.627  29.536  0.00  0.00     0.241 C 
ATOM      5  O4  non d ame     -34.885   7.768  30.352  0.00  0.00    -0.271 OA
ATOM      6  H19 non d ame     -34.325   9.034  27.421  0.00  0.00     0.163 HD
BRANCH   4   7
ATOM      7  C9  non d ame     -35.218  10.036  29.899  0.00  0.00     0.092 C 
ATOM      8  H11 non d ame     -35.283  10.122  30.984  0.00  0.00     0.088 H 
BRANCH   7   9
ATOM      9  N3  non d ame     -34.172  10.961  29.453  0.00  0.00    -0.346 N 
ATOM     10  C7  non d ame     -33.147  11.389  30.373  0.00  0.00     0.240 C 
ATOM     11  O3  non d ame     -33.150  11.000  31.477  0.00  0.00    -0.271 OA
ATOM     12  H10 non d ame     -34.158  11.306  28.504  0.00  0.00     0.163 HD
BRANCH  10  13
ATOM     13  C6  non d ame     -32.038  12.376  29.893  0.00  0.00     0.086 C 
ATOM     14  H6  non d ame     -31.524  12.029  28.997  0.00  0.00     0.086 H 
BRANCH  13  15
ATOM     15  N2  non d ame     -32.655  13.647  29.552  0.00  0.00    -0.343 N 
ATOM     16  C5  non d ame     -31.946  14.580  28.673  0.00  0.00     0.273 C 
ATOM     17  O2  non d ame     -30.880  14.300  28.248  0.00  0.00    -0.266 OA
ATOM     18  H5  non d ame     -33.565  13.880  29.923  0.00  0.00     0.163 HD
BRANCH  16  19
ATOM     19  C4  non d ame     -32.587  15.927  28.303  0.00  0.00     0.154 A 
ATOM     20  C1  non d ame     -33.319  16.239  27.114  0.00  0.00    -0.017 A 
ATOM     21  C2  non d ame     -33.690  17.594  27.260  0.00  0.00     0.077 A 
ATOM     22  H1  non d ame     -33.546  15.583  26.273  0.00  0.00     0.091 H 
ATOM     23  O1  non d ame     -33.223  18.002  28.404  0.00  0.00    -0.218 OA
ATOM     24  N1  non d ame     -32.575  17.047  29.030  0.00  0.00    -0.123 NA
BRANCH  21  25
ATOM     25  C3  non d ame     -34.490  18.422  26.263  0.00  0.00    -0.029 C 
ATOM     26  H2  non d ame     -34.755  17.803  25.406  0.00  0.00     0.036 H 
ATOM     27  H3  non d ame     -35.399  18.788  26.741  0.00  0.00     0.036 H 
ATOM     28  H4  non d ame     -33.890  19.267  25.929  0.00  0.00     0.036 H 
ENDBRANCH  21  25
ENDBRANCH  16  19
ENDBRANCH  13  15
BRANCH  13  29
ATOM     29  C8  non d ame     -31.026  12.572  30.993  0.00  0.00    -0.049 C 
ATOM     30  H7  non d ame     -30.320  11.742  30.989  0.00  0.00     0.030 H 
ATOM     31  H8  non d ame     -30.488  13.506  30.828  0.00  0.00     0.030 H 
ATOM     32  H9  non d ame     -31.537  12.612  31.955  0.00  0.00     0.030 H 
ENDBRANCH  13  29
ENDBRANCH  10  13
ENDBRANCH   7   9
BRANCH   7  33
ATOM     33  C11 non d ame     -36.561  10.401  29.204  0.00  0.00    -0.033 C 
ATOM     34  H12 non d ame     -37.044  11.171  29.806  0.00  0.00     0.042 H 
BRANCH  33  35
ATOM     35  C12 non d ame     -36.323  10.998  27.781  0.00  0.00    -0.071 C 
ATOM     36  H13 non d ame     -35.343  10.690  27.418  0.00  0.00     0.028 H 
ATOM     37  H14 non d ame     -37.093  10.635  27.102  0.00  0.00     0.028 H 
ATOM     38  H15 non d ame     -36.365  12.086  27.832  0.00  0.00     0.028 H 
ENDBRANCH  33  35
BRANCH  33  39
ATOM     39  C13 non d ame     -37.515   9.165  29.146  0.00  0.00    -0.071 C 
ATOM     40  H16 non d ame     -37.311   8.508  29.992  0.00  0.00     0.028 H 
ATOM     41  H17 non d ame     -38.551   9.502  29.189  0.00  0.00     0.028 H 
ATOM     42  H18 non d ame     -37.351   8.622  28.216  0.00  0.00     0.028 H 
ENDBRANCH  33  39
ENDBRANCH   7  33
ENDBRANCH   4   7
ENDBRANCH   1   3
BRANCH   1  43
ATOM     43  C15 non d ame     -32.914   7.038  26.647  0.00  0.00     0.240 C 
ATOM     44  O5  non d ame     -31.859   6.514  26.808  0.00  0.00    -0.271 OA
ATOM     45  N6  non d ame     -33.197   7.756  25.372  0.00  0.00    -0.355 N 
ATOM     46  H46 non d ame     -34.092   8.201  25.222  0.00  0.00     0.162 HD
BRANCH  45  47
ATOM     47  C20 non d ame     -32.161   7.817  24.318  0.00  0.00     0.013 C 
ATOM     48  H30 non d ame     -31.234   7.426  24.737  0.00  0.00     0.072 H 
BRANCH  47  49
ATOM     49  C21 non d ame     -31.968   9.255  23.890  0.00  0.00    -0.038 C 
ATOM     50  H31 non d ame     -30.925   9.489  24.107  0.00  0.00     0.036 H 
ATOM     51  H32 non d ame     -32.337   9.309  22.867  0.00  0.00     0.036 H 
BRANCH  49  52
ATOM     52  C22 non d ame     -32.818  10.245  24.715  0.00  0.00     0.018 C 
ATOM     53  H33 non d ame     -33.032  11.078  24.046  0.00  0.00     0.048 H 
ATOM     54  H34 non d ame     -33.637   9.656  25.130  0.00  0.00     0.048 H 
BRANCH  52  55
ATOM     55  C23 non d ame     -32.068  10.853  25.931  0.00  0.00     0.259 C 
ATOM     56  O7  non d ame     -32.267  10.444  27.029  0.00  0.00    -0.265 OA
BRANCH  55  57
ATOM     57  O8  non d ame     -31.148  11.918  25.722  0.00  0.00    -0.317 OA
BRANCH  57  58
ATOM     58  C29 non d ame     -31.748  13.113  25.212  0.00  0.00     0.052 C 
ATOM     59  H47 non d ame     -32.717  12.810  24.817  0.00  0.00     0.082 H 
ATOM     60  H48 non d ame     -31.691  13.840  26.022  0.00  0.00     0.082 H 
BRANCH  58  61
ATOM     61  C35 non d ame     -30.874  13.622  24.034  0.00  0.00    -0.034 A 
ATOM     62  C30 non d ame     -30.323  12.716  23.134  0.00  0.00    -0.075 A 
ATOM     63  C31 non d ame     -29.538  13.174  22.075  0.00  0.00    -0.082 A 
ATOM     64  H49 non d ame     -30.504  11.649  23.257  0.00  0.00     0.084 H 
ATOM     65  C32 non d ame     -29.304  14.543  21.921  0.00  0.00    -0.083 A 
ATOM     66  H50 non d ame     -29.108  12.461  21.371  0.00  0.00     0.083 H 
ATOM     67  C33 non d ame     -29.854  15.443  22.824  0.00  0.00    -0.082 A 
ATOM     68  H51 non d ame     -28.693  14.909  21.096  0.00  0.00     0.083 H 
ATOM     69  C34 non d ame     -30.641  14.990  23.882  0.00  0.00    -0.075 A 
ATOM     70  H52 non d ame     -29.668  16.510  22.702  0.00  0.00     0.083 H 
ATOM     71  H53 non d ame     -31.070  15.703  24.586  0.00  0.00     0.084 H 
ENDBRANCH  58  61
ENDBRANCH  57  58
ENDBRANCH  55  57
ENDBRANCH  52  55
ENDBRANCH  49  52
ENDBRANCH  47  49
BRANCH  47  72
ATOM     72  C24 non d ame     -32.595   6.981  23.117  0.00  0.00    -0.039 C 
ATOM     73  H35 non d ame     -31.768   6.296  22.927  0.00  0.00     0.036 H 
ATOM     74  H36 non d ame     -33.578   6.589  23.377  0.00  0.00     0.036 H 
BRANCH  72  75
ATOM     75  C25 non d ame     -32.777   7.879  21.803  0.00  0.00    -0.001 C 
ATOM     76  C26 non d ame     -34.375   8.123  21.510  0.00  0.00    -0.035 C 
ATOM     77  C27 non d ame     -34.638   7.796  20.221  0.00  0.00     0.085 C 
ATOM     78  H38 non d ame     -34.974   7.413  22.080  0.00  0.00     0.036 H 
ATOM     79  H39 non d ame     -34.605   9.188  21.553  0.00  0.00     0.036 H 
ATOM     80  N5  non d ame     -33.437   7.042  19.705  0.00  0.00    -0.049 N 
ATOM     81  H40 non d ame     -35.492   7.120  20.261  0.00  0.00     0.075 H 
ATOM     82  H41 non d ame     -34.717   8.744  19.690  0.00  0.00     0.075 H 
ATOM     83  C28 non d ame     -32.253   7.308  20.770  0.00  0.00     0.193 C 
ATOM     84  H42 non d ame     -33.680   6.062  19.732  0.00  0.00     0.280 HD
ATOM     85  H43 non d ame     -33.183   7.475  18.827  0.00  0.00     0.280 HD
ATOM     86  H44 non d ame     -31.450   8.007  20.542  0.00  0.00     0.129 H 
ATOM     87  H37 non d ame     -32.134   8.759  21.812  0.00  0.00     0.046 H 
BRANCH  83  88
ATOM     88  O6  non d ame     -31.605   6.078  21.104  0.00  0.00    -0.369 OA
ATOM     89  H45 non d ame     -31.209   5.701  20.316  0.00  0.00     0.212 HD
ENDBRANCH  83  88
ENDBRANCH  72  75
ENDBRANCH  47  72
ENDBRANCH  45  47
ENDBRANCH   1  43
BRANCH   1  90
ATOM     90  C16 non d ame     -35.217   6.226  27.243  0.00  0.00    -0.035 C 
ATOM     91  H21 non d ame     -36.030   6.949  27.287  0.00  0.00     0.037 H 
ATOM     92  H22 non d ame     -34.914   5.804  26.285  0.00  0.00     0.037 H 
BRANCH  90  93
ATOM     93  C17 non d ame     -35.652   5.022  28.138  0.00  0.00    -0.059 C 
ATOM     94  H23 non d ame     -34.834   4.808  28.826  0.00  0.00     0.038 H 
BRANCH  93  95
ATOM     95  C18 non d ame     -36.920   5.348  28.990  0.00  0.00    -0.073 C 
ATOM     96  H24 non d ame     -37.014   4.620  29.795  0.00  0.00     0.028 H 
ATOM     97  H25 non d ame     -36.825   6.348  29.415  0.00  0.00     0.028 H 
ATOM     98  H26 non d ame     -37.805   5.306  28.356  0.00  0.00     0.028 H 
ENDBRANCH  93  95
BRANCH  93  99
ATOM     99  C19 non d ame     -35.873   3.765  27.292  0.00  0.00    -0.073 C 
ATOM    100  H27 non d ame     -36.650   3.150  27.750  0.00  0.00     0.028 H 
ATOM    101  H28 non d ame     -36.184   4.052  26.288  0.00  0.00     0.028 H 
ATOM    102  H29 non d ame     -34.946   3.196  27.236  0.00  0.00     0.028 H 
ENDBRANCH  93  99
ENDBRANCH  90  93
ENDBRANCH   1  90
TORSDOF 26
ENDMDL
MODEL 13
REMARK VINA RESULT:      -7.0      1.703      2.368
REMARK  26 active torsions:
REMARK  status: ('A' for Active; 'I' for Inactive)
REMARK    1  A    between atoms: C2_2  and  C3_3 
REMARK    2  A    between atoms: C4_6  and  C5_7 
REMARK       I    between atoms: C5_7  and  N2_9 
REMARK    3  A    between atoms: N2_9  and  C6_10 
REMARK    4  A    between atoms: C6_10  and  C7_11 
REMARK    5  A    between atoms: C6_10  and  C8_13 
REMARK       I    between atoms: C7_11  and  N3_14 
REMARK    6  A    between atoms: N3_14  and  C9_15 
REMARK    7  A    between atoms: C9_15  and  C10_16 
REMARK    8  A    between atoms: C9_15  and  C11_18 
REMARK       I    between atoms: C10_16  and  N4_21 
REMARK    9  A    between atoms: C11_18  and  C12_19 
REMARK   10  A    between atoms: C11_18  and  C13_20 
REMARK   11  A    between atoms: N4_21  and  C14_22 
REMARK   12  A    between atoms: C14_22  and  C15_23 
REMARK   13  A    between atoms: C14_22  and  C16_25 
REMARK       I    between atoms: C15_23  and  N6_40 
REMARK   14  A    between atoms: C16_25  and  C17_26 
REMARK   15  A    between atoms: C17_26  and  C18_27 
REMARK   16  A    between atoms: C17_26  and  C19_28 
REMARK   17  A    between atoms: C20_29  and  C21_30 
REMARK   18  A    between atoms: C20_29  and  C24_33 
REMARK   19  A    between atoms: C20_29  and  N6_40 
REMARK   20  A    between atoms: C21_30  and  C22_31 
REMARK   21  A    between atoms: C22_31  and  C23_32 
REMARK   22  A    between atoms: C23_32  and  O8_43 
REMARK   23  A    between atoms: C24_33  and  C25_34 
REMARK   24  A    between atoms: C28_38  and  O6_39 
REMARK   25  A    between atoms: C29_42  and  O8_43 
REMARK   26  A    between atoms: C29_42  and  C35_49 
ROOT
ATOM      1  C14 non d ame     -30.873  13.818  24.082  0.00  0.00     0.089 C 
ATOM      2  H20 non d ame     -29.904  13.613  24.539  0.00  0.00     0.087 H 
ENDROOT
BRANCH   1   3
ATOM      3  N4  non d ame     -31.441  12.543  23.670  0.00  0.00    -0.346 N 
ATOM      4  C10 non d ame     -31.147  11.289  24.455  0.00  0.00     0.241 C 
ATOM      5  O4  non d ame     -30.448  11.330  25.413  0.00  0.00    -0.271 OA
ATOM      6  H19 non d ame     -32.032  12.529  22.851  0.00  0.00     0.163 HD
BRANCH   4   7
ATOM      7  C9  non d ame     -31.749   9.979  24.018  0.00  0.00     0.092 C 
ATOM      8  H11 non d ame     -31.573   9.228  24.789  0.00  0.00     0.088 H 
BRANCH   7   9
ATOM      9  N3  non d ame     -33.201  10.129  23.883  0.00  0.00    -0.346 N 
ATOM     10  C7  non d ame     -34.083   9.486  24.826  0.00  0.00     0.240 C 
ATOM     11  O3  non d ame     -33.641   8.843  25.699  0.00  0.00    -0.271 OA
ATOM     12  H10 non d ame     -33.597  10.678  23.134  0.00  0.00     0.163 HD
BRANCH  10  13
ATOM     13  C6  non d ame     -35.627   9.646  24.675  0.00  0.00     0.086 C 
ATOM     14  H6  non d ame     -36.178   9.249  25.527  0.00  0.00     0.086 H 
BRANCH  13  15
ATOM     15  N2  non d ame     -35.949  11.062  24.597  0.00  0.00    -0.343 N 
ATOM     16  C5  non d ame     -36.084  11.840  25.831  0.00  0.00     0.273 C 
ATOM     17  O2  non d ame     -35.934  11.318  26.880  0.00  0.00    -0.266 OA
ATOM     18  H5  non d ame     -36.078  11.499  23.696  0.00  0.00     0.163 HD
BRANCH  16  19
ATOM     19  C4  non d ame     -36.421  13.337  25.763  0.00  0.00     0.154 A 
ATOM     20  C1  non d ame     -36.686  14.112  24.589  0.00  0.00    -0.017 A 
ATOM     21  C2  non d ame     -36.938  15.418  25.064  0.00  0.00     0.077 A 
ATOM     22  H1  non d ame     -36.693  13.778  23.552  0.00  0.00     0.091 H 
ATOM     23  O1  non d ame     -36.831  15.386  26.361  0.00  0.00    -0.218 OA
ATOM     24  N1  non d ame     -36.529  14.183  26.791  0.00  0.00    -0.123 NA
BRANCH  21  25
ATOM     25  C3  non d ame     -37.275  16.637  24.216  0.00  0.00    -0.029 C 
ATOM     26  H2  non d ame     -36.378  16.979  23.699  0.00  0.00     0.036 H 
ATOM     27  H3  non d ame     -38.037  16.371  23.483  0.00  0.00     0.036 H 
ATOM     28  H4  non d ame     -37.650  17.434  24.857  0.00  0.00     0.036 H 
ENDBRANCH  21  25
ENDBRANCH  16  19
ENDBRANCH  13  15
BRANCH  13  29
ATOM     29  C8  non d ame     -36.089   8.942  23.424  0.00  0.00    -0.049 C 
ATOM     30  H7  non d ame     -37.173   9.012  23.346  0.00  0.00     0.030 H 
ATOM     31  H8  non d ame     -35.631   9.413  22.553  0.00  0.00     0.030 H 
ATOM     32  H9  non d ame     -35.794   7.894  23.467  0.00  0.00     0.030 H 
ENDBRANCH  13  29
ENDBRANCH  10  13
ENDBRANCH   7   9
BRANCH   7  33
ATOM     33  C11 non d ame     -31.143   9.562  22.647  0.00  0.00    -0.033 C 
ATOM     34  H12 non d ame     -31.264  10.405  21.965  0.00  0.00     0.042 H 
BRANCH  33  35
ATOM     35  C12 non d ame     -29.614   9.270  22.765  0.00  0.00    -0.071 C 
ATOM     36  H13 non d ame     -29.093   9.713  21.917  0.00  0.00     0.028 H 
ATOM     37  H14 non d ame     -29.233   9.700  23.691  0.00  0.00     0.028 H 
ATOM     38  H15 non d ame     -29.450   8.192  22.769  0.00  0.00     0.028 H 
ENDBRANCH  33  35
BRANCH  33  39
ATOM     39  C13 non d ame     -31.908   8.341  22.045  0.00  0.00    -0.071 C 
ATOM     40  H16 non d ame     -32.583   7.928  22.795  0.00  0.00     0.028 H 
ATOM     41  H17 non d ame     -32.484   8.664  21.177  0.00  0.00     0.028 H 
ATOM     42  H18 non d ame     -31.193   7.578  21.740  0.00  0.00     0.028 H 
ENDBRANCH  33  39
ENDBRANCH   7  33
ENDBRANCH   4   7
ENDBRANCH   1   3
BRANCH   1  43
ATOM     43  C15 non d ame     -31.857  14.503  25.072  0.00  0.00     0.240 C 
ATOM     44  O5  non d ame     -32.828  13.923  25.436  0.00  0.00    -0.271 OA
ATOM     45  N6  non d ame     -31.584  15.879  25.575  0.00  0.00    -0.355 N 
ATOM     46  H46 non d ame     -30.758  16.380  25.277  0.00  0.00     0.162 HD
BRANCH  45  47
ATOM     47  C20 non d ame     -32.528  16.517  26.518  0.00  0.00     0.013 C 
ATOM     48  H30 non d ame     -31.960  17.200  27.150  0.00  0.00     0.072 H 
BRANCH  47  49
ATOM     49  C21 non d ame     -33.183  15.451  27.367  0.00  0.00    -0.038 C 
ATOM     50  H31 non d ame     -34.225  15.415  27.043  0.00  0.00     0.036 H 
ATOM     51  H32 non d ame     -32.552  14.568  27.270  0.00  0.00     0.036 H 
BRANCH  49  52
ATOM     52  C22 non d ame     -33.205  15.809  28.868  0.00  0.00     0.018 C 
ATOM     53  H33 non d ame     -33.519  16.851  28.918  0.00  0.00     0.048 H 
ATOM     54  H34 non d ame     -33.808  15.036  29.347  0.00  0.00     0.048 H 
BRANCH  52  55
ATOM     55  C23 non d ame     -31.810  15.747  29.548  0.00  0.00     0.259 C 
ATOM     56  O7  non d ame     -31.464  16.604  30.295  0.00  0.00    -0.265 OA
BRANCH  55  57
ATOM     57  O8  non d ame     -30.941  14.659  29.257  0.00  0.00    -0.317 OA
BRANCH  57  58
ATOM     58  C29 non d ame     -30.860  13.684  30.301  0.00  0.00     0.052 C 
ATOM     59  H47 non d ame     -29.814  13.385  30.345  0.00  0.00     0.082 H 
ATOM     60  H48 non d ame     -31.334  14.142  31.170  0.00  0.00     0.082 H 
BRANCH  58  61
ATOM     61  C35 non d ame     -31.705  12.454  29.874  0.00  0.00    -0.034 A 
ATOM     62  C30 non d ame     -32.344  11.679  30.837  0.00  0.00    -0.075 A 
ATOM     63  C31 non d ame     -33.103  10.574  30.453  0.00  0.00    -0.082 A 
ATOM     64  H49 non d ame     -32.250  11.937  31.892  0.00  0.00     0.084 H 
ATOM     65  C32 non d ame     -33.219  10.243  29.100  0.00  0.00    -0.083 A 
ATOM     66  H50 non d ame     -33.603   9.969  31.210  0.00  0.00     0.083 H 
ATOM     67  C33 non d ame     -32.577  11.017  28.143  0.00  0.00    -0.082 A 
ATOM     68  H51 non d ame     -33.811   9.381  28.792  0.00  0.00     0.083 H 
ATOM     69  C34 non d ame     -31.820  12.124  28.522  0.00  0.00    -0.075 A 
ATOM     70  H52 non d ame     -32.668  10.756  27.089  0.00  0.00     0.083 H 
ATOM     71  H53 non d ame     -31.320  12.727  27.764  0.00  0.00     0.084 H 
ENDBRANCH  58  61
ENDBRANCH  57  58
ENDBRANCH  55  57
ENDBRANCH  52  55
ENDBRANCH  49  52
ENDBRANCH  47  49
BRANCH  47  72
ATOM     72  C24 non d ame     -33.599  17.280  25.741  0.00  0.00    -0.039 C 
ATOM     73  H35 non d ame     -33.322  17.177  24.691  0.00  0.00     0.036 H 
ATOM     74  H36 non d ame     -34.551  16.884  26.094  0.00  0.00     0.036 H 
BRANCH  72  75
ATOM     75  C25 non d ame     -33.580  18.844  26.085  0.00  0.00    -0.001 C 
ATOM     76  C26 non d ame     -32.290  19.189  27.044  0.00  0.00    -0.035 C 
ATOM     77  C27 non d ame     -32.723  19.881  28.126  0.00  0.00     0.085 C 
ATOM     78  H38 non d ame     -31.886  18.273  27.473  0.00  0.00     0.036 H 
ATOM     79  H39 non d ame     -31.628  19.894  26.540  0.00  0.00     0.036 H 
ATOM     80  N5  non d ame     -34.227  19.753  28.158  0.00  0.00    -0.049 N 
ATOM     81  H40 non d ame     -32.304  19.363  28.989  0.00  0.00     0.075 H 
ATOM     82  H41 non d ame     -32.459  20.920  27.933  0.00  0.00     0.075 H 
ATOM     83  C28 non d ame     -34.657  19.199  26.704  0.00  0.00     0.193 C 
ATOM     84  H42 non d ame     -34.440  19.047  28.847  0.00  0.00     0.280 HD
ATOM     85  H43 non d ame     -34.591  20.690  28.266  0.00  0.00     0.280 HD
ATOM     86  H44 non d ame     -35.098  19.867  25.965  0.00  0.00     0.129 H 
ATOM     87  H37 non d ame     -33.721  19.464  25.200  0.00  0.00     0.046 H 
BRANCH  83  88
ATOM     88  O6  non d ame     -35.581  18.118  26.842  0.00  0.00    -0.369 OA
ATOM     89  H45 non d ame     -36.440  18.462  27.097  0.00  0.00     0.212 HD
ENDBRANCH  83  88
ENDBRANCH  72  75
ENDBRANCH  47  72
ENDBRANCH  45  47
ENDBRANCH   1  43
BRANCH   1  90
ATOM     90  C16 non d ame     -30.687  14.696  22.855  0.00  0.00    -0.035 C 
ATOM     91  H21 non d ame     -31.492  14.418  22.175  0.00  0.00     0.037 H 
ATOM     92  H22 non d ame     -30.625  15.715  23.236  0.00  0.00     0.037 H 
BRANCH  90  93
ATOM     93  C17 non d ame     -29.352  14.430  22.089  0.00  0.00    -0.059 C 
ATOM     94  H23 non d ame     -29.439  14.888  21.104  0.00  0.00     0.038 H 
BRANCH  93  95
ATOM     95  C18 non d ame     -28.122  15.071  22.807  0.00  0.00    -0.073 C 
ATOM     96  H24 non d ame     -27.223  14.890  22.219  0.00  0.00     0.028 H 
ATOM     97  H25 non d ame     -28.279  16.145  22.907  0.00  0.00     0.028 H 
ATOM     98  H26 non d ame     -28.006  14.628  23.795  0.00  0.00     0.028 H 
ENDBRANCH  93  95
BRANCH  93  99
ATOM     99  C19 non d ame     -29.136  12.929  21.875  0.00  0.00    -0.073 C 
ATOM    100  H27 non d ame     -28.411  12.559  22.601  0.00  0.00     0.028 H 
ATOM    101  H28 non d ame     -30.081  12.403  22.006  0.00  0.00     0.028 H 
ATOM    102  H29 non d ame     -28.762  12.756  20.866  0.00  0.00     0.028 H 
ENDBRANCH  93  99
ENDBRANCH  90  93
ENDBRANCH   1  90
TORSDOF 26
ENDMDL
MODEL 14
REMARK VINA RESULT:      -6.9      3.459      9.321
REMARK  26 active torsions:
REMARK  status: ('A' for Active; 'I' for Inactive)
REMARK    1  A    between atoms: C2_2  and  C3_3 
REMARK    2  A    between atoms: C4_6  and  C5_7 
REMARK       I    between atoms: C5_7  and  N2_9 
REMARK    3  A    between atoms: N2_9  and  C6_10 
REMARK    4  A    between atoms: C6_10  and  C7_11 
REMARK    5  A    between atoms: C6_10  and  C8_13 
REMARK       I    between atoms: C7_11  and  N3_14 
REMARK    6  A    between atoms: N3_14  and  C9_15 
REMARK    7  A    between atoms: C9_15  and  C10_16 
REMARK    8  A    between atoms: C9_15  and  C11_18 
REMARK       I    between atoms: C10_16  and  N4_21 
REMARK    9  A    between atoms: C11_18  and  C12_19 
REMARK   10  A    between atoms: C11_18  and  C13_20 
REMARK   11  A    between atoms: N4_21  and  C14_22 
REMARK   12  A    between atoms: C14_22  and  C15_23 
REMARK   13  A    between atoms: C14_22  and  C16_25 
REMARK       I    between atoms: C15_23  and  N6_40 
REMARK   14  A    between atoms: C16_25  and  C17_26 
REMARK   15  A    between atoms: C17_26  and  C18_27 
REMARK   16  A    between atoms: C17_26  and  C19_28 
REMARK   17  A    between atoms: C20_29  and  C21_30 
REMARK   18  A    between atoms: C20_29  and  C24_33 
REMARK   19  A    between atoms: C20_29  and  N6_40 
REMARK   20  A    between atoms: C21_30  and  C22_31 
REMARK   21  A    between atoms: C22_31  and  C23_32 
REMARK   22  A    between atoms: C23_32  and  O8_43 
REMARK   23  A    between atoms: C24_33  and  C25_34 
REMARK   24  A    between atoms: C28_38  and  O6_39 
REMARK   25  A    between atoms: C29_42  and  O8_43 
REMARK   26  A    between atoms: C29_42  and  C35_49 
ROOT
ATOM      1  C14 non d ame     -34.815   8.447  31.236  0.00  0.00     0.089 C 
ATOM      2  H20 non d ame     -34.379   8.487  32.235  0.00  0.00     0.087 H 
ENDROOT
BRANCH   1   3
ATOM      3  N4  non d ame     -33.929   9.178  30.343  0.00  0.00    -0.346 N 
ATOM      4  C10 non d ame     -33.407  10.538  30.732  0.00  0.00     0.241 C 
ATOM      5  O4  non d ame     -33.717  11.026  31.768  0.00  0.00    -0.271 OA
ATOM      6  H19 non d ame     -33.679   8.746  29.464  0.00  0.00     0.163 HD
BRANCH   4   7
ATOM      7  C9  non d ame     -32.486  11.277  29.797  0.00  0.00     0.092 C 
ATOM      8  H11 non d ame     -31.839  10.561  29.290  0.00  0.00     0.088 H 
BRANCH   7   9
ATOM      9  N3  non d ame     -33.277  11.954  28.766  0.00  0.00    -0.346 N 
ATOM     10  C7  non d ame     -33.530  11.299  27.506  0.00  0.00     0.240 C 
ATOM     11  O3  non d ame     -33.103  10.228  27.305  0.00  0.00    -0.271 OA
ATOM     12  H10 non d ame     -33.650  12.879  28.923  0.00  0.00     0.163 HD
BRANCH  10  13
ATOM     13  C6  non d ame     -34.369  12.026  26.410  0.00  0.00     0.086 C 
ATOM     14  H6  non d ame     -35.020  12.798  26.820  0.00  0.00     0.086 H 
BRANCH  13  15
ATOM     15  N2  non d ame     -33.464  12.692  25.488  0.00  0.00    -0.343 N 
ATOM     16  C5  non d ame     -32.935  14.016  25.826  0.00  0.00     0.273 C 
ATOM     17  O2  non d ame     -33.246  14.536  26.840  0.00  0.00    -0.266 OA
ATOM     18  H5  non d ame     -33.208  12.241  24.621  0.00  0.00     0.163 HD
BRANCH  16  19
ATOM     19  C4  non d ame     -31.977  14.730  24.861  0.00  0.00     0.154 A 
ATOM     20  C1  non d ame     -30.860  14.161  24.171  0.00  0.00    -0.017 A 
ATOM     21  C2  non d ame     -30.315  15.225  23.419  0.00  0.00     0.077 A 
ATOM     22  H1  non d ame     -30.499  13.133  24.211  0.00  0.00     0.091 H 
ATOM     23  O1  non d ame     -31.043  16.278  23.654  0.00  0.00    -0.218 OA
ATOM     24  N1  non d ame     -32.018  16.014  24.493  0.00  0.00    -0.123 NA
BRANCH  21  25
ATOM     25  C3  non d ame     -29.102  15.153  22.502  0.00  0.00    -0.029 C 
ATOM     26  H2  non d ame     -28.840  16.156  22.165  0.00  0.00     0.036 H 
ATOM     27  H3  non d ame     -28.261  14.721  23.044  0.00  0.00     0.036 H 
ATOM     28  H4  non d ame     -29.335  14.531  21.639  0.00  0.00     0.036 H 
ENDBRANCH  21  25
ENDBRANCH  16  19
ENDBRANCH  13  15
BRANCH  13  29
ATOM     29  C8  non d ame     -35.213  11.019  25.669  0.00  0.00    -0.049 C 
ATOM     30  H7  non d ame     -34.715  10.051  25.678  0.00  0.00     0.030 H 
ATOM     31  H8  non d ame     -36.185  10.932  26.156  0.00  0.00     0.030 H 
ATOM     32  H9  non d ame     -35.351  11.349  24.639  0.00  0.00     0.030 H 
ENDBRANCH  13  29
ENDBRANCH  10  13
ENDBRANCH   7   9
BRANCH   7  33
ATOM     33  C11 non d ame     -31.672  12.334  30.600  0.00  0.00    -0.033 C 
ATOM     34  H12 non d ame     -32.226  12.550  31.514  0.00  0.00     0.042 H 
BRANCH  33  35
ATOM     35  C12 non d ame     -30.275  11.778  31.018  0.00  0.00    -0.071 C 
ATOM     36  H13 non d ame     -30.404  11.000  31.770  0.00  0.00     0.028 H 
ATOM     37  H14 non d ame     -29.775  11.360  30.145  0.00  0.00     0.028 H 
ATOM     38  H15 non d ame     -29.671  12.586  31.432  0.00  0.00     0.028 H 
ENDBRANCH  33  35
BRANCH  33  39
ATOM     39  C13 non d ame     -31.534  13.665  29.793  0.00  0.00    -0.071 C 
ATOM     40  H16 non d ame     -31.033  14.413  30.408  0.00  0.00     0.028 H 
ATOM     41  H17 non d ame     -30.948  13.484  28.891  0.00  0.00     0.028 H 
ATOM     42  H18 non d ame     -32.523  14.025  29.515  0.00  0.00     0.028 H 
ENDBRANCH  33  39
ENDBRANCH   7  33
ENDBRANCH   4   7
ENDBRANCH   1   3
BRANCH   1  43
ATOM     43  C15 non d ame     -34.953   6.989  30.714  0.00  0.00     0.240 C 
ATOM     44  O5  non d ame     -35.452   6.159  31.403  0.00  0.00    -0.271 OA
ATOM     45  N6  non d ame     -34.472   6.628  29.350  0.00  0.00    -0.355 N 
ATOM     46  H46 non d ame     -34.051   7.326  28.754  0.00  0.00     0.162 HD
BRANCH  45  47
ATOM     47  C20 non d ame     -34.612   5.237  28.866  0.00  0.00     0.013 C 
ATOM     48  H30 non d ame     -34.994   4.633  29.689  0.00  0.00     0.072 H 
BRANCH  47  49
ATOM     49  C21 non d ame     -33.259   4.721  28.432  0.00  0.00    -0.038 C 
ATOM     50  H31 non d ame     -32.527   5.372  28.912  0.00  0.00     0.036 H 
ATOM     51  H32 non d ame     -33.266   3.654  28.653  0.00  0.00     0.036 H 
BRANCH  49  52
ATOM     52  C22 non d ame     -33.027   4.851  26.912  0.00  0.00     0.018 C 
ATOM     53  H33 non d ame     -32.431   3.984  26.629  0.00  0.00     0.048 H 
ATOM     54  H34 non d ame     -34.016   4.998  26.474  0.00  0.00     0.048 H 
BRANCH  52  55
ATOM     55  C23 non d ame     -32.191   6.096  26.509  0.00  0.00     0.259 C 
ATOM     56  O7  non d ame     -32.051   7.000  27.268  0.00  0.00    -0.265 OA
BRANCH  55  57
ATOM     57  O8  non d ame     -31.603   6.153  25.215  0.00  0.00    -0.317 OA
BRANCH  57  58
ATOM     58  C29 non d ame     -32.426   6.785  24.230  0.00  0.00     0.052 C 
ATOM     59  H47 non d ame     -32.513   6.068  23.414  0.00  0.00     0.082 H 
ATOM     60  H48 non d ame     -33.318   7.119  24.760  0.00  0.00     0.082 H 
BRANCH  58  61
ATOM     61  C35 non d ame     -31.671   8.036  23.705  0.00  0.00    -0.034 A 
ATOM     62  C30 non d ame     -30.643   7.890  22.778  0.00  0.00    -0.075 A 
ATOM     63  C31 non d ame     -29.964   9.014  22.307  0.00  0.00    -0.082 A 
ATOM     64  H49 non d ame     -30.369   6.898  22.422  0.00  0.00     0.084 H 
ATOM     65  C32 non d ame     -30.315  10.285  22.768  0.00  0.00    -0.083 A 
ATOM     66  H50 non d ame     -29.160   8.896  21.580  0.00  0.00     0.083 H 
ATOM     67  C33 non d ame     -31.339  10.425  23.695  0.00  0.00    -0.082 A 
ATOM     68  H51 non d ame     -29.790  11.168  22.404  0.00  0.00     0.083 H 
ATOM     69  C34 non d ame     -32.021   9.305  24.167  0.00  0.00    -0.075 A 
ATOM     70  H52 non d ame     -31.609  11.418  24.054  0.00  0.00     0.083 H 
ATOM     71  H53 non d ame     -32.825   9.424  24.894  0.00  0.00     0.084 H 
ENDBRANCH  58  61
ENDBRANCH  57  58
ENDBRANCH  55  57
ENDBRANCH  52  55
ENDBRANCH  49  52
ENDBRANCH  47  49
BRANCH  47  72
ATOM     72  C24 non d ame     -35.577   5.195  27.684  0.00  0.00    -0.039 C 
ATOM     73  H35 non d ame     -35.109   5.800  26.907  0.00  0.00     0.036 H 
ATOM     74  H36 non d ame     -35.774   4.138  27.508  0.00  0.00     0.036 H 
BRANCH  72  75
ATOM     75  C25 non d ame     -36.979   5.884  28.039  0.00  0.00    -0.001 C 
ATOM     76  C26 non d ame     -37.773   4.987  29.166  0.00  0.00    -0.035 C 
ATOM     77  C27 non d ame     -39.032   4.750  28.727  0.00  0.00     0.085 C 
ATOM     78  H38 non d ame     -37.333   3.992  29.230  0.00  0.00     0.036 H 
ATOM     79  H39 non d ame     -37.926   5.575  30.071  0.00  0.00     0.036 H 
ATOM     80  N5  non d ame     -39.066   5.120  27.264  0.00  0.00    -0.049 N 
ATOM     81  H40 non d ame     -39.176   3.673  28.824  0.00  0.00     0.075 H 
ATOM     82  H41 non d ame     -39.669   5.437  29.282  0.00  0.00     0.075 H 
ATOM     83  C28 non d ame     -37.730   5.984  26.993  0.00  0.00     0.193 C 
ATOM     84  H42 non d ame     -39.001   4.254  26.747  0.00  0.00     0.280 HD
ATOM     85  H43 non d ame     -39.869   5.721  27.140  0.00  0.00     0.280 HD
ATOM     86  H44 non d ame     -37.782   7.066  26.889  0.00  0.00     0.129 H 
ATOM     87  H37 non d ame     -36.878   6.951  28.236  0.00  0.00     0.046 H 
BRANCH  83  88
ATOM     88  O6  non d ame     -37.073   5.518  25.812  0.00  0.00    -0.369 OA
ATOM     89  H45 non d ame     -37.082   4.558  25.798  0.00  0.00     0.212 HD
ENDBRANCH  83  88
ENDBRANCH  72  75
ENDBRANCH  47  72
ENDBRANCH  45  47
ENDBRANCH   1  43
BRANCH   1  90
ATOM     90  C16 non d ame     -36.179   9.119  31.242  0.00  0.00    -0.035 C 
ATOM     91  H21 non d ame     -36.762   8.583  31.989  0.00  0.00     0.037 H 
ATOM     92  H22 non d ame     -35.976  10.182  31.370  0.00  0.00     0.037 H 
BRANCH  90  93
ATOM     93  C17 non d ame     -36.954   8.977  29.893  0.00  0.00    -0.059 C 
ATOM     94  H23 non d ame     -36.454   8.209  29.304  0.00  0.00     0.038 H 
BRANCH  93  95
ATOM     95  C18 non d ame     -38.434   8.526  30.109  0.00  0.00    -0.073 C 
ATOM     96  H24 non d ame     -39.033   9.382  30.418  0.00  0.00     0.028 H 
ATOM     97  H25 non d ame     -38.830   8.124  29.176  0.00  0.00     0.028 H 
ATOM     98  H26 non d ame     -38.471   7.758  30.880  0.00  0.00     0.028 H 
ENDBRANCH  93  95
BRANCH  93  99
ATOM     99  C19 non d ame     -36.893  10.278  29.088  0.00  0.00    -0.073 C 
ATOM    100  H27 non d ame     -36.397  11.049  29.679  0.00  0.00     0.028 H 
ATOM    101  H28 non d ame     -36.333  10.111  28.168  0.00  0.00     0.028 H 
ATOM    102  H29 non d ame     -37.904  10.601  28.844  0.00  0.00     0.028 H 
ENDBRANCH  93  99
ENDBRANCH  90  93
ENDBRANCH   1  90
TORSDOF 26
ENDMDL
MODEL 15
REMARK VINA RESULT:      -6.9      3.246      7.379
REMARK  26 active torsions:
REMARK  status: ('A' for Active; 'I' for Inactive)
REMARK    1  A    between atoms: C2_2  and  C3_3 
REMARK    2  A    between atoms: C4_6  and  C5_7 
REMARK       I    between atoms: C5_7  and  N2_9 
REMARK    3  A    between atoms: N2_9  and  C6_10 
REMARK    4  A    between atoms: C6_10  and  C7_11 
REMARK    5  A    between atoms: C6_10  and  C8_13 
REMARK       I    between atoms: C7_11  and  N3_14 
REMARK    6  A    between atoms: N3_14  and  C9_15 
REMARK    7  A    between atoms: C9_15  and  C10_16 
REMARK    8  A    between atoms: C9_15  and  C11_18 
REMARK       I    between atoms: C10_16  and  N4_21 
REMARK    9  A    between atoms: C11_18  and  C12_19 
REMARK   10  A    between atoms: C11_18  and  C13_20 
REMARK   11  A    between atoms: N4_21  and  C14_22 
REMARK   12  A    between atoms: C14_22  and  C15_23 
REMARK   13  A    between atoms: C14_22  and  C16_25 
REMARK       I    between atoms: C15_23  and  N6_40 
REMARK   14  A    between atoms: C16_25  and  C17_26 
REMARK   15  A    between atoms: C17_26  and  C18_27 
REMARK   16  A    between atoms: C17_26  and  C19_28 
REMARK   17  A    between atoms: C20_29  and  C21_30 
REMARK   18  A    between atoms: C20_29  and  C24_33 
REMARK   19  A    between atoms: C20_29  and  N6_40 
REMARK   20  A    between atoms: C21_30  and  C22_31 
REMARK   21  A    between atoms: C22_31  and  C23_32 
REMARK   22  A    between atoms: C23_32  and  O8_43 
REMARK   23  A    between atoms: C24_33  and  C25_34 
REMARK   24  A    between atoms: C28_38  and  O6_39 
REMARK   25  A    between atoms: C29_42  and  O8_43 
REMARK   26  A    between atoms: C29_42  and  C35_49 
ROOT
ATOM      1  C14 non d ame     -31.186  12.776  24.796  0.00  0.00     0.089 C 
ATOM      2  H20 non d ame     -30.138  12.735  25.095  0.00  0.00     0.087 H 
ENDROOT
BRANCH   1   3
ATOM      3  N4  non d ame     -31.503  11.518  24.136  0.00  0.00    -0.346 N 
ATOM      4  C10 non d ame     -31.425  10.218  24.897  0.00  0.00     0.241 C 
ATOM      5  O4  non d ame     -31.101  10.209  26.038  0.00  0.00    -0.271 OA
ATOM      6  H19 non d ame     -31.774  11.547  23.164  0.00  0.00     0.163 HD
BRANCH   4   7
ATOM      7  C9  non d ame     -31.763   8.927  24.200  0.00  0.00     0.092 C 
ATOM      8  H11 non d ame     -30.962   8.206  24.371  0.00  0.00     0.088 H 
BRANCH   7   9
ATOM      9  N3  non d ame     -32.985   8.363  24.779  0.00  0.00    -0.346 N 
ATOM     10  C7  non d ame     -32.932   7.114  25.499  0.00  0.00     0.240 C 
ATOM     11  O3  non d ame     -31.914   6.549  25.620  0.00  0.00    -0.271 OA
ATOM     12  H10 non d ame     -33.870   8.837  24.682  0.00  0.00     0.163 HD
BRANCH  10  13
ATOM     13  C6  non d ame     -34.237   6.517  26.111  0.00  0.00     0.086 C 
ATOM     14  H6  non d ame     -34.517   5.566  25.660  0.00  0.00     0.086 H 
BRANCH  13  15
ATOM     15  N2  non d ame     -34.018   6.257  27.525  0.00  0.00    -0.343 N 
ATOM     16  C5  non d ame     -33.883   4.875  27.992  0.00  0.00     0.273 C 
ATOM     17  O2  non d ame     -33.954   3.981  27.223  0.00  0.00    -0.266 OA
ATOM     18  H5  non d ame     -33.962   7.028  28.175  0.00  0.00     0.163 HD
BRANCH  16  19
ATOM     19  C4  non d ame     -33.650   4.587  29.483  0.00  0.00     0.154 A 
ATOM     20  C1  non d ame     -32.697   3.683  30.050  0.00  0.00    -0.017 A 
ATOM     21  C2  non d ame     -32.884   3.785  31.447  0.00  0.00     0.077 A 
ATOM     22  H1  non d ame     -31.979   3.049  29.529  0.00  0.00     0.091 H 
ATOM     23  O1  non d ame     -33.835   4.651  31.647  0.00  0.00    -0.218 OA
ATOM     24  N1  non d ame     -34.297   5.132  30.516  0.00  0.00    -0.123 NA
BRANCH  21  25
ATOM     25  C3  non d ame     -32.115   3.024  32.518  0.00  0.00    -0.029 C 
ATOM     26  H2  non d ame     -31.071   3.336  32.507  0.00  0.00     0.036 H 
ATOM     27  H3  non d ame     -32.547   3.237  33.496  0.00  0.00     0.036 H 
ATOM     28  H4  non d ame     -32.177   1.955  32.319  0.00  0.00     0.036 H 
ENDBRANCH  21  25
ENDBRANCH  16  19
ENDBRANCH  13  15
BRANCH  13  29
ATOM     29  C8  non d ame     -35.371   7.495  25.936  0.00  0.00    -0.049 C 
ATOM     30  H7  non d ame     -35.849   7.328  24.971  0.00  0.00     0.030 H 
ATOM     31  H8  non d ame     -36.102   7.350  26.732  0.00  0.00     0.030 H 
ATOM     32  H9  non d ame     -34.983   8.513  25.979  0.00  0.00     0.030 H 
ENDBRANCH  13  29
ENDBRANCH  10  13
ENDBRANCH   7   9
BRANCH   7  33
ATOM     33  C11 non d ame     -31.988   9.200  22.684  0.00  0.00    -0.033 C 
ATOM     34  H12 non d ame     -31.946  10.279  22.535  0.00  0.00     0.042 H 
BRANCH  33  35
ATOM     35  C12 non d ame     -30.858   8.562  21.816  0.00  0.00    -0.071 C 
ATOM     36  H13 non d ame     -30.257   7.896  22.435  0.00  0.00     0.028 H 
ATOM     37  H14 non d ame     -31.305   7.995  21.000  0.00  0.00     0.028 H 
ATOM     38  H15 non d ame     -30.224   9.350  21.409  0.00  0.00     0.028 H 
ENDBRANCH  33  35
BRANCH  33  39
ATOM     39  C13 non d ame     -33.399   8.705  22.230  0.00  0.00    -0.071 C 
ATOM     40  H16 non d ame     -33.641   9.138  21.259  0.00  0.00     0.028 H 
ATOM     41  H17 non d ame     -33.395   7.617  22.153  0.00  0.00     0.028 H 
ATOM     42  H18 non d ame     -34.145   9.013  22.962  0.00  0.00     0.028 H 
ENDBRANCH  33  39
ENDBRANCH   7  33
ENDBRANCH   4   7
ENDBRANCH   1   3
BRANCH   1  43
ATOM     43  C15 non d ame     -32.138  12.952  26.013  0.00  0.00     0.240 C 
ATOM     44  O5  non d ame     -33.241  13.361  25.845  0.00  0.00    -0.271 OA
ATOM     45  N6  non d ame     -31.678  12.600  27.386  0.00  0.00    -0.355 N 
ATOM     46  H46 non d ame     -30.744  12.247  27.540  0.00  0.00     0.162 HD
BRANCH  45  47
ATOM     47  C20 non d ame     -32.596  12.771  28.534  0.00  0.00     0.013 C 
ATOM     48  H30 non d ame     -33.604  12.900  28.140  0.00  0.00     0.072 H 
BRANCH  47  49
ATOM     49  C21 non d ame     -32.189  13.996  29.322  0.00  0.00    -0.038 C 
ATOM     50  H31 non d ame     -32.551  13.826  30.337  0.00  0.00     0.036 H 
ATOM     51  H32 non d ame     -31.123  14.123  29.137  0.00  0.00     0.036 H 
BRANCH  49  52
ATOM     52  C22 non d ame     -32.876  15.285  28.823  0.00  0.00     0.018 C 
ATOM     53  H33 non d ame     -32.743  15.292  27.742  0.00  0.00     0.048 H 
ATOM     54  H34 non d ame     -33.881  15.266  29.248  0.00  0.00     0.048 H 
BRANCH  52  55
ATOM     55  C23 non d ame     -32.214  16.590  29.345  0.00  0.00     0.259 C 
ATOM     56  O7  non d ame     -31.453  16.557  30.257  0.00  0.00    -0.265 OA
BRANCH  55  57
ATOM     57  O8  non d ame     -32.539  17.831  28.730  0.00  0.00    -0.317 OA
BRANCH  57  58
ATOM     58  C29 non d ame     -32.657  17.760  27.306  0.00  0.00     0.052 C 
ATOM     59  H47 non d ame     -31.784  18.280  26.912  0.00  0.00     0.082 H 
ATOM     60  H48 non d ame     -32.816  16.707  27.075  0.00  0.00     0.082 H 
BRANCH  58  61
ATOM     61  C35 non d ame     -33.927  18.551  26.891  0.00  0.00    -0.034 A 
ATOM     62  C30 non d ame     -34.335  19.654  27.635  0.00  0.00    -0.075 A 
ATOM     63  C31 non d ame     -35.476  20.364  27.262  0.00  0.00    -0.082 A 
ATOM     64  H49 non d ame     -33.762  19.961  28.509  0.00  0.00     0.084 H 
ATOM     65  C32 non d ame     -36.211  19.965  26.142  0.00  0.00    -0.083 A 
ATOM     66  H50 non d ame     -35.792  21.228  27.846  0.00  0.00     0.083 H 
ATOM     67  C33 non d ame     -35.802  18.862  25.405  0.00  0.00    -0.082 A 
ATOM     68  H51 non d ame     -37.103  20.515  25.844  0.00  0.00     0.083 H 
ATOM     69  C34 non d ame     -34.661  18.151  25.773  0.00  0.00    -0.075 A 
ATOM     70  H52 non d ame     -36.379  18.552  24.533  0.00  0.00     0.083 H 
ATOM     71  H53 non d ame     -34.346  17.287  25.188  0.00  0.00     0.084 H 
ENDBRANCH  58  61
ENDBRANCH  57  58
ENDBRANCH  55  57
ENDBRANCH  52  55
ENDBRANCH  49  52
ENDBRANCH  47  49
BRANCH  47  72
ATOM     72  C24 non d ame     -32.532  11.540  29.435  0.00  0.00    -0.039 C 
ATOM     73  H35 non d ame     -31.835  10.858  28.944  0.00  0.00     0.036 H 
ATOM     74  H36 non d ame     -32.310  11.921  30.431  0.00  0.00     0.036 H 
BRANCH  72  75
ATOM     75  C25 non d ame     -33.946  10.792  29.518  0.00  0.00    -0.001 C 
ATOM     76  C26 non d ame     -34.308  10.455  31.086  0.00  0.00    -0.035 C 
ATOM     77  C27 non d ame     -34.631   9.143  31.187  0.00  0.00     0.085 C 
ATOM     78  H38 non d ame     -33.415  10.546  31.704  0.00  0.00     0.036 H 
ATOM     79  H39 non d ame     -35.227  10.966  31.375  0.00  0.00     0.036 H 
ATOM     80  N5  non d ame     -34.205   8.483  29.898  0.00  0.00    -0.049 N 
ATOM     81  H40 non d ame     -34.020   8.755  32.003  0.00  0.00     0.075 H 
ATOM     82  H41 non d ame     -35.718   9.115  31.258  0.00  0.00     0.075 H 
ATOM     83  C28 non d ame     -33.929   9.684  28.854  0.00  0.00     0.193 C 
ATOM     84  H42 non d ame     -33.330   8.016  30.090  0.00  0.00     0.280 HD
ATOM     85  H43 non d ame     -35.000   7.951  29.573  0.00  0.00     0.280 HD
ATOM     86  H44 non d ame     -34.648   9.912  28.070  0.00  0.00     0.129 H 
ATOM     87  H37 non d ame     -34.713  11.292  28.928  0.00  0.00     0.046 H 
BRANCH  83  88
ATOM     88  O6  non d ame     -32.684   9.477  28.183  0.00  0.00    -0.369 OA
ATOM     89  H45 non d ame     -32.629  10.062  27.425  0.00  0.00     0.212 HD
ENDBRANCH  83  88
ENDBRANCH  72  75
ENDBRANCH  47  72
ENDBRANCH  45  47
ENDBRANCH   1  43
BRANCH   1  90
ATOM     90  C16 non d ame     -31.395  13.917  23.813  0.00  0.00    -0.035 C 
ATOM     91  H21 non d ame     -32.018  13.505  23.020  0.00  0.00     0.037 H 
ATOM     92  H22 non d ame     -31.759  14.751  24.413  0.00  0.00     0.037 H 
BRANCH  90  93
ATOM     93  C17 non d ame     -30.079  14.407  23.130  0.00  0.00    -0.059 C 
ATOM     94  H23 non d ame     -29.316  14.491  23.903  0.00  0.00     0.038 H 
BRANCH  93  95
ATOM     95  C18 non d ame     -29.561  13.396  22.057  0.00  0.00    -0.073 C 
ATOM     96  H24 non d ame     -28.480  13.489  21.962  0.00  0.00     0.028 H 
ATOM     97  H25 non d ame     -29.811  12.380  22.364  0.00  0.00     0.028 H 
ATOM     98  H26 non d ame     -30.031  13.611  21.098  0.00  0.00     0.028 H 
ENDBRANCH  93  95
BRANCH  93  99
ATOM     99  C19 non d ame     -30.264  15.799  22.521  0.00  0.00    -0.073 C 
ATOM    100  H27 non d ame     -30.982  16.364  23.117  0.00  0.00     0.028 H 
ATOM    101  H28 non d ame     -29.308  16.323  22.513  0.00  0.00     0.028 H 
ATOM    102  H29 non d ame     -30.634  15.704  21.501  0.00  0.00     0.028 H 
ENDBRANCH  93  99
ENDBRANCH  90  93
ENDBRANCH   1  90
TORSDOF 26
ENDMDL
MODEL 16
REMARK VINA RESULT:      -6.9      2.950      6.780
REMARK  26 active torsions:
REMARK  status: ('A' for Active; 'I' for Inactive)
REMARK    1  A    between atoms: C2_2  and  C3_3 
REMARK    2  A    between atoms: C4_6  and  C5_7 
REMARK       I    between atoms: C5_7  and  N2_9 
REMARK    3  A    between atoms: N2_9  and  C6_10 
REMARK    4  A    between atoms: C6_10  and  C7_11 
REMARK    5  A    between atoms: C6_10  and  C8_13 
REMARK       I    between atoms: C7_11  and  N3_14 
REMARK    6  A    between atoms: N3_14  and  C9_15 
REMARK    7  A    between atoms: C9_15  and  C10_16 
REMARK    8  A    between atoms: C9_15  and  C11_18 
REMARK       I    between atoms: C10_16  and  N4_21 
REMARK    9  A    between atoms: C11_18  and  C12_19 
REMARK   10  A    between atoms: C11_18  and  C13_20 
REMARK   11  A    between atoms: N4_21  and  C14_22 
REMARK   12  A    between atoms: C14_22  and  C15_23 
REMARK   13  A    between atoms: C14_22  and  C16_25 
REMARK       I    between atoms: C15_23  and  N6_40 
REMARK   14  A    between atoms: C16_25  and  C17_26 
REMARK   15  A    between atoms: C17_26  and  C18_27 
REMARK   16  A    between atoms: C17_26  and  C19_28 
REMARK   17  A    between atoms: C20_29  and  C21_30 
REMARK   18  A    between atoms: C20_29  and  C24_33 
REMARK   19  A    between atoms: C20_29  and  N6_40 
REMARK   20  A    between atoms: C21_30  and  C22_31 
REMARK   21  A    between atoms: C22_31  and  C23_32 
REMARK   22  A    between atoms: C23_32  and  O8_43 
REMARK   23  A    between atoms: C24_33  and  C25_34 
REMARK   24  A    between atoms: C28_38  and  O6_39 
REMARK   25  A    between atoms: C29_42  and  O8_43 
REMARK   26  A    between atoms: C29_42  and  C35_49 
ROOT
ATOM      1  C14 non d ame     -31.908   8.999  24.632  0.00  0.00     0.089 C 
ATOM      2  H20 non d ame     -30.918   8.572  24.467  0.00  0.00     0.087 H 
ENDROOT
BRANCH   1   3
ATOM      3  N4  non d ame     -32.710   7.994  25.313  0.00  0.00    -0.346 N 
ATOM      4  C10 non d ame     -32.345   6.534  25.217  0.00  0.00     0.241 C 
ATOM      5  O4  non d ame     -31.403   6.192  24.582  0.00  0.00    -0.271 OA
ATOM      6  H19 non d ame     -33.509   8.306  25.846  0.00  0.00     0.163 HD
BRANCH   4   7
ATOM      7  C9  non d ame     -33.183   5.509  25.933  0.00  0.00     0.092 C 
ATOM      8  H11 non d ame     -32.528   4.769  26.396  0.00  0.00     0.088 H 
BRANCH   7   9
ATOM      9  N3  non d ame     -33.935   6.157  27.011  0.00  0.00    -0.346 N 
ATOM     10  C7  non d ame     -34.132   5.474  28.265  0.00  0.00     0.240 C 
ATOM     11  O3  non d ame     -33.693   4.400  28.424  0.00  0.00    -0.271 OA
ATOM     12  H10 non d ame     -34.320   7.082  26.889  0.00  0.00     0.163 HD
BRANCH  10  13
ATOM     13  C6  non d ame     -34.935   6.168  29.408  0.00  0.00     0.086 C 
ATOM     14  H6  non d ame     -34.767   5.708  30.382  0.00  0.00     0.086 H 
BRANCH  13  15
ATOM     15  N2  non d ame     -34.497   7.550  29.520  0.00  0.00    -0.343 N 
ATOM     16  C5  non d ame     -34.525   8.212  30.826  0.00  0.00     0.273 C 
ATOM     17  O2  non d ame     -34.904   7.626  31.780  0.00  0.00    -0.266 OA
ATOM     18  H5  non d ame     -34.178   8.044  28.699  0.00  0.00     0.163 HD
BRANCH  16  19
ATOM     19  C4  non d ame     -34.063   9.671  30.959  0.00  0.00     0.154 A 
ATOM     20  C1  non d ame     -33.200  10.389  30.072  0.00  0.00    -0.017 A 
ATOM     21  C2  non d ame     -33.090  11.680  30.637  0.00  0.00     0.077 A 
ATOM     22  H1  non d ame     -32.726  10.030  29.159  0.00  0.00     0.091 H 
ATOM     23  O1  non d ame     -33.811  11.691  31.720  0.00  0.00    -0.218 OA
ATOM     24  N1  non d ame     -34.387  10.530  31.929  0.00  0.00    -0.123 NA
BRANCH  21  25
ATOM     25  C3  non d ame     -32.279  12.842  30.079  0.00  0.00    -0.029 C 
ATOM     26  H2  non d ame     -31.351  12.941  30.642  0.00  0.00     0.036 H 
ATOM     27  H3  non d ame     -32.048  12.653  29.030  0.00  0.00     0.036 H 
ATOM     28  H4  non d ame     -32.855  13.762  30.165  0.00  0.00     0.036 H 
ENDBRANCH  21  25
ENDBRANCH  16  19
ENDBRANCH  13  15
BRANCH  13  29
ATOM     29  C8  non d ame     -36.409   6.118  29.092  0.00  0.00    -0.049 C 
ATOM     30  H7  non d ame     -36.882   7.044  29.419  0.00  0.00     0.030 H 
ATOM     31  H8  non d ame     -36.545   6.000  28.017  0.00  0.00     0.030 H 
ATOM     32  H9  non d ame     -36.863   5.274  29.611  0.00  0.00     0.030 H 
ENDBRANCH  13  29
ENDBRANCH  10  13
ENDBRANCH   7   9
BRANCH   7  33
ATOM     33  C11 non d ame     -34.178   4.859  24.928  0.00  0.00    -0.033 C 
ATOM     34  H12 non d ame     -35.044   4.517  25.497  0.00  0.00     0.042 H 
BRANCH  33  35
ATOM     35  C12 non d ame     -34.687   5.897  23.879  0.00  0.00    -0.071 C 
ATOM     36  H13 non d ame     -34.861   6.854  24.369  0.00  0.00     0.028 H 
ATOM     37  H14 non d ame     -33.937   6.019  23.098  0.00  0.00     0.028 H 
ATOM     38  H15 non d ame     -35.618   5.541  23.437  0.00  0.00     0.028 H 
ENDBRANCH  33  35
BRANCH  33  39
ATOM     39  C13 non d ame     -33.538   3.616  24.231  0.00  0.00    -0.071 C 
ATOM     40  H16 non d ame     -34.307   3.067  23.687  0.00  0.00     0.028 H 
ATOM     41  H17 non d ame     -32.766   3.946  23.535  0.00  0.00     0.028 H 
ATOM     42  H18 non d ame     -33.092   2.967  24.984  0.00  0.00     0.028 H 
ENDBRANCH  33  39
ENDBRANCH   7  33
ENDBRANCH   4   7
ENDBRANCH   1   3
BRANCH   1  43
ATOM     43  C15 non d ame     -31.856  10.276  25.518  0.00  0.00     0.240 C 
ATOM     44  O5  non d ame     -31.501  10.197  26.649  0.00  0.00    -0.271 OA
ATOM     45  N6  non d ame     -32.241  11.601  24.953  0.00  0.00    -0.355 N 
ATOM     46  H46 non d ame     -32.540  11.682  23.992  0.00  0.00     0.162 HD
BRANCH  45  47
ATOM     47  C20 non d ame     -32.185  12.807  25.808  0.00  0.00     0.013 C 
ATOM     48  H30 non d ame     -32.067  12.480  26.841  0.00  0.00     0.072 H 
BRANCH  47  49
ATOM     49  C21 non d ame     -33.472  13.587  25.657  0.00  0.00    -0.038 C 
ATOM     50  H31 non d ame     -33.171  14.621  25.484  0.00  0.00     0.036 H 
ATOM     51  H32 non d ame     -34.051  13.055  24.903  0.00  0.00     0.036 H 
BRANCH  49  52
ATOM     52  C22 non d ame     -34.326  13.590  26.943  0.00  0.00     0.018 C 
ATOM     53  H33 non d ame     -35.252  13.078  26.684  0.00  0.00     0.048 H 
ATOM     54  H34 non d ame     -33.681  13.187  27.725  0.00  0.00     0.048 H 
BRANCH  52  55
ATOM     55  C23 non d ame     -34.739  15.010  27.418  0.00  0.00     0.259 C 
ATOM     56  O7  non d ame     -35.721  15.527  26.992  0.00  0.00    -0.265 OA
BRANCH  55  57
ATOM     57  O8  non d ame     -33.921  15.696  28.358  0.00  0.00    -0.317 OA
BRANCH  57  58
ATOM     58  C29 non d ame     -32.665  16.132  27.828  0.00  0.00     0.052 C 
ATOM     59  H47 non d ame     -31.971  16.119  28.667  0.00  0.00     0.082 H 
ATOM     60  H48 non d ame     -32.479  15.505  26.956  0.00  0.00     0.082 H 
BRANCH  58  61
ATOM     61  C35 non d ame     -32.831  17.600  27.350  0.00  0.00    -0.034 A 
ATOM     62  C30 non d ame     -32.643  18.648  28.245  0.00  0.00    -0.075 A 
ATOM     63  C31 non d ame     -32.792  19.967  27.815  0.00  0.00    -0.082 A 
ATOM     64  H49 non d ame     -32.381  18.438  29.281  0.00  0.00     0.084 H 
ATOM     65  C32 non d ame     -33.133  20.234  26.487  0.00  0.00    -0.083 A 
ATOM     66  H50 non d ame     -32.644  20.787  28.519  0.00  0.00     0.083 H 
ATOM     67  C33 non d ame     -33.322  19.184  25.599  0.00  0.00    -0.082 A 
ATOM     68  H51 non d ame     -33.250  21.262  26.143  0.00  0.00     0.083 H 
ATOM     69  C34 non d ame     -33.172  17.865  26.023  0.00  0.00    -0.075 A 
ATOM     70  H52 non d ame     -33.589  19.395  24.563  0.00  0.00     0.083 H 
ATOM     71  H53 non d ame     -33.321  17.046  25.319  0.00  0.00     0.084 H 
ENDBRANCH  58  61
ENDBRANCH  57  58
ENDBRANCH  55  57
ENDBRANCH  52  55
ENDBRANCH  49  52
ENDBRANCH  47  49
BRANCH  47  72
ATOM     72  C24 non d ame     -31.006  13.683  25.390  0.00  0.00    -0.039 C 
ATOM     73  H35 non d ame     -31.040  14.549  26.052  0.00  0.00     0.036 H 
ATOM     74  H36 non d ame     -30.138  13.024  25.399  0.00  0.00     0.036 H 
BRANCH  72  75
ATOM     75  C25 non d ame     -31.172  14.225  23.892  0.00  0.00    -0.001 C 
ATOM     76  C26 non d ame     -30.189  13.381  22.880  0.00  0.00    -0.035 C 
ATOM     77  C27 non d ame     -29.457  14.257  22.151  0.00  0.00     0.085 C 
ATOM     78  H38 non d ame     -29.439  12.837  23.454  0.00  0.00     0.036 H 
ATOM     79  H39 non d ame     -30.784  12.861  22.129  0.00  0.00     0.036 H 
ATOM     80  N5  non d ame     -29.610  15.610  22.803  0.00  0.00    -0.049 N 
ATOM     81  H40 non d ame     -28.422  13.929  22.254  0.00  0.00     0.075 H 
ATOM     82  H41 non d ame     -29.925  14.282  21.168  0.00  0.00     0.075 H 
ATOM     83  C28 non d ame     -30.864  15.478  23.812  0.00  0.00     0.193 C 
ATOM     84  H42 non d ame     -28.774  15.763  23.348  0.00  0.00     0.280 HD
ATOM     85  H43 non d ame     -29.858  16.256  22.066  0.00  0.00     0.280 HD
ATOM     86  H44 non d ame     -31.832  15.903  23.551  0.00  0.00     0.129 H 
ATOM     87  H37 non d ame     -32.217  14.323  23.601  0.00  0.00     0.046 H 
BRANCH  83  88
ATOM     88  O6  non d ame     -30.533  16.034  25.085  0.00  0.00    -0.369 OA
ATOM     89  H45 non d ame     -30.867  16.932  25.139  0.00  0.00     0.212 HD
ENDBRANCH  83  88
ENDBRANCH  72  75
ENDBRANCH  47  72
ENDBRANCH  45  47
ENDBRANCH   1  43
BRANCH   1  90
ATOM     90  C16 non d ame     -32.555   9.329  23.296  0.00  0.00    -0.035 C 
ATOM     91  H21 non d ame     -33.482   8.757  23.275  0.00  0.00     0.037 H 
ATOM     92  H22 non d ame     -32.586  10.417  23.252  0.00  0.00     0.037 H 
BRANCH  90  93
ATOM     93  C17 non d ame     -31.721   8.860  22.062  0.00  0.00    -0.059 C 
ATOM     94  H23 non d ame     -31.809   9.626  21.292  0.00  0.00     0.038 H 
BRANCH  93  95
ATOM     95  C18 non d ame     -30.205   8.699  22.403  0.00  0.00    -0.073 C 
ATOM     96  H24 non d ame     -29.815   7.807  21.913  0.00  0.00     0.028 H 
ATOM     97  H25 non d ame     -29.658   9.574  22.049  0.00  0.00     0.028 H 
ATOM     98  H26 non d ame     -30.082   8.605  23.481  0.00  0.00     0.028 H 
ENDBRANCH  93  95
BRANCH  93  99
ATOM     99  C19 non d ame     -32.288   7.562  21.480  0.00  0.00    -0.073 C 
ATOM    100  H27 non d ame     -31.890   7.409  20.476  0.00  0.00     0.028 H 
ATOM    101  H28 non d ame     -32.002   6.724  22.115  0.00  0.00     0.028 H 
ATOM    102  H29 non d ame     -33.375   7.629  21.434  0.00  0.00     0.028 H 
ENDBRANCH  93  99
ENDBRANCH  90  93
ENDBRANCH   1  90
TORSDOF 26
ENDMDL
MODEL 17
REMARK VINA RESULT:      -6.8      2.575      8.112
REMARK  26 active torsions:
REMARK  status: ('A' for Active; 'I' for Inactive)
REMARK    1  A    between atoms: C2_2  and  C3_3 
REMARK    2  A    between atoms: C4_6  and  C5_7 
REMARK       I    between atoms: C5_7  and  N2_9 
REMARK    3  A    between atoms: N2_9  and  C6_10 
REMARK    4  A    between atoms: C6_10  and  C7_11 
REMARK    5  A    between atoms: C6_10  and  C8_13 
REMARK       I    between atoms: C7_11  and  N3_14 
REMARK    6  A    between atoms: N3_14  and  C9_15 
REMARK    7  A    between atoms: C9_15  and  C10_16 
REMARK    8  A    between atoms: C9_15  and  C11_18 
REMARK       I    between atoms: C10_16  and  N4_21 
REMARK    9  A    between atoms: C11_18  and  C12_19 
REMARK   10  A    between atoms: C11_18  and  C13_20 
REMARK   11  A    between atoms: N4_21  and  C14_22 
REMARK   12  A    between atoms: C14_22  and  C15_23 
REMARK   13  A    between atoms: C14_22  and  C16_25 
REMARK       I    between atoms: C15_23  and  N6_40 
REMARK   14  A    between atoms: C16_25  and  C17_26 
REMARK   15  A    between atoms: C17_26  and  C18_27 
REMARK   16  A    between atoms: C17_26  and  C19_28 
REMARK   17  A    between atoms: C20_29  and  C21_30 
REMARK   18  A    between atoms: C20_29  and  C24_33 
REMARK   19  A    between atoms: C20_29  and  N6_40 
REMARK   20  A    between atoms: C21_30  and  C22_31 
REMARK   21  A    between atoms: C22_31  and  C23_32 
REMARK   22  A    between atoms: C23_32  and  O8_43 
REMARK   23  A    between atoms: C24_33  and  C25_34 
REMARK   24  A    between atoms: C28_38  and  O6_39 
REMARK   25  A    between atoms: C29_42  and  O8_43 
REMARK   26  A    between atoms: C29_42  and  C35_49 
ROOT
ATOM      1  C14 non d ame     -34.150  10.155  29.127  0.00  0.00     0.089 C 
ATOM      2  H20 non d ame     -35.214  10.345  28.981  0.00  0.00     0.087 H 
ENDROOT
BRANCH   1   3
ATOM      3  N4  non d ame     -33.828   8.916  28.434  0.00  0.00    -0.346 N 
ATOM      4  C10 non d ame     -34.928   8.005  27.951  0.00  0.00     0.241 C 
ATOM      5  O4  non d ame     -36.066   8.288  28.135  0.00  0.00    -0.271 OA
ATOM      6  H19 non d ame     -32.853   8.693  28.290  0.00  0.00     0.163 HD
BRANCH   4   7
ATOM      7  C9  non d ame     -34.576   6.730  27.231  0.00  0.00     0.092 C 
ATOM      8  H11 non d ame     -35.403   6.026  27.324  0.00  0.00     0.088 H 
BRANCH   7   9
ATOM      9  N3  non d ame     -34.401   7.007  25.803  0.00  0.00    -0.346 N 
ATOM     10  C7  non d ame     -35.341   6.479  24.845  0.00  0.00     0.240 C 
ATOM     11  O3  non d ame     -36.243   5.827  25.207  0.00  0.00    -0.271 OA
ATOM     12  H10 non d ame     -33.626   7.566  25.476  0.00  0.00     0.163 HD
BRANCH  10  13
ATOM     13  C6  non d ame     -35.147   6.775  23.325  0.00  0.00     0.086 C 
ATOM     14  H6  non d ame     -35.681   7.667  22.998  0.00  0.00     0.086 H 
BRANCH  13  15
ATOM     15  N2  non d ame     -33.737   7.017  23.069  0.00  0.00    -0.343 N 
ATOM     16  C5  non d ame     -33.214   8.383  23.144  0.00  0.00     0.273 C 
ATOM     17  O2  non d ame     -33.937   9.280  23.409  0.00  0.00    -0.266 OA
ATOM     18  H5  non d ame     -33.127   6.245  22.839  0.00  0.00     0.163 HD
BRANCH  16  19
ATOM     19  C4  non d ame     -31.726   8.654  22.877  0.00  0.00     0.154 A 
ATOM     20  C1  non d ame     -30.676   7.687  22.776  0.00  0.00    -0.017 A 
ATOM     21  C2  non d ame     -29.508   8.442  22.525  0.00  0.00     0.077 A 
ATOM     22  H1  non d ame     -30.748   6.604  22.872  0.00  0.00     0.091 H 
ATOM     23  O1  non d ame     -29.859   9.695  22.485  0.00  0.00    -0.218 OA
ATOM     24  N1  non d ame     -31.148   9.843  22.688  0.00  0.00    -0.123 NA
BRANCH  21  25
ATOM     25  C3  non d ame     -28.101   7.891  22.335  0.00  0.00    -0.029 C 
ATOM     26  H2  non d ame     -28.115   7.114  21.571  0.00  0.00     0.036 H 
ATOM     27  H3  non d ame     -27.436   8.695  22.022  0.00  0.00     0.036 H 
ATOM     28  H4  non d ame     -27.746   7.470  23.274  0.00  0.00     0.036 H 
ENDBRANCH  21  25
ENDBRANCH  16  19
ENDBRANCH  13  15
BRANCH  13  29
ATOM     29  C8  non d ame     -35.624   5.595  22.516  0.00  0.00    -0.049 C 
ATOM     30  H7  non d ame     -35.008   4.725  22.743  0.00  0.00     0.030 H 
ATOM     31  H8  non d ame     -36.663   5.379  22.767  0.00  0.00     0.030 H 
ATOM     32  H9  non d ame     -35.547   5.828  21.454  0.00  0.00     0.030 H 
ENDBRANCH  13  29
ENDBRANCH  10  13
ENDBRANCH   7   9
BRANCH   7  33
ATOM     33  C11 non d ame     -33.252   6.156  27.812  0.00  0.00    -0.033 C 
ATOM     34  H12 non d ame     -32.949   6.800  28.638  0.00  0.00     0.042 H 
BRANCH  33  35
ATOM     35  C12 non d ame     -33.458   4.720  28.388  0.00  0.00    -0.071 C 
ATOM     36  H13 non d ame     -34.073   4.774  29.286  0.00  0.00     0.028 H 
ATOM     37  H14 non d ame     -33.954   4.098  27.644  0.00  0.00     0.028 H 
ATOM     38  H15 non d ame     -32.490   4.286  28.637  0.00  0.00     0.028 H 
ENDBRANCH  33  35
BRANCH  33  39
ATOM     39  C13 non d ame     -32.114   6.178  26.741  0.00  0.00    -0.071 C 
ATOM     40  H16 non d ame     -32.373   5.507  25.922  0.00  0.00     0.028 H 
ATOM     41  H17 non d ame     -31.996   7.192  26.357  0.00  0.00     0.028 H 
ATOM     42  H18 non d ame     -31.180   5.853  27.196  0.00  0.00     0.028 H 
ENDBRANCH  33  39
ENDBRANCH   7  33
ENDBRANCH   4   7
ENDBRANCH   1   3
BRANCH   1  43
ATOM     43  C15 non d ame     -33.265  11.293  28.544  0.00  0.00     0.240 C 
ATOM     44  O5  non d ame     -32.130  11.076  28.267  0.00  0.00    -0.271 OA
ATOM     45  N6  non d ame     -33.835  12.652  28.321  0.00  0.00    -0.355 N 
ATOM     46  H46 non d ame     -34.800  12.847  28.547  0.00  0.00     0.162 HD
BRANCH  45  47
ATOM     47  C20 non d ame     -32.981  13.724  27.763  0.00  0.00     0.013 C 
ATOM     48  H30 non d ame     -31.979  13.601  28.174  0.00  0.00     0.072 H 
BRANCH  47  49
ATOM     49  C21 non d ame     -33.543  15.069  28.164  0.00  0.00    -0.038 C 
ATOM     50  H31 non d ame     -34.485  15.169  27.623  0.00  0.00     0.036 H 
ATOM     51  H32 non d ame     -33.537  15.078  29.254  0.00  0.00     0.036 H 
BRANCH  49  52
ATOM     52  C22 non d ame     -32.655  16.249  27.713  0.00  0.00     0.018 C 
ATOM     53  H33 non d ame     -31.709  15.805  27.406  0.00  0.00     0.048 H 
ATOM     54  H34 non d ame     -33.253  16.809  26.993  0.00  0.00     0.048 H 
BRANCH  52  55
ATOM     55  C23 non d ame     -32.311  17.246  28.853  0.00  0.00     0.259 C 
ATOM     56  O7  non d ame     -31.846  16.858  29.875  0.00  0.00    -0.265 OA
BRANCH  55  57
ATOM     57  O8  non d ame     -32.572  18.633  28.668  0.00  0.00    -0.317 OA
BRANCH  57  58
ATOM     58  C29 non d ame     -32.548  19.051  27.300  0.00  0.00     0.052 C 
ATOM     59  H47 non d ame     -31.939  19.955  27.279  0.00  0.00     0.082 H 
ATOM     60  H48 non d ame     -32.243  18.175  26.728  0.00  0.00     0.082 H 
BRANCH  58  61
ATOM     61  C35 non d ame     -33.997  19.426  26.888  0.00  0.00    -0.034 A 
ATOM     62  C30 non d ame     -34.846  20.035  27.807  0.00  0.00    -0.075 A 
ATOM     63  C31 non d ame     -36.148  20.371  27.437  0.00  0.00    -0.082 A 
ATOM     64  H49 non d ame     -34.493  20.248  28.815  0.00  0.00     0.084 H 
ATOM     65  C32 non d ame     -36.600  20.094  26.144  0.00  0.00    -0.083 A 
ATOM     66  H50 non d ame     -36.811  20.850  28.159  0.00  0.00     0.083 H 
ATOM     67  C33 non d ame     -35.750  19.483  25.233  0.00  0.00    -0.082 A 
ATOM     68  H51 non d ame     -37.616  20.355  25.848  0.00  0.00     0.083 H 
ATOM     69  C34 non d ame     -34.448  19.148  25.597  0.00  0.00    -0.075 A 
ATOM     70  H52 non d ame     -36.106  19.266  24.225  0.00  0.00     0.083 H 
ATOM     71  H53 non d ame     -33.786  18.669  24.875  0.00  0.00     0.084 H 
ENDBRANCH  58  61
ENDBRANCH  57  58
ENDBRANCH  55  57
ENDBRANCH  52  55
ENDBRANCH  49  52
ENDBRANCH  47  49
BRANCH  47  72
ATOM     72  C24 non d ame     -32.947  13.619  26.240  0.00  0.00    -0.039 C 
ATOM     73  H35 non d ame     -33.520  12.722  25.999  0.00  0.00     0.036 H 
ATOM     74  H36 non d ame     -33.278  14.591  25.875  0.00  0.00     0.036 H 
BRANCH  72  75
ATOM     75  C25 non d ame     -31.458  13.390  25.695  0.00  0.00    -0.001 C 
ATOM     76  C26 non d ame     -31.043  14.610  24.675  0.00  0.00    -0.035 C 
ATOM     77  C27 non d ame     -30.576  14.075  23.521  0.00  0.00     0.085 C 
ATOM     78  H38 non d ame     -31.933  15.155  24.361  0.00  0.00     0.036 H 
ATOM     79  H39 non d ame     -30.183  15.152  25.070  0.00  0.00     0.036 H 
ATOM     80  N5  non d ame     -30.942  12.610  23.535  0.00  0.00    -0.049 N 
ATOM     81  H40 non d ame     -31.131  14.571  22.724  0.00  0.00     0.075 H 
ATOM     82  H41 non d ame     -29.492  14.171  23.573  0.00  0.00     0.075 H 
ATOM     83  C28 non d ame     -31.360  12.271  25.057  0.00  0.00     0.193 C 
ATOM     84  H42 non d ame     -31.757  12.512  22.948  0.00  0.00     0.280 HD
ATOM     85  H43 non d ame     -30.096  12.103  23.314  0.00  0.00     0.280 HD
ATOM     86  H44 non d ame     -30.679  11.729  25.711  0.00  0.00     0.129 H 
ATOM     87  H37 non d ame     -30.757  13.152  26.495  0.00  0.00     0.046 H 
BRANCH  83  88
ATOM     88  O6  non d ame     -32.582  11.530  25.079  0.00  0.00    -0.369 OA
ATOM     89  H45 non d ame     -33.318  12.130  25.212  0.00  0.00     0.212 HD
ENDBRANCH  83  88
ENDBRANCH  72  75
ENDBRANCH  47  72
ENDBRANCH  45  47
ENDBRANCH   1  43
BRANCH   1  90
ATOM     90  C16 non d ame     -33.855   9.986  30.608  0.00  0.00    -0.035 C 
ATOM     91  H21 non d ame     -33.123   9.181  30.667  0.00  0.00     0.037 H 
ATOM     92  H22 non d ame     -33.598  10.982  30.967  0.00  0.00     0.037 H 
BRANCH  90  93
ATOM     93  C17 non d ame     -35.089   9.520  31.444  0.00  0.00    -0.059 C 
ATOM     94  H23 non d ame     -35.981   9.692  30.842  0.00  0.00     0.038 H 
BRANCH  93  95
ATOM     95  C18 non d ame     -35.029   7.997  31.785  0.00  0.00    -0.073 C 
ATOM     96  H24 non d ame     -33.989   7.682  31.861  0.00  0.00     0.028 H 
ATOM     97  H25 non d ame     -35.532   7.817  32.735  0.00  0.00     0.028 H 
ATOM     98  H26 non d ame     -35.525   7.429  30.999  0.00  0.00     0.028 H 
ENDBRANCH  93  95
BRANCH  93  99
ATOM     99  C19 non d ame     -35.233  10.357  32.718  0.00  0.00    -0.073 C 
ATOM    100  H27 non d ame     -34.441  11.106  32.753  0.00  0.00     0.028 H 
ATOM    101  H28 non d ame     -36.203  10.856  32.718  0.00  0.00     0.028 H 
ATOM    102  H29 non d ame     -35.159   9.708  33.590  0.00  0.00     0.028 H 
ENDBRANCH  93  99
ENDBRANCH  90  93
ENDBRANCH   1  90
TORSDOF 26
ENDMDL
MODEL 18
REMARK VINA RESULT:      -6.8      3.365      9.475
REMARK  26 active torsions:
REMARK  status: ('A' for Active; 'I' for Inactive)
REMARK    1  A    between atoms: C2_2  and  C3_3 
REMARK    2  A    between atoms: C4_6  and  C5_7 
REMARK       I    between atoms: C5_7  and  N2_9 
REMARK    3  A    between atoms: N2_9  and  C6_10 
REMARK    4  A    between atoms: C6_10  and  C7_11 
REMARK    5  A    between atoms: C6_10  and  C8_13 
REMARK       I    between atoms: C7_11  and  N3_14 
REMARK    6  A    between atoms: N3_14  and  C9_15 
REMARK    7  A    between atoms: C9_15  and  C10_16 
REMARK    8  A    between atoms: C9_15  and  C11_18 
REMARK       I    between atoms: C10_16  and  N4_21 
REMARK    9  A    between atoms: C11_18  and  C12_19 
REMARK   10  A    between atoms: C11_18  and  C13_20 
REMARK   11  A    between atoms: N4_21  and  C14_22 
REMARK   12  A    between atoms: C14_22  and  C15_23 
REMARK   13  A    between atoms: C14_22  and  C16_25 
REMARK       I    between atoms: C15_23  and  N6_40 
REMARK   14  A    between atoms: C16_25  and  C17_26 
REMARK   15  A    between atoms: C17_26  and  C18_27 
REMARK   16  A    between atoms: C17_26  and  C19_28 
REMARK   17  A    between atoms: C20_29  and  C21_30 
REMARK   18  A    between atoms: C20_29  and  C24_33 
REMARK   19  A    between atoms: C20_29  and  N6_40 
REMARK   20  A    between atoms: C21_30  and  C22_31 
REMARK   21  A    between atoms: C22_31  and  C23_32 
REMARK   22  A    between atoms: C23_32  and  O8_43 
REMARK   23  A    between atoms: C24_33  and  C25_34 
REMARK   24  A    between atoms: C28_38  and  O6_39 
REMARK   25  A    between atoms: C29_42  and  O8_43 
REMARK   26  A    between atoms: C29_42  and  C35_49 
ROOT
ATOM      1  C14 non d ame     -34.804   8.335  31.041  0.00  0.00     0.089 C 
ATOM      2  H20 non d ame     -33.906   8.555  31.620  0.00  0.00     0.087 H 
ENDROOT
BRANCH   1   3
ATOM      3  N4  non d ame     -34.735   9.114  29.814  0.00  0.00    -0.346 N 
ATOM      4  C10 non d ame     -33.685  10.184  29.648  0.00  0.00     0.241 C 
ATOM      5  O4  non d ame     -32.908  10.403  30.518  0.00  0.00    -0.271 OA
ATOM      6  H19 non d ame     -35.407   8.914  29.086  0.00  0.00     0.163 HD
BRANCH   4   7
ATOM      7  C9  non d ame     -33.625  10.976  28.368  0.00  0.00     0.092 C 
ATOM      8  H11 non d ame     -34.396  11.746  28.387  0.00  0.00     0.088 H 
BRANCH   7   9
ATOM      9  N3  non d ame     -32.332  11.658  28.275  0.00  0.00    -0.346 N 
ATOM     10  C7  non d ame     -32.277  13.099  28.249  0.00  0.00     0.240 C 
ATOM     11  O3  non d ame     -33.265  13.725  28.301  0.00  0.00    -0.271 OA
ATOM     12  H10 non d ame     -31.471  11.132  28.228  0.00  0.00     0.163 HD
BRANCH  10  13
ATOM     13  C6  non d ame     -30.898  13.821  28.147  0.00  0.00     0.086 C 
ATOM     14  H6  non d ame     -30.059  13.125  28.129  0.00  0.00     0.086 H 
BRANCH  13  15
ATOM     15  N2  non d ame     -30.847  14.565  26.900  0.00  0.00    -0.343 N 
ATOM     16  C5  non d ame     -30.956  13.848  25.627  0.00  0.00     0.273 C 
ATOM     17  O2  non d ame     -31.081  12.673  25.617  0.00  0.00    -0.266 OA
ATOM     18  H5  non d ame     -30.736  15.569  26.917  0.00  0.00     0.163 HD
BRANCH  16  19
ATOM     19  C4  non d ame     -30.905  14.623  24.301  0.00  0.00     0.154 A 
ATOM     20  C1  non d ame     -30.680  14.087  22.994  0.00  0.00    -0.017 A 
ATOM     21  C2  non d ame     -30.729  15.203  22.129  0.00  0.00     0.077 A 
ATOM     22  H1  non d ame     -30.506  13.047  22.715  0.00  0.00     0.091 H 
ATOM     23  O1  non d ame     -30.960  16.252  22.863  0.00  0.00    -0.218 OA
ATOM     24  N1  non d ame     -31.065  15.939  24.134  0.00  0.00    -0.123 NA
BRANCH  21  25
ATOM     25  C3  non d ame     -30.549  15.180  20.617  0.00  0.00    -0.029 C 
ATOM     26  H2  non d ame     -30.811  16.155  20.205  0.00  0.00     0.036 H 
ATOM     27  H3  non d ame     -29.510  14.954  20.378  0.00  0.00     0.036 H 
ATOM     28  H4  non d ame     -31.195  14.418  20.185  0.00  0.00     0.036 H 
ENDBRANCH  21  25
ENDBRANCH  16  19
ENDBRANCH  13  15
BRANCH  13  29
ATOM     29  C8  non d ame     -30.729  14.759  29.316  0.00  0.00    -0.049 C 
ATOM     30  H7  non d ame     -31.483  15.543  29.263  0.00  0.00     0.030 H 
ATOM     31  H8  non d ame     -30.848  14.203  30.246  0.00  0.00     0.030 H 
ATOM     32  H9  non d ame     -29.736  15.205  29.283  0.00  0.00     0.030 H 
ENDBRANCH  13  29
ENDBRANCH  10  13
ENDBRANCH   7   9
BRANCH   7  33
ATOM     33  C11 non d ame     -33.790  10.014  27.156  0.00  0.00    -0.033 C 
ATOM     34  H12 non d ame     -34.594   9.317  27.396  0.00  0.00     0.042 H 
BRANCH  33  35
ATOM     35  C12 non d ame     -34.209  10.788  25.867  0.00  0.00    -0.071 C 
ATOM     36  H13 non d ame     -33.365  10.833  25.180  0.00  0.00     0.028 H 
ATOM     37  H14 non d ame     -35.041  10.272  25.388  0.00  0.00     0.028 H 
ATOM     38  H15 non d ame     -34.514  11.800  26.134  0.00  0.00     0.028 H 
ENDBRANCH  33  35
BRANCH  33  39
ATOM     39  C13 non d ame     -32.487   9.184  26.919  0.00  0.00    -0.071 C 
ATOM     40  H16 non d ame     -31.714   9.830  26.504  0.00  0.00     0.028 H 
ATOM     41  H17 non d ame     -32.144   8.768  27.867  0.00  0.00     0.028 H 
ATOM     42  H18 non d ame     -32.695   8.372  26.222  0.00  0.00     0.028 H 
ENDBRANCH  33  39
ENDBRANCH   7  33
ENDBRANCH   4   7
ENDBRANCH   1   3
BRANCH   1  43
ATOM     43  C15 non d ame     -34.909   6.830  30.668  0.00  0.00     0.240 C 
ATOM     44  O5  non d ame     -35.401   6.064  31.432  0.00  0.00    -0.271 OA
ATOM     45  N6  non d ame     -34.405   6.342  29.353  0.00  0.00    -0.355 N 
ATOM     46  H46 non d ame     -33.989   6.985  28.693  0.00  0.00     0.162 HD
BRANCH  45  47
ATOM     47  C20 non d ame     -34.514   4.907  29.011  0.00  0.00     0.013 C 
ATOM     48  H30 non d ame     -34.579   4.345  29.942  0.00  0.00     0.072 H 
BRANCH  47  49
ATOM     49  C21 non d ame     -33.286   4.484  28.236  0.00  0.00    -0.038 C 
ATOM     50  H31 non d ame     -32.573   4.131  28.983  0.00  0.00     0.036 H 
ATOM     51  H32 non d ame     -33.646   3.805  27.463  0.00  0.00     0.036 H 
BRANCH  49  52
ATOM     52  C22 non d ame     -32.604   5.659  27.504  0.00  0.00     0.018 C 
ATOM     53  H33 non d ame     -33.247   6.522  27.667  0.00  0.00     0.048 H 
ATOM     54  H34 non d ame     -31.574   5.672  27.863  0.00  0.00     0.048 H 
BRANCH  52  55
ATOM     55  C23 non d ame     -32.519   5.473  25.964  0.00  0.00     0.259 C 
ATOM     56  O7  non d ame     -33.261   4.733  25.403  0.00  0.00    -0.265 OA
BRANCH  55  57
ATOM     57  O8  non d ame     -31.531   6.187  25.229  0.00  0.00    -0.317 OA
BRANCH  57  58
ATOM     58  C29 non d ame     -31.830   6.325  23.836  0.00  0.00     0.052 C 
ATOM     59  H47 non d ame     -31.349   5.478  23.347  0.00  0.00     0.082 H 
ATOM     60  H48 non d ame     -32.911   6.448  23.777  0.00  0.00     0.082 H 
BRANCH  58  61
ATOM     61  C35 non d ame     -31.158   7.629  23.329  0.00  0.00    -0.034 A 
ATOM     62  C30 non d ame     -31.790   8.855  23.516  0.00  0.00    -0.075 A 
ATOM     63  C31 non d ame     -31.187  10.027  23.060  0.00  0.00    -0.082 A 
ATOM     64  H49 non d ame     -32.757   8.898  24.017  0.00  0.00     0.084 H 
ATOM     65  C32 non d ame     -29.949   9.970  22.414  0.00  0.00    -0.083 A 
ATOM     66  H50 non d ame     -31.684  10.986  23.209  0.00  0.00     0.083 H 
ATOM     67  C33 non d ame     -29.325   8.744  22.228  0.00  0.00    -0.082 A 
ATOM     68  H51 non d ame     -29.471  10.881  22.056  0.00  0.00     0.083 H 
ATOM     69  C34 non d ame     -29.922   7.571  22.683  0.00  0.00    -0.075 A 
ATOM     70  H52 non d ame     -28.360   8.702  21.722  0.00  0.00     0.083 H 
ATOM     71  H53 non d ame     -29.425   6.612  22.534  0.00  0.00     0.084 H 
ENDBRANCH  58  61
ENDBRANCH  57  58
ENDBRANCH  55  57
ENDBRANCH  52  55
ENDBRANCH  49  52
ENDBRANCH  47  49
BRANCH  47  72
ATOM     72  C24 non d ame     -35.760   4.671  28.161  0.00  0.00    -0.039 C 
ATOM     73  H35 non d ame     -35.432   4.038  27.335  0.00  0.00     0.036 H 
ATOM     74  H36 non d ame     -36.520   4.312  28.854  0.00  0.00     0.036 H 
BRANCH  72  75
ATOM     75  C25 non d ame     -36.309   6.034  27.523  0.00  0.00    -0.001 C 
ATOM     76  C26 non d ame     -37.755   6.426  28.200  0.00  0.00    -0.035 C 
ATOM     77  C27 non d ame     -38.650   6.663  27.212  0.00  0.00     0.085 C 
ATOM     78  H38 non d ame     -38.171   5.563  28.719  0.00  0.00     0.036 H 
ATOM     79  H39 non d ame     -37.680   7.386  28.711  0.00  0.00     0.036 H 
ATOM     80  N5  non d ame     -38.039   6.150  25.930  0.00  0.00    -0.049 N 
ATOM     81  H40 non d ame     -39.523   6.056  27.457  0.00  0.00     0.075 H 
ATOM     82  H41 non d ame     -38.740   7.748  27.153  0.00  0.00     0.075 H 
ATOM     83  C28 non d ame     -36.473   5.920  26.246  0.00  0.00     0.193 C 
ATOM     84  H42 non d ame     -38.466   5.253  25.748  0.00  0.00     0.280 HD
ATOM     85  H43 non d ame     -38.125   6.897  25.254  0.00  0.00     0.280 HD
ATOM     86  H44 non d ame     -35.726   6.627  25.887  0.00  0.00     0.129 H 
ATOM     87  H37 non d ame     -35.548   6.813  27.493  0.00  0.00     0.046 H 
BRANCH  83  88
ATOM     88  O6  non d ame     -36.055   4.643  25.761  0.00  0.00    -0.369 OA
ATOM     89  H45 non d ame     -36.727   3.988  25.962  0.00  0.00     0.212 HD
ENDBRANCH  83  88
ENDBRANCH  72  75
ENDBRANCH  47  72
ENDBRANCH  45  47
ENDBRANCH   1  43
BRANCH   1  90
ATOM     90  C16 non d ame     -36.037   8.755  31.826  0.00  0.00    -0.035 C 
ATOM     91  H21 non d ame     -36.296   7.893  32.440  0.00  0.00     0.037 H 
ATOM     92  H22 non d ame     -35.769   9.699  32.300  0.00  0.00     0.037 H 
BRANCH  90  93
ATOM     93  C17 non d ame     -37.281   9.047  30.929  0.00  0.00    -0.059 C 
ATOM     94  H23 non d ame     -37.011   8.813  29.900  0.00  0.00     0.038 H 
BRANCH  93  95
ATOM     95  C18 non d ame     -38.507   8.159  31.315  0.00  0.00    -0.073 C 
ATOM     96  H24 non d ame     -38.590   8.105  32.401  0.00  0.00     0.028 H 
ATOM     97  H25 non d ame     -39.417   8.596  30.904  0.00  0.00     0.028 H 
ATOM     98  H26 non d ame     -38.371   7.156  30.911  0.00  0.00     0.028 H 
ENDBRANCH  93  95
BRANCH  93  99
ATOM     99  C19 non d ame     -37.651  10.533  30.975  0.00  0.00    -0.073 C 
ATOM    100  H27 non d ame     -37.078  11.026  31.761  0.00  0.00     0.028 H 
ATOM    101  H28 non d ame     -37.420  10.994  30.014  0.00  0.00     0.028 H 
ATOM    102  H29 non d ame     -38.715  10.636  31.180  0.00  0.00     0.028 H 
ENDBRANCH  93  99
ENDBRANCH  90  93
ENDBRANCH   1  90
TORSDOF 26
ENDMDL
MODEL 19
REMARK VINA RESULT:      -6.7      3.318      7.188
REMARK  26 active torsions:
REMARK  status: ('A' for Active; 'I' for Inactive)
REMARK    1  A    between atoms: C2_2  and  C3_3 
REMARK    2  A    between atoms: C4_6  and  C5_7 
REMARK       I    between atoms: C5_7  and  N2_9 
REMARK    3  A    between atoms: N2_9  and  C6_10 
REMARK    4  A    between atoms: C6_10  and  C7_11 
REMARK    5  A    between atoms: C6_10  and  C8_13 
REMARK       I    between atoms: C7_11  and  N3_14 
REMARK    6  A    between atoms: N3_14  and  C9_15 
REMARK    7  A    between atoms: C9_15  and  C10_16 
REMARK    8  A    between atoms: C9_15  and  C11_18 
REMARK       I    between atoms: C10_16  and  N4_21 
REMARK    9  A    between atoms: C11_18  and  C12_19 
REMARK   10  A    between atoms: C11_18  and  C13_20 
REMARK   11  A    between atoms: N4_21  and  C14_22 
REMARK   12  A    between atoms: C14_22  and  C15_23 
REMARK   13  A    between atoms: C14_22  and  C16_25 
REMARK       I    between atoms: C15_23  and  N6_40 
REMARK   14  A    between atoms: C16_25  and  C17_26 
REMARK   15  A    between atoms: C17_26  and  C18_27 
REMARK   16  A    between atoms: C17_26  and  C19_28 
REMARK   17  A    between atoms: C20_29  and  C21_30 
REMARK   18  A    between atoms: C20_29  and  C24_33 
REMARK   19  A    between atoms: C20_29  and  N6_40 
REMARK   20  A    between atoms: C21_30  and  C22_31 
REMARK   21  A    between atoms: C22_31  and  C23_32 
REMARK   22  A    between atoms: C23_32  and  O8_43 
REMARK   23  A    between atoms: C24_33  and  C25_34 
REMARK   24  A    between atoms: C28_38  and  O6_39 
REMARK   25  A    between atoms: C29_42  and  O8_43 
REMARK   26  A    between atoms: C29_42  and  C35_49 
ROOT
ATOM      1  C14 non d ame     -32.383   8.658  24.859  0.00  0.00     0.089 C 
ATOM      2  H20 non d ame     -31.315   8.496  24.711  0.00  0.00     0.087 H 
ENDROOT
BRANCH   1   3
ATOM      3  N4  non d ame     -32.983   7.367  25.162  0.00  0.00    -0.346 N 
ATOM      4  C10 non d ame     -32.264   6.090  24.806  0.00  0.00     0.241 C 
ATOM      5  O4  non d ame     -31.205   6.126  24.273  0.00  0.00    -0.271 OA
ATOM      6  H19 non d ame     -33.887   7.358  25.615  0.00  0.00     0.163 HD
BRANCH   4   7
ATOM      7  C9  non d ame     -32.898   4.763  25.133  0.00  0.00     0.092 C 
ATOM      8  H11 non d ame     -32.188   4.155  25.694  0.00  0.00     0.088 H 
BRANCH   7   9
ATOM      9  N3  non d ame     -34.063   4.977  25.996  0.00  0.00    -0.346 N 
ATOM     10  C7  non d ame     -34.031   4.541  27.371  0.00  0.00     0.240 C 
ATOM     11  O3  non d ame     -33.076   4.015  27.798  0.00  0.00    -0.271 OA
ATOM     12  H10 non d ame     -34.894   5.427  25.642  0.00  0.00     0.163 HD
BRANCH  10  13
ATOM     13  C6  non d ame     -35.275   4.768  28.284  0.00  0.00     0.086 C 
ATOM     14  H6  non d ame     -35.243   4.173  29.196  0.00  0.00     0.086 H 
BRANCH  13  15
ATOM     15  N2  non d ame     -35.307   6.161  28.699  0.00  0.00    -0.343 N 
ATOM     16  C5  non d ame     -35.302   6.490  30.126  0.00  0.00     0.273 C 
ATOM     17  O2  non d ame     -35.275   5.626  30.933  0.00  0.00    -0.266 OA
ATOM     18  H5  non d ame     -35.334   6.893  28.003  0.00  0.00     0.163 HD
BRANCH  16  19
ATOM     19  C4  non d ame     -35.334   7.958  30.578  0.00  0.00     0.154 A 
ATOM     20  C1  non d ame     -35.165   8.457  31.908  0.00  0.00    -0.017 A 
ATOM     21  C2  non d ame     -35.280   9.860  31.788  0.00  0.00     0.077 A 
ATOM     22  H1  non d ame     -34.987   7.889  32.822  0.00  0.00     0.091 H 
ATOM     23  O1  non d ame     -35.488  10.125  30.531  0.00  0.00    -0.218 OA
ATOM     24  N1  non d ame     -35.524   9.031  29.806  0.00  0.00    -0.123 NA
BRANCH  21  25
ATOM     25  C3  non d ame     -35.178  10.874  32.920  0.00  0.00    -0.029 C 
ATOM     26  H2  non d ame     -34.225  10.748  33.435  0.00  0.00     0.036 H 
ATOM     27  H3  non d ame     -35.238  11.882  32.511  0.00  0.00     0.036 H 
ATOM     28  H4  non d ame     -35.994  10.717  33.623  0.00  0.00     0.036 H 
ENDBRANCH  21  25
ENDBRANCH  16  19
ENDBRANCH  13  15
BRANCH  13  29
ATOM     29  C8  non d ame     -36.531   4.427  27.522  0.00  0.00    -0.049 C 
ATOM     30  H7  non d ame     -37.330   5.108  27.815  0.00  0.00     0.030 H 
ATOM     31  H8  non d ame     -36.344   4.526  26.453  0.00  0.00     0.030 H 
ATOM     32  H9  non d ame     -36.825   3.402  27.747  0.00  0.00     0.030 H 
ENDBRANCH  13  29
ENDBRANCH  10  13
ENDBRANCH   7   9
BRANCH   7  33
ATOM     33  C11 non d ame     -33.352   4.068  23.816  0.00  0.00    -0.033 C 
ATOM     34  H12 non d ame     -32.503   4.076  23.131  0.00  0.00     0.042 H 
BRANCH  33  35
ATOM     35  C12 non d ame     -33.739   2.576  24.065  0.00  0.00    -0.071 C 
ATOM     36  H13 non d ame     -34.122   2.465  25.079  0.00  0.00     0.028 H 
ATOM     37  H14 non d ame     -34.507   2.278  23.351  0.00  0.00     0.028 H 
ATOM     38  H15 non d ame     -32.859   1.946  23.938  0.00  0.00     0.028 H 
ENDBRANCH  33  35
BRANCH  33  39
ATOM     39  C13 non d ame     -34.523   4.853  23.143  0.00  0.00    -0.071 C 
ATOM     40  H16 non d ame     -35.410   4.794  23.774  0.00  0.00     0.028 H 
ATOM     41  H17 non d ame     -34.235   5.897  23.017  0.00  0.00     0.028 H 
ATOM     42  H18 non d ame     -34.740   4.417  22.169  0.00  0.00     0.028 H 
ENDBRANCH  33  39
ENDBRANCH   7  33
ENDBRANCH   4   7
ENDBRANCH   1   3
BRANCH   1  43
ATOM     43  C15 non d ame     -32.672   9.628  26.040  0.00  0.00     0.240 C 
ATOM     44  O5  non d ame     -32.696   9.213  27.153  0.00  0.00    -0.271 OA
ATOM     45  N6  non d ame     -32.910  11.077  25.784  0.00  0.00    -0.355 N 
ATOM     46  H46 non d ame     -32.886  11.442  24.842  0.00  0.00     0.162 HD
BRANCH  45  47
ATOM     47  C20 non d ame     -33.181  11.988  26.917  0.00  0.00     0.013 C 
ATOM     48  H30 non d ame     -33.530  11.385  27.756  0.00  0.00     0.072 H 
BRANCH  47  49
ATOM     49  C21 non d ame     -34.249  12.980  26.516  0.00  0.00    -0.038 C 
ATOM     50  H31 non d ame     -34.242  12.995  25.425  0.00  0.00     0.036 H 
ATOM     51  H32 non d ame     -35.148  12.677  27.051  0.00  0.00     0.036 H 
BRANCH  49  52
ATOM     52  C22 non d ame     -33.932  14.420  26.973  0.00  0.00     0.018 C 
ATOM     53  H33 non d ame     -34.852  14.798  27.417  0.00  0.00     0.048 H 
ATOM     54  H34 non d ame     -33.027  14.345  27.578  0.00  0.00     0.048 H 
BRANCH  52  55
ATOM     55  C23 non d ame     -33.588  15.387  25.807  0.00  0.00     0.259 C 
ATOM     56  O7  non d ame     -34.453  15.916  25.187  0.00  0.00    -0.265 OA
BRANCH  55  57
ATOM     57  O8  non d ame     -32.225  15.624  25.476  0.00  0.00    -0.317 OA
BRANCH  57  58
ATOM     58  C29 non d ame     -32.032  16.192  24.177  0.00  0.00     0.052 C 
ATOM     59  H47 non d ame     -33.021  16.229  23.722  0.00  0.00     0.082 H 
ATOM     60  H48 non d ame     -31.469  17.111  24.338  0.00  0.00     0.082 H 
BRANCH  58  61
ATOM     61  C35 non d ame     -31.150  15.215  23.353  0.00  0.00    -0.034 A 
ATOM     62  C30 non d ame     -30.551  15.644  22.174  0.00  0.00    -0.075 A 
ATOM     63  C31 non d ame     -29.759  14.767  21.433  0.00  0.00    -0.082 A 
ATOM     64  H49 non d ame     -30.701  16.667  21.828  0.00  0.00     0.084 H 
ATOM     65  C32 non d ame     -29.570  13.455  21.876  0.00  0.00    -0.083 A 
ATOM     66  H50 non d ame     -29.290  15.107  20.510  0.00  0.00     0.083 H 
ATOM     67  C33 non d ame     -30.173  13.030  23.052  0.00  0.00    -0.082 A 
ATOM     68  H51 non d ame     -28.952  12.763  21.304  0.00  0.00     0.083 H 
ATOM     69  C34 non d ame     -30.963  13.904  23.796  0.00  0.00    -0.075 A 
ATOM     70  H52 non d ame     -30.026  12.005  23.394  0.00  0.00     0.083 H 
ATOM     71  H53 non d ame     -31.433  13.563  24.719  0.00  0.00     0.084 H 
ENDBRANCH  58  61
ENDBRANCH  57  58
ENDBRANCH  55  57
ENDBRANCH  52  55
ENDBRANCH  49  52
ENDBRANCH  47  49
BRANCH  47  72
ATOM     72  C24 non d ame     -31.905  12.736  27.296  0.00  0.00    -0.039 C 
ATOM     73  H35 non d ame     -31.206  12.547  26.481  0.00  0.00     0.036 H 
ATOM     74  H36 non d ame     -32.222  13.755  27.516  0.00  0.00     0.036 H 
BRANCH  72  75
ATOM     75  C25 non d ame     -31.247  12.147  28.632  0.00  0.00    -0.001 C 
ATOM     76  C26 non d ame     -32.421  11.561  29.623  0.00  0.00    -0.035 C 
ATOM     77  C27 non d ame     -32.256  12.092  30.858  0.00  0.00     0.085 C 
ATOM     78  H38 non d ame     -33.395  11.937  29.311  0.00  0.00     0.036 H 
ATOM     79  H39 non d ame     -32.275  10.492  29.784  0.00  0.00     0.036 H 
ATOM     80  N5  non d ame     -31.280  13.235  30.719  0.00  0.00    -0.049 N 
ATOM     81  H40 non d ame     -33.232  12.490  31.137  0.00  0.00     0.075 H 
ATOM     82  H41 non d ame     -31.797  11.304  31.455  0.00  0.00     0.075 H 
ATOM     83  C28 non d ame     -30.589  13.057  29.271  0.00  0.00     0.193 C 
ATOM     84  H42 non d ame     -31.830  14.082  30.712  0.00  0.00     0.280 HD
ATOM     85  H43 non d ame     -30.576  13.097  31.431  0.00  0.00     0.280 HD
ATOM     86  H44 non d ame     -29.576  12.667  29.184  0.00  0.00     0.129 H 
ATOM     87  H37 non d ame     -30.402  11.491  28.422  0.00  0.00     0.046 H 
BRANCH  83  88
ATOM     88  O6  non d ame     -30.579  14.304  28.573  0.00  0.00    -0.369 OA
ATOM     89  H45 non d ame     -31.465  14.505  28.263  0.00  0.00     0.212 HD
ENDBRANCH  83  88
ENDBRANCH  72  75
ENDBRANCH  47  72
ENDBRANCH  45  47
ENDBRANCH   1  43
BRANCH   1  90
ATOM     90  C16 non d ame     -33.003   9.206  23.584  0.00  0.00    -0.035 C 
ATOM     91  H21 non d ame     -33.835   8.539  23.357  0.00  0.00     0.037 H 
ATOM     92  H22 non d ame     -33.189  10.260  23.783  0.00  0.00     0.037 H 
BRANCH  90  93
ATOM     93  C17 non d ame     -32.048   9.152  22.349  0.00  0.00    -0.059 C 
ATOM     94  H23 non d ame     -32.283  10.002  21.711  0.00  0.00     0.038 H 
BRANCH  93  95
ATOM     95  C18 non d ame     -30.545   9.266  22.761  0.00  0.00    -0.073 C 
ATOM     96  H24 non d ame     -29.917   8.884  21.957  0.00  0.00     0.028 H 
ATOM     97  H25 non d ame     -30.298  10.311  22.949  0.00  0.00     0.028 H 
ATOM     98  H26 non d ame     -30.371   8.684  23.666  0.00  0.00     0.028 H 
ENDBRANCH  93  95
BRANCH  93  99
ATOM     99  C19 non d ame     -32.291   7.884  21.525  0.00  0.00    -0.073 C 
ATOM    100  H27 non d ame     -33.005   8.099  20.729  0.00  0.00     0.028 H 
ATOM    101  H28 non d ame     -31.350   7.549  21.087  0.00  0.00     0.028 H 
ATOM    102  H29 non d ame     -32.689   7.102  22.170  0.00  0.00     0.028 H 
ENDBRANCH  93  99
ENDBRANCH  90  93
ENDBRANCH   1  90
TORSDOF 26
ENDMDL
MODEL 20
REMARK VINA RESULT:      -6.7      2.739      7.792
REMARK  26 active torsions:
REMARK  status: ('A' for Active; 'I' for Inactive)
REMARK    1  A    between atoms: C2_2  and  C3_3 
REMARK    2  A    between atoms: C4_6  and  C5_7 
REMARK       I    between atoms: C5_7  and  N2_9 
REMARK    3  A    between atoms: N2_9  and  C6_10 
REMARK    4  A    between atoms: C6_10  and  C7_11 
REMARK    5  A    between atoms: C6_10  and  C8_13 
REMARK       I    between atoms: C7_11  and  N3_14 
REMARK    6  A    between atoms: N3_14  and  C9_15 
REMARK    7  A    between atoms: C9_15  and  C10_16 
REMARK    8  A    between atoms: C9_15  and  C11_18 
REMARK       I    between atoms: C10_16  and  N4_21 
REMARK    9  A    between atoms: C11_18  and  C12_19 
REMARK   10  A    between atoms: C11_18  and  C13_20 
REMARK   11  A    between atoms: N4_21  and  C14_22 
REMARK   12  A    between atoms: C14_22  and  C15_23 
REMARK   13  A    between atoms: C14_22  and  C16_25 
REMARK       I    between atoms: C15_23  and  N6_40 
REMARK   14  A    between atoms: C16_25  and  C17_26 
REMARK   15  A    between atoms: C17_26  and  C18_27 
REMARK   16  A    between atoms: C17_26  and  C19_28 
REMARK   17  A    between atoms: C20_29  and  C21_30 
REMARK   18  A    between atoms: C20_29  and  C24_33 
REMARK   19  A    between atoms: C20_29  and  N6_40 
REMARK   20  A    between atoms: C21_30  and  C22_31 
REMARK   21  A    between atoms: C22_31  and  C23_32 
REMARK   22  A    between atoms: C23_32  and  O8_43 
REMARK   23  A    between atoms: C24_33  and  C25_34 
REMARK   24  A    between atoms: C28_38  and  O6_39 
REMARK   25  A    between atoms: C29_42  and  O8_43 
REMARK   26  A    between atoms: C29_42  and  C35_49 
ROOT
ATOM      1  C14 non d ame     -32.996   9.258  27.449  0.00  0.00     0.089 C 
ATOM      2  H20 non d ame     -31.981   8.858  27.417  0.00  0.00     0.087 H 
ENDROOT
BRANCH   1   3
ATOM      3  N4  non d ame     -32.899  10.671  27.782  0.00  0.00    -0.346 N 
ATOM      4  C10 non d ame     -31.772  11.508  27.230  0.00  0.00     0.241 C 
ATOM      5  O4  non d ame     -30.953  11.022  26.524  0.00  0.00    -0.271 OA
ATOM      6  H19 non d ame     -33.605  11.066  28.387  0.00  0.00     0.163 HD
BRANCH   4   7
ATOM      7  C9  non d ame     -31.692  12.971  27.580  0.00  0.00     0.092 C 
ATOM      8  H11 non d ame     -30.658  13.306  27.488  0.00  0.00     0.088 H 
BRANCH   7   9
ATOM      9  N3  non d ame     -32.485  13.747  26.624  0.00  0.00    -0.346 N 
ATOM     10  C7  non d ame     -31.837  14.409  25.518  0.00  0.00     0.240 C 
ATOM     11  O3  non d ame     -30.677  14.328  25.384  0.00  0.00    -0.271 OA
ATOM     12  H10 non d ame     -33.486  13.828  26.728  0.00  0.00     0.163 HD
BRANCH  10  13
ATOM     13  C6  non d ame     -32.687  15.237  24.505  0.00  0.00     0.086 C 
ATOM     14  H6  non d ame     -33.306  14.610  23.863  0.00  0.00     0.086 H 
BRANCH  13  15
ATOM     15  N2  non d ame     -33.594  16.098  25.245  0.00  0.00    -0.343 N 
ATOM     16  C5  non d ame     -33.053  17.205  26.038  0.00  0.00     0.273 C 
ATOM     17  O2  non d ame     -31.887  17.391  26.075  0.00  0.00    -0.266 OA
ATOM     18  H5  non d ame     -34.589  15.929  25.210  0.00  0.00     0.163 HD
BRANCH  16  19
ATOM     19  C4  non d ame     -34.000  18.124  26.823  0.00  0.00     0.154 A 
ATOM     20  C1  non d ame     -34.799  19.191  26.303  0.00  0.00    -0.017 A 
ATOM     21  C2  non d ame     -35.481  19.716  27.424  0.00  0.00     0.077 A 
ATOM     22  H1  non d ame     -34.871  19.535  25.271  0.00  0.00     0.091 H 
ATOM     23  O1  non d ame     -35.112  19.021  28.461  0.00  0.00    -0.218 OA
ATOM     24  N1  non d ame     -34.249  18.087  28.135  0.00  0.00    -0.123 NA
BRANCH  21  25
ATOM     25  C3  non d ame     -36.466  20.877  27.418  0.00  0.00    -0.029 C 
ATOM     26  H2  non d ame     -36.185  21.596  28.187  0.00  0.00     0.036 H 
ATOM     27  H3  non d ame     -36.448  21.363  26.443  0.00  0.00     0.036 H 
ATOM     28  H4  non d ame     -37.469  20.503  27.620  0.00  0.00     0.036 H 
ENDBRANCH  21  25
ENDBRANCH  16  19
ENDBRANCH  13  15
BRANCH  13  29
ATOM     29  C8  non d ame     -31.774  16.069  23.641  0.00  0.00    -0.049 C 
ATOM     30  H7  non d ame     -31.815  15.707  22.614  0.00  0.00     0.030 H 
ATOM     31  H8  non d ame     -32.096  17.110  23.671  0.00  0.00     0.030 H 
ATOM     32  H9  non d ame     -30.752  15.993  24.013  0.00  0.00     0.030 H 
ENDBRANCH  13  29
ENDBRANCH  10  13
ENDBRANCH   7   9
BRANCH   7  33
ATOM     33  C11 non d ame     -32.251  13.192  29.016  0.00  0.00    -0.033 C 
ATOM     34  H12 non d ame     -33.092  12.509  29.149  0.00  0.00     0.042 H 
BRANCH  33  35
ATOM     35  C12 non d ame     -31.187  12.843  30.102  0.00  0.00    -0.071 C 
ATOM     36  H13 non d ame     -30.792  13.763  30.533  0.00  0.00     0.028 H 
ATOM     37  H14 non d ame     -31.651  12.245  30.886  0.00  0.00     0.028 H 
ATOM     38  H15 non d ame     -30.374  12.278  29.646  0.00  0.00     0.028 H 
ENDBRANCH  33  35
BRANCH  33  39
ATOM     39  C13 non d ame     -32.782  14.651  29.191  0.00  0.00    -0.071 C 
ATOM     40  H16 non d ame     -33.318  14.954  28.291  0.00  0.00     0.028 H 
ATOM     41  H17 non d ame     -33.457  14.692  30.047  0.00  0.00     0.028 H 
ATOM     42  H18 non d ame     -31.943  15.325  29.359  0.00  0.00     0.028 H 
ENDBRANCH  33  39
ENDBRANCH   7  33
ENDBRANCH   4   7
ENDBRANCH   1   3
BRANCH   1  43
ATOM     43  C15 non d ame     -33.726   9.119  26.084  0.00  0.00     0.240 C 
ATOM     44  O5  non d ame     -34.718   9.740  25.878  0.00  0.00    -0.271 OA
ATOM     45  N6  non d ame     -33.183   8.218  25.027  0.00  0.00    -0.355 N 
ATOM     46  H46 non d ame     -32.337   7.690  25.188  0.00  0.00     0.162 HD
BRANCH  45  47
ATOM     47  C20 non d ame     -33.888   8.098  23.732  0.00  0.00     0.013 C 
ATOM     48  H30 non d ame     -34.806   8.682  23.795  0.00  0.00     0.072 H 
BRANCH  47  49
ATOM     49  C21 non d ame     -34.216   6.645  23.475  0.00  0.00    -0.038 C 
ATOM     50  H31 non d ame     -35.239   6.506  23.828  0.00  0.00     0.036 H 
ATOM     51  H32 non d ame     -33.973   6.470  22.427  0.00  0.00     0.036 H 
BRANCH  49  52
ATOM     52  C22 non d ame     -33.336   5.677  24.295  0.00  0.00     0.018 C 
ATOM     53  H33 non d ame     -33.009   4.910  23.595  0.00  0.00     0.048 H 
ATOM     54  H34 non d ame     -32.599   6.304  24.799  0.00  0.00     0.048 H 
BRANCH  52  55
ATOM     55  C23 non d ame     -34.105   4.932  25.420  0.00  0.00     0.259 C 
ATOM     56  O7  non d ame     -34.544   3.844  25.233  0.00  0.00    -0.265 OA
BRANCH  55  57
ATOM     57  O8  non d ame     -34.294   5.572  26.677  0.00  0.00    -0.317 OA
BRANCH  57  58
ATOM     58  C29 non d ame     -34.076   4.717  27.803  0.00  0.00     0.052 C 
ATOM     59  H47 non d ame     -34.378   3.722  27.480  0.00  0.00     0.082 H 
ATOM     60  H48 non d ame     -33.049   4.901  28.119  0.00  0.00     0.082 H 
BRANCH  58  61
ATOM     61  C35 non d ame     -35.028   5.173  28.942  0.00  0.00    -0.034 A 
ATOM     62  C30 non d ame     -34.543   5.320  30.238  0.00  0.00    -0.075 A 
ATOM     63  C31 non d ame     -35.398   5.729  31.261  0.00  0.00    -0.082 A 
ATOM     64  H49 non d ame     -33.495   5.113  30.453  0.00  0.00     0.084 H 
ATOM     65  C32 non d ame     -36.742   5.989  30.984  0.00  0.00    -0.083 A 
ATOM     66  H50 non d ame     -35.014   5.844  32.275  0.00  0.00     0.083 H 
ATOM     67  C33 non d ame     -37.222   5.839  29.691  0.00  0.00    -0.082 A 
ATOM     68  H51 non d ame     -37.417   6.310  31.778  0.00  0.00     0.083 H 
ATOM     69  C34 non d ame     -36.371   5.432  28.665  0.00  0.00    -0.075 A 
ATOM     70  H52 non d ame     -38.272   6.041  29.478  0.00  0.00     0.083 H 
ATOM     71  H53 non d ame     -36.755   5.318  27.651  0.00  0.00     0.084 H 
ENDBRANCH  58  61
ENDBRANCH  57  58
ENDBRANCH  55  57
ENDBRANCH  52  55
ENDBRANCH  49  52
ENDBRANCH  47  49
BRANCH  47  72
ATOM     72  C24 non d ame     -32.999   8.628  22.609  0.00  0.00    -0.039 C 
ATOM     73  H35 non d ame     -33.130   7.928  21.782  0.00  0.00     0.036 H 
ATOM     74  H36 non d ame     -33.279   9.674  22.486  0.00  0.00     0.036 H 
BRANCH  72  75
ATOM     75  C25 non d ame     -31.450   8.598  23.014  0.00  0.00    -0.001 C 
ATOM     76  C26 non d ame     -30.866  10.132  23.107  0.00  0.00    -0.035 C 
ATOM     77  C27 non d ame     -29.737  10.215  22.363  0.00  0.00     0.085 C 
ATOM     78  H38 non d ame     -31.549  10.822  22.612  0.00  0.00     0.036 H 
ATOM     79  H39 non d ame     -30.520  10.339  24.119  0.00  0.00     0.036 H 
ATOM     80  N5  non d ame     -29.678   8.971  21.510  0.00  0.00    -0.049 N 
ATOM     81  H40 non d ame     -29.877  11.082  21.717  0.00  0.00     0.075 H 
ATOM     82  H41 non d ame     -28.915  10.194  23.078  0.00  0.00     0.075 H 
ATOM     83  C28 non d ame     -30.752   7.946  22.144  0.00  0.00     0.193 C 
ATOM     84  H42 non d ame     -29.994   9.239  20.589  0.00  0.00     0.280 HD
ATOM     85  H43 non d ame     -28.753   8.584  21.632  0.00  0.00     0.280 HD
ATOM     86  H44 non d ame     -30.422   7.102  22.748  0.00  0.00     0.129 H 
ATOM     87  H37 non d ame     -31.257   7.941  23.862  0.00  0.00     0.046 H 
BRANCH  83  88
ATOM     88  O6  non d ame     -31.565   7.383  21.112  0.00  0.00    -0.369 OA
ATOM     89  H45 non d ame     -31.014   6.879  20.510  0.00  0.00     0.212 HD
ENDBRANCH  83  88
ENDBRANCH  72  75
ENDBRANCH  47  72
ENDBRANCH  45  47
ENDBRANCH   1  43
BRANCH   1  90
ATOM     90  C16 non d ame     -33.794   8.548  28.531  0.00  0.00    -0.035 C 
ATOM     91  H21 non d ame     -34.509   7.921  27.998  0.00  0.00     0.037 H 
ATOM     92  H22 non d ame     -33.052   8.091  29.185  0.00  0.00     0.037 H 
BRANCH  90  93
ATOM     93  C17 non d ame     -34.636   9.513  29.424  0.00  0.00    -0.059 C 
ATOM     94  H23 non d ame     -34.336  10.532  29.185  0.00  0.00     0.038 H 
BRANCH  93  95
ATOM     95  C18 non d ame     -36.168   9.388  29.145  0.00  0.00    -0.073 C 
ATOM     96  H24 non d ame     -36.642   8.838  29.958  0.00  0.00     0.028 H 
ATOM     97  H25 non d ame     -36.608  10.383  29.077  0.00  0.00     0.028 H 
ATOM     98  H26 non d ame     -36.325   8.857  28.207  0.00  0.00     0.028 H 
ENDBRANCH  93  95
BRANCH  93  99
ATOM     99  C19 non d ame     -34.334   9.287  30.908  0.00  0.00    -0.073 C 
ATOM    100  H27 non d ame     -33.261   9.145  31.043  0.00  0.00     0.028 H 
ATOM    101  H28 non d ame     -34.659  10.156  31.482  0.00  0.00     0.028 H 
ATOM    102  H29 non d ame     -34.865   8.403  31.257  0.00  0.00     0.028 H 
ENDBRANCH  93  99
ENDBRANCH  90  93
ENDBRANCH   1  90
TORSDOF 26
ENDMDL
