MODEL 1
REMARK VINA RESULT:      -7.1      0.000      0.000
REMARK  26 active torsions:
REMARK  status: ('A' for Active; 'I' for Inactive)
REMARK    1  A    between atoms: C2_2  and  C3_3 
REMARK    2  A    between atoms: C4_6  and  C5_7 
REMARK       I    between atoms: C5_7  and  N2_9 
REMARK    3  A    between atoms: N2_9  and  C6_10 
REMARK    4  A    between atoms: C6_10  and  C7_11 
REMARK    5  A    between atoms: C6_10  and  C8_13 
REMARK       I    between atoms: C7_11  and  N3_14 
REMARK    6  A    between atoms: N3_14  and  C9_15 
REMARK    7  A    between atoms: C9_15  and  C10_16 
REMARK    8  A    between atoms: C9_15  and  C11_18 
REMARK       I    between atoms: C10_16  and  N4_21 
REMARK    9  A    between atoms: C11_18  and  C12_19 
REMARK   10  A    between atoms: C11_18  and  C13_20 
REMARK   11  A    between atoms: N4_21  and  C14_22 
REMARK   12  A    between atoms: C14_22  and  C15_23 
REMARK   13  A    between atoms: C14_22  and  C16_25 
REMARK       I    between atoms: C15_23  and  N6_40 
REMARK   14  A    between atoms: C16_25  and  C17_26 
REMARK   15  A    between atoms: C17_26  and  C18_27 
REMARK   16  A    between atoms: C17_26  and  C19_28 
REMARK   17  A    between atoms: C20_29  and  C21_30 
REMARK   18  A    between atoms: C20_29  and  C24_33 
REMARK   19  A    between atoms: C20_29  and  N6_40 
REMARK   20  A    between atoms: C21_30  and  C22_31 
REMARK   21  A    between atoms: C22_31  and  C23_32 
REMARK   22  A    between atoms: C23_32  and  O8_43 
REMARK   23  A    between atoms: C24_33  and  C25_34 
REMARK   24  A    between atoms: C28_38  and  O6_39 
REMARK   25  A    between atoms: C29_42  and  O8_43 
REMARK   26  A    between atoms: C29_42  and  C35_49 
ROOT
ATOM      1  C14 non d ame     -31.129  14.138  24.494  0.00  0.00     0.089 C 
ATOM      2  H20 non d ame     -30.132  13.724  24.647  0.00  0.00     0.087 H 
ENDROOT
BRANCH   1   3
ATOM      3  N4  non d ame     -32.085  13.058  24.681  0.00  0.00    -0.346 N 
ATOM      4  C10 non d ame     -31.854  12.011  25.742  0.00  0.00     0.241 C 
ATOM      5  O4  non d ame     -30.889  12.056  26.430  0.00  0.00    -0.271 OA
ATOM      6  H19 non d ame     -32.900  13.036  24.084  0.00  0.00     0.163 HD
BRANCH   4   7
ATOM      7  C9  non d ame     -32.858  10.904  25.926  0.00  0.00     0.092 C 
ATOM      8  H11 non d ame     -33.057  10.772  26.990  0.00  0.00     0.088 H 
BRANCH   7   9
ATOM      9  N3  non d ame     -34.124  11.281  25.291  0.00  0.00    -0.346 N 
ATOM     10  C7  non d ame     -35.368  11.092  25.996  0.00  0.00     0.240 C 
ATOM     11  O3  non d ame     -35.369  10.636  27.075  0.00  0.00    -0.271 OA
ATOM     12  H10 non d ame     -34.140  11.673  24.361  0.00  0.00     0.163 HD
BRANCH  10  13
ATOM     13  C6  non d ame     -36.713  11.492  25.314  0.00  0.00     0.086 C 
ATOM     14  H6  non d ame     -37.586  11.193  25.894  0.00  0.00     0.086 H 
BRANCH  13  15
ATOM     15  N2  non d ame     -36.769  12.940  25.197  0.00  0.00    -0.343 N 
ATOM     16  C5  non d ame     -37.379  13.728  26.271  0.00  0.00     0.273 C 
ATOM     17  O2  non d ame     -37.824  13.187  27.223  0.00  0.00    -0.266 OA
ATOM     18  H5  non d ame     -36.390  13.394  24.378  0.00  0.00     0.163 HD
BRANCH  16  19
ATOM     19  C4  non d ame     -37.444  15.259  26.162  0.00  0.00     0.154 A 
ATOM     20  C1  non d ame     -37.152  16.056  25.010  0.00  0.00    -0.017 A 
ATOM     21  C2  non d ame     -37.361  17.390  25.428  0.00  0.00     0.077 A 
ATOM     22  H1  non d ame     -36.835  15.720  24.023  0.00  0.00     0.091 H 
ATOM     23  O1  non d ame     -37.732  17.350  26.675  0.00  0.00    -0.218 OA
ATOM     24  N1  non d ame     -37.787  16.118  27.125  0.00  0.00    -0.123 NA
BRANCH  21  25
ATOM     25  C3  non d ame     -37.186  18.640  24.576  0.00  0.00    -0.029 C 
ATOM     26  H2  non d ame     -36.479  18.435  23.772  0.00  0.00     0.036 H 
ATOM     27  H3  non d ame     -38.147  18.927  24.151  0.00  0.00     0.036 H 
ATOM     28  H4  non d ame     -36.806  19.451  25.195  0.00  0.00     0.036 H 
ENDBRANCH  21  25
ENDBRANCH  16  19
ENDBRANCH  13  15
BRANCH  13  29
ATOM     29  C8  non d ame     -36.795  10.860  23.947  0.00  0.00    -0.049 C 
ATOM     30  H7  non d ame     -36.266   9.908  23.955  0.00  0.00     0.030 H 
ATOM     31  H8  non d ame     -37.840  10.693  23.687  0.00  0.00     0.030 H 
ATOM     32  H9  non d ame     -36.339  11.524  23.213  0.00  0.00     0.030 H 
ENDBRANCH  13  29
ENDBRANCH  10  13
ENDBRANCH   7   9
BRANCH   7  33
ATOM     33  C11 non d ame     -32.319   9.600  25.268  0.00  0.00    -0.033 C 
ATOM     34  H12 non d ame     -31.230   9.659  25.269  0.00  0.00     0.042 H 
BRANCH  33  35
ATOM     35  C12 non d ame     -32.722   8.337  26.091  0.00  0.00    -0.071 C 
ATOM     36  H13 non d ame     -33.650   8.534  26.627  0.00  0.00     0.028 H 
ATOM     37  H14 non d ame     -32.863   7.494  25.416  0.00  0.00     0.028 H 
ATOM     38  H15 non d ame     -31.933   8.102  26.806  0.00  0.00     0.028 H 
ENDBRANCH  33  35
BRANCH  33  39
ATOM     39  C13 non d ame     -32.794   9.484  23.784  0.00  0.00    -0.071 C 
ATOM     40  H16 non d ame     -33.018  10.478  23.395  0.00  0.00     0.028 H 
ATOM     41  H17 non d ame     -32.007   9.028  23.184  0.00  0.00     0.028 H 
ATOM     42  H18 non d ame     -33.690   8.865  23.737  0.00  0.00     0.028 H 
ENDBRANCH  33  39
ENDBRANCH   7  33
ENDBRANCH   4   7
ENDBRANCH   1   3
BRANCH   1  43
ATOM     43  C15 non d ame     -31.456  15.272  25.507  0.00  0.00     0.240 C 
ATOM     44  O5  non d ame     -31.079  16.379  25.297  0.00  0.00    -0.271 OA
ATOM     45  N6  non d ame     -32.250  14.980  26.734  0.00  0.00    -0.355 N 
ATOM     46  H46 non d ame     -32.580  14.044  26.920  0.00  0.00     0.162 HD
BRANCH  45  47
ATOM     47  C20 non d ame     -32.555  16.069  27.687  0.00  0.00     0.013 C 
ATOM     48  H30 non d ame     -31.852  16.882  27.504  0.00  0.00     0.072 H 
BRANCH  47  49
ATOM     49  C21 non d ame     -32.395  15.556  29.101  0.00  0.00    -0.038 C 
ATOM     50  H31 non d ame     -31.325  15.607  29.313  0.00  0.00     0.036 H 
ATOM     51  H32 non d ame     -33.097  16.130  29.703  0.00  0.00     0.036 H 
BRANCH  49  52
ATOM     52  C22 non d ame     -32.799  14.074  29.250  0.00  0.00     0.018 C 
ATOM     53  H33 non d ame     -33.563  14.053  30.026  0.00  0.00     0.048 H 
ATOM     54  H34 non d ame     -33.038  13.731  28.242  0.00  0.00     0.048 H 
BRANCH  52  55
ATOM     55  C23 non d ame     -31.650  13.158  29.754  0.00  0.00     0.259 C 
ATOM     56  O7  non d ame     -30.523  13.381  29.449  0.00  0.00    -0.265 OA
BRANCH  55  57
ATOM     57  O8  non d ame     -31.960  12.038  30.574  0.00  0.00    -0.317 OA
BRANCH  57  58
ATOM     58  C29 non d ame     -32.634  10.981  29.884  0.00  0.00     0.052 C 
ATOM     59  H47 non d ame     -33.124  11.451  29.031  0.00  0.00     0.082 H 
ATOM     60  H48 non d ame     -31.883  10.207  29.724  0.00  0.00     0.082 H 
BRANCH  58  61
ATOM     61  C35 non d ame     -33.729  10.414  30.827  0.00  0.00    -0.034 A 
ATOM     62  C30 non d ame     -34.254   9.145  30.602  0.00  0.00    -0.075 A 
ATOM     63  C31 non d ame     -35.238   8.636  31.449  0.00  0.00    -0.082 A 
ATOM     64  H49 non d ame     -33.896   8.550  29.762  0.00  0.00     0.084 H 
ATOM     65  C32 non d ame     -35.698   9.403  32.523  0.00  0.00    -0.083 A 
ATOM     66  H50 non d ame     -35.646   7.641  31.270  0.00  0.00     0.083 H 
ATOM     67  C33 non d ame     -35.173  10.669  32.742  0.00  0.00    -0.082 A 
ATOM     68  H51 non d ame     -36.466   9.011  33.190  0.00  0.00     0.083 H 
ATOM     69  C34 non d ame     -34.189  11.181  31.899  0.00  0.00    -0.075 A 
ATOM     70  H52 non d ame     -35.536  11.265  33.580  0.00  0.00     0.083 H 
ATOM     71  H53 non d ame     -33.781  12.176  32.079  0.00  0.00     0.084 H 
ENDBRANCH  58  61
ENDBRANCH  57  58
ENDBRANCH  55  57
ENDBRANCH  52  55
ENDBRANCH  49  52
ENDBRANCH  47  49
BRANCH  47  72
ATOM     72  C24 non d ame     -33.989  16.552  27.479  0.00  0.00    -0.039 C 
ATOM     73  H35 non d ame     -34.390  15.930  26.677  0.00  0.00     0.036 H 
ATOM     74  H36 non d ame     -34.448  16.530  28.467  0.00  0.00     0.036 H 
BRANCH  72  75
ATOM     75  C25 non d ame     -34.035  18.070  26.970  0.00  0.00    -0.001 C 
ATOM     76  C26 non d ame     -32.547  18.753  27.111  0.00  0.00    -0.035 C 
ATOM     77  C27 non d ame     -32.667  19.926  27.778  0.00  0.00     0.085 C 
ATOM     78  H38 non d ame     -31.919  18.149  27.766  0.00  0.00     0.036 H 
ATOM     79  H39 non d ame     -32.180  19.055  26.130  0.00  0.00     0.036 H 
ATOM     80  N5  non d ame     -34.046  19.946  28.391  0.00  0.00    -0.049 N 
ATOM     81  H40 non d ame     -31.924  19.884  28.576  0.00  0.00     0.075 H 
ATOM     82  H41 non d ame     -32.605  20.702  27.017  0.00  0.00     0.075 H 
ATOM     83  C28 non d ame     -34.874  18.769  27.660  0.00  0.00     0.193 C 
ATOM     84  H42 non d ame     -33.931  19.702  29.364  0.00  0.00     0.280 HD
ATOM     85  H43 non d ame     -34.458  20.834  28.139  0.00  0.00     0.280 HD
ATOM     86  H44 non d ame     -35.613  19.004  26.894  0.00  0.00     0.129 H 
ATOM     87  H37 non d ame     -34.537  18.167  26.007  0.00  0.00     0.046 H 
BRANCH  83  88
ATOM     88  O6  non d ame     -35.567  17.978  28.628  0.00  0.00    -0.369 OA
ATOM     89  H45 non d ame     -36.251  17.465  28.192  0.00  0.00     0.212 HD
ENDBRANCH  83  88
ENDBRANCH  72  75
ENDBRANCH  47  72
ENDBRANCH  45  47
ENDBRANCH   1  43
BRANCH   1  90
ATOM     90  C16 non d ame     -31.252  14.669  23.074  0.00  0.00    -0.035 C 
ATOM     91  H21 non d ame     -31.829  13.919  22.535  0.00  0.00     0.037 H 
ATOM     92  H22 non d ame     -31.639  15.682  23.178  0.00  0.00     0.037 H 
BRANCH  90  93
ATOM     93  C17 non d ame     -29.885  14.792  22.330  0.00  0.00    -0.059 C 
ATOM     94  H23 non d ame     -29.175  15.253  23.015  0.00  0.00     0.038 H 
BRANCH  93  95
ATOM     95  C18 non d ame     -29.313  13.399  21.915  0.00  0.00    -0.073 C 
ATOM     96  H24 non d ame     -29.187  12.779  22.802  0.00  0.00     0.028 H 
ATOM     97  H25 non d ame     -30.006  12.911  21.228  0.00  0.00     0.028 H 
ATOM     98  H26 non d ame     -28.350  13.532  21.424  0.00  0.00     0.028 H 
ENDBRANCH  93  95
BRANCH  93  99
ATOM     99  C19 non d ame     -30.006  15.714  21.113  0.00  0.00    -0.073 C 
ATOM    100  H27 non d ame     -29.760  16.736  21.406  0.00  0.00     0.028 H 
ATOM    101  H28 non d ame     -29.317  15.384  20.336  0.00  0.00     0.028 H 
ATOM    102  H29 non d ame     -31.026  15.681  20.732  0.00  0.00     0.028 H 
ENDBRANCH  93  99
ENDBRANCH  90  93
ENDBRANCH   1  90
TORSDOF 26
ENDMDL
MODEL 2
REMARK VINA RESULT:      -7.1      3.378      7.183
REMARK  26 active torsions:
REMARK  status: ('A' for Active; 'I' for Inactive)
REMARK    1  A    between atoms: C2_2  and  C3_3 
REMARK    2  A    between atoms: C4_6  and  C5_7 
REMARK       I    between atoms: C5_7  and  N2_9 
REMARK    3  A    between atoms: N2_9  and  C6_10 
REMARK    4  A    between atoms: C6_10  and  C7_11 
REMARK    5  A    between atoms: C6_10  and  C8_13 
REMARK       I    between atoms: C7_11  and  N3_14 
REMARK    6  A    between atoms: N3_14  and  C9_15 
REMARK    7  A    between atoms: C9_15  and  C10_16 
REMARK    8  A    between atoms: C9_15  and  C11_18 
REMARK       I    between atoms: C10_16  and  N4_21 
REMARK    9  A    between atoms: C11_18  and  C12_19 
REMARK   10  A    between atoms: C11_18  and  C13_20 
REMARK   11  A    between atoms: N4_21  and  C14_22 
REMARK   12  A    between atoms: C14_22  and  C15_23 
REMARK   13  A    between atoms: C14_22  and  C16_25 
REMARK       I    between atoms: C15_23  and  N6_40 
REMARK   14  A    between atoms: C16_25  and  C17_26 
REMARK   15  A    between atoms: C17_26  and  C18_27 
REMARK   16  A    between atoms: C17_26  and  C19_28 
REMARK   17  A    between atoms: C20_29  and  C21_30 
REMARK   18  A    between atoms: C20_29  and  C24_33 
REMARK   19  A    between atoms: C20_29  and  N6_40 
REMARK   20  A    between atoms: C21_30  and  C22_31 
REMARK   21  A    between atoms: C22_31  and  C23_32 
REMARK   22  A    between atoms: C23_32  and  O8_43 
REMARK   23  A    between atoms: C24_33  and  C25_34 
REMARK   24  A    between atoms: C28_38  and  O6_39 
REMARK   25  A    between atoms: C29_42  and  O8_43 
REMARK   26  A    between atoms: C29_42  and  C35_49 
ROOT
ATOM      1  C14 non d ame     -32.826  10.393  25.611  0.00  0.00     0.089 C 
ATOM      2  H20 non d ame     -33.619  10.460  24.865  0.00  0.00     0.087 H 
ENDROOT
BRANCH   1   3
ATOM      3  N4  non d ame     -32.288   9.042  25.555  0.00  0.00    -0.346 N 
ATOM      4  C10 non d ame     -33.043   7.949  24.841  0.00  0.00     0.241 C 
ATOM      5  O4  non d ame     -34.084   8.180  24.321  0.00  0.00    -0.271 OA
ATOM      6  H19 non d ame     -31.401   8.865  26.006  0.00  0.00     0.163 HD
BRANCH   4   7
ATOM      7  C9  non d ame     -32.467   6.558  24.789  0.00  0.00     0.092 C 
ATOM      8  H11 non d ame     -31.399   6.604  25.004  0.00  0.00     0.088 H 
BRANCH   7   9
ATOM      9  N3  non d ame     -33.085   5.734  25.831  0.00  0.00    -0.346 N 
ATOM     10  C7  non d ame     -32.647   5.854  27.199  0.00  0.00     0.240 C 
ATOM     11  O3  non d ame     -31.797   6.608  27.479  0.00  0.00    -0.271 OA
ATOM     12  H10 non d ame     -33.818   5.077  25.604  0.00  0.00     0.163 HD
BRANCH  10  13
ATOM     13  C6  non d ame     -33.306   4.971  28.304  0.00  0.00     0.086 C 
ATOM     14  H6  non d ame     -32.676   4.859  29.187  0.00  0.00     0.086 H 
BRANCH  13  15
ATOM     15  N2  non d ame     -34.534   5.611  28.748  0.00  0.00    -0.343 N 
ATOM     16  C5  non d ame     -34.912   5.542  30.162  0.00  0.00     0.273 C 
ATOM     17  O2  non d ame     -34.224   4.968  30.932  0.00  0.00    -0.266 OA
ATOM     18  H5  non d ame     -35.117   6.096  28.082  0.00  0.00     0.163 HD
BRANCH  16  19
ATOM     19  C4  non d ame     -36.206   6.216  30.645  0.00  0.00     0.154 A 
ATOM     20  C1  non d ame     -36.491   7.617  30.679  0.00  0.00    -0.017 A 
ATOM     21  C2  non d ame     -37.800   7.710  31.202  0.00  0.00     0.077 A 
ATOM     22  H1  non d ame     -35.847   8.441  30.373  0.00  0.00     0.091 H 
ATOM     23  O1  non d ame     -38.211   6.497  31.435  0.00  0.00    -0.218 OA
ATOM     24  N1  non d ame     -37.297   5.609  31.119  0.00  0.00    -0.123 NA
BRANCH  21  25
ATOM     25  C3  non d ame     -38.585   8.992  31.446  0.00  0.00    -0.029 C 
ATOM     26  H2  non d ame     -38.931   9.394  30.493  0.00  0.00     0.036 H 
ATOM     27  H3  non d ame     -39.444   8.777  32.081  0.00  0.00     0.036 H 
ATOM     28  H4  non d ame     -37.944   9.723  31.937  0.00  0.00     0.036 H 
ENDBRANCH  21  25
ENDBRANCH  16  19
ENDBRANCH  13  15
BRANCH  13  29
ATOM     29  C8  non d ame     -33.610   3.604  27.744  0.00  0.00    -0.049 C 
ATOM     30  H7  non d ame     -32.996   3.428  26.862  0.00  0.00     0.030 H 
ATOM     31  H8  non d ame     -33.389   2.847  28.497  0.00  0.00     0.030 H 
ATOM     32  H9  non d ame     -34.664   3.549  27.471  0.00  0.00     0.030 H 
ENDBRANCH  13  29
ENDBRANCH  10  13
ENDBRANCH   7   9
BRANCH   7  33
ATOM     33  C11 non d ame     -32.756   5.930  23.394  0.00  0.00    -0.033 C 
ATOM     34  H12 non d ame     -33.602   6.465  22.962  0.00  0.00     0.042 H 
BRANCH  33  35
ATOM     35  C12 non d ame     -31.544   6.109  22.427  0.00  0.00    -0.071 C 
ATOM     36  H13 non d ame     -31.578   7.104  21.983  0.00  0.00     0.028 H 
ATOM     37  H14 non d ame     -30.615   5.991  22.984  0.00  0.00     0.028 H 
ATOM     38  H15 non d ame     -31.593   5.358  21.639  0.00  0.00     0.028 H 
ENDBRANCH  33  35
BRANCH  33  39
ATOM     39  C13 non d ame     -33.154   4.425  23.530  0.00  0.00    -0.071 C 
ATOM     40  H16 non d ame     -33.256   4.170  24.585  0.00  0.00     0.028 H 
ATOM     41  H17 non d ame     -34.103   4.253  23.021  0.00  0.00     0.028 H 
ATOM     42  H18 non d ame     -32.383   3.803  23.078  0.00  0.00     0.028 H 
ENDBRANCH  33  39
ENDBRANCH   7  33
ENDBRANCH   4   7
ENDBRANCH   1   3
BRANCH   1  43
ATOM     43  C15 non d ame     -31.672  11.398  25.335  0.00  0.00     0.240 C 
ATOM     44  O5  non d ame     -30.543  11.043  25.439  0.00  0.00    -0.271 OA
ATOM     45  N6  non d ame     -31.975  12.801  24.933  0.00  0.00    -0.355 N 
ATOM     46  H46 non d ame     -32.931  13.112  24.837  0.00  0.00     0.162 HD
BRANCH  45  47
ATOM     47  C20 non d ame     -30.866  13.745  24.672  0.00  0.00     0.013 C 
ATOM     48  H30 non d ame     -29.980  13.370  25.185  0.00  0.00     0.072 H 
BRANCH  47  49
ATOM     49  C21 non d ame     -31.235  15.109  25.209  0.00  0.00    -0.038 C 
ATOM     50  H31 non d ame     -30.746  15.185  26.182  0.00  0.00     0.036 H 
ATOM     51  H32 non d ame     -30.985  15.814  24.417  0.00  0.00     0.036 H 
BRANCH  49  52
ATOM     52  C22 non d ame     -32.749  15.262  25.470  0.00  0.00     0.018 C 
ATOM     53  H33 non d ame     -33.158  15.723  24.572  0.00  0.00     0.048 H 
ATOM     54  H34 non d ame     -33.095  14.275  25.781  0.00  0.00     0.048 H 
BRANCH  52  55
ATOM     55  C23 non d ame     -33.089  16.224  26.640  0.00  0.00     0.259 C 
ATOM     56  O7  non d ame     -33.332  17.368  26.430  0.00  0.00    -0.265 OA
BRANCH  55  57
ATOM     57  O8  non d ame     -33.094  15.726  27.973  0.00  0.00    -0.317 OA
BRANCH  57  58
ATOM     58  C29 non d ame     -33.618  14.401  28.097  0.00  0.00     0.052 C 
ATOM     59  H47 non d ame     -34.530  14.498  28.686  0.00  0.00     0.082 H 
ATOM     60  H48 non d ame     -33.663  14.005  27.083  0.00  0.00     0.082 H 
BRANCH  58  61
ATOM     61  C35 non d ame     -32.598  13.556  28.908  0.00  0.00    -0.034 A 
ATOM     62  C30 non d ame     -31.272  13.481  28.495  0.00  0.00    -0.075 A 
ATOM     63  C31 non d ame     -30.356  12.722  29.223  0.00  0.00    -0.082 A 
ATOM     64  H49 non d ame     -30.950  14.014  27.601  0.00  0.00     0.084 H 
ATOM     65  C32 non d ame     -30.772  12.035  30.367  0.00  0.00    -0.083 A 
ATOM     66  H50 non d ame     -29.317  12.666  28.897  0.00  0.00     0.083 H 
ATOM     67  C33 non d ame     -32.097  12.111  30.773  0.00  0.00    -0.082 A 
ATOM     68  H51 non d ame     -30.062  11.441  30.942  0.00  0.00     0.083 H 
ATOM     69  C34 non d ame     -33.015  12.870  30.050  0.00  0.00    -0.075 A 
ATOM     70  H52 non d ame     -32.420  11.573  31.665  0.00  0.00     0.083 H 
ATOM     71  H53 non d ame     -34.054  12.926  30.376  0.00  0.00     0.084 H 
ENDBRANCH  58  61
ENDBRANCH  57  58
ENDBRANCH  55  57
ENDBRANCH  52  55
ENDBRANCH  49  52
ENDBRANCH  47  49
BRANCH  47  72
ATOM     72  C24 non d ame     -30.610  13.839  23.170  0.00  0.00    -0.039 C 
ATOM     73  H35 non d ame     -29.793  13.145  22.971  0.00  0.00     0.036 H 
ATOM     74  H36 non d ame     -31.581  13.686  22.700  0.00  0.00     0.036 H 
BRANCH  72  75
ATOM     75  C25 non d ame     -30.105  15.299  22.745  0.00  0.00    -0.001 C 
ATOM     76  C26 non d ame     -31.252  16.044  21.834  0.00  0.00    -0.035 C 
ATOM     77  C27 non d ame     -30.675  16.505  20.698  0.00  0.00     0.085 C 
ATOM     78  H38 non d ame     -31.977  15.314  21.474  0.00  0.00     0.036 H 
ATOM     79  H39 non d ame     -31.593  16.952  22.332  0.00  0.00     0.036 H 
ATOM     80  N5  non d ame     -29.316  15.857  20.599  0.00  0.00    -0.049 N 
ATOM     81  H40 non d ame     -31.303  16.140  19.884  0.00  0.00     0.075 H 
ATOM     82  H41 non d ame     -30.548  17.577  20.849  0.00  0.00     0.075 H 
ATOM     83  C28 non d ame     -29.013  15.235  22.057  0.00  0.00     0.193 C 
ATOM     84  H42 non d ame     -29.406  15.099  19.938  0.00  0.00     0.280 HD
ATOM     85  H43 non d ame     -28.656  16.603  20.424  0.00  0.00     0.280 HD
ATOM     86  H44 non d ame     -28.321  15.728  22.738  0.00  0.00     0.129 H 
ATOM     87  H37 non d ame     -29.701  15.858  23.589  0.00  0.00     0.046 H 
BRANCH  83  88
ATOM     88  O6  non d ame     -28.534  13.894  21.931  0.00  0.00    -0.369 OA
ATOM     89  H45 non d ame     -27.811  13.871  21.300  0.00  0.00     0.212 HD
ENDBRANCH  83  88
ENDBRANCH  72  75
ENDBRANCH  47  72
ENDBRANCH  45  47
ENDBRANCH   1  43
BRANCH   1  90
ATOM     90  C16 non d ame     -33.401  10.641  26.996  0.00  0.00    -0.035 C 
ATOM     91  H21 non d ame     -32.556  10.955  27.608  0.00  0.00     0.037 H 
ATOM     92  H22 non d ame     -34.243  11.316  26.843  0.00  0.00     0.037 H 
BRANCH  90  93
ATOM     93  C17 non d ame     -33.982   9.359  27.673  0.00  0.00    -0.059 C 
ATOM     94  H23 non d ame     -33.556   8.494  27.164  0.00  0.00     0.038 H 
BRANCH  93  95
ATOM     95  C18 non d ame     -33.593   9.263  29.183  0.00  0.00    -0.073 C 
ATOM     96  H24 non d ame     -33.460   8.217  29.459  0.00  0.00     0.028 H 
ATOM     97  H25 non d ame     -32.662   9.803  29.354  0.00  0.00     0.028 H 
ATOM     98  H26 non d ame     -34.384   9.701  29.791  0.00  0.00     0.028 H 
ENDBRANCH  93  95
BRANCH  93  99
ATOM     99  C19 non d ame     -35.501   9.288  27.497  0.00  0.00    -0.073 C 
ATOM    100  H27 non d ame     -35.839   8.264  27.660  0.00  0.00     0.028 H 
ATOM    101  H28 non d ame     -35.982   9.947  28.219  0.00  0.00     0.028 H 
ATOM    102  H29 non d ame     -35.765   9.601  26.487  0.00  0.00     0.028 H 
ENDBRANCH  93  99
ENDBRANCH  90  93
ENDBRANCH   1  90
TORSDOF 26
ENDMDL
MODEL 3
REMARK VINA RESULT:      -7.0      1.677      2.152
REMARK  26 active torsions:
REMARK  status: ('A' for Active; 'I' for Inactive)
REMARK    1  A    between atoms: C2_2  and  C3_3 
REMARK    2  A    between atoms: C4_6  and  C5_7 
REMARK       I    between atoms: C5_7  and  N2_9 
REMARK    3  A    between atoms: N2_9  and  C6_10 
REMARK    4  A    between atoms: C6_10  and  C7_11 
REMARK    5  A    between atoms: C6_10  and  C8_13 
REMARK       I    between atoms: C7_11  and  N3_14 
REMARK    6  A    between atoms: N3_14  and  C9_15 
REMARK    7  A    between atoms: C9_15  and  C10_16 
REMARK    8  A    between atoms: C9_15  and  C11_18 
REMARK       I    between atoms: C10_16  and  N4_21 
REMARK    9  A    between atoms: C11_18  and  C12_19 
REMARK   10  A    between atoms: C11_18  and  C13_20 
REMARK   11  A    between atoms: N4_21  and  C14_22 
REMARK   12  A    between atoms: C14_22  and  C15_23 
REMARK   13  A    between atoms: C14_22  and  C16_25 
REMARK       I    between atoms: C15_23  and  N6_40 
REMARK   14  A    between atoms: C16_25  and  C17_26 
REMARK   15  A    between atoms: C17_26  and  C18_27 
REMARK   16  A    between atoms: C17_26  and  C19_28 
REMARK   17  A    between atoms: C20_29  and  C21_30 
REMARK   18  A    between atoms: C20_29  and  C24_33 
REMARK   19  A    between atoms: C20_29  and  N6_40 
REMARK   20  A    between atoms: C21_30  and  C22_31 
REMARK   21  A    between atoms: C22_31  and  C23_32 
REMARK   22  A    between atoms: C23_32  and  O8_43 
REMARK   23  A    between atoms: C24_33  and  C25_34 
REMARK   24  A    between atoms: C28_38  and  O6_39 
REMARK   25  A    between atoms: C29_42  and  O8_43 
REMARK   26  A    between atoms: C29_42  and  C35_49 
ROOT
ATOM      1  C14 non d ame     -30.870  14.193  24.098  0.00  0.00     0.089 C 
ATOM      2  H20 non d ame     -29.800  14.026  23.969  0.00  0.00     0.087 H 
ENDROOT
BRANCH   1   3
ATOM      3  N4  non d ame     -31.480  12.908  24.404  0.00  0.00    -0.346 N 
ATOM      4  C10 non d ame     -30.956  11.645  23.768  0.00  0.00     0.241 C 
ATOM      5  O4  non d ame     -30.045  11.688  23.009  0.00  0.00    -0.271 OA
ATOM      6  H19 non d ame     -32.257  12.893  25.050  0.00  0.00     0.163 HD
BRANCH   4   7
ATOM      7  C9  non d ame     -31.597  10.323  24.101  0.00  0.00     0.092 C 
ATOM      8  H11 non d ame     -31.015   9.828  24.879  0.00  0.00     0.088 H 
BRANCH   7   9
ATOM      9  N3  non d ame     -32.939  10.552  24.642  0.00  0.00    -0.346 N 
ATOM     10  C7  non d ame     -33.305   9.993  25.921  0.00  0.00     0.240 C 
ATOM     11  O3  non d ame     -32.532   9.355  26.526  0.00  0.00    -0.271 OA
ATOM     12  H10 non d ame     -33.617  11.099  24.132  0.00  0.00     0.163 HD
BRANCH  10  13
ATOM     13  C6  non d ame     -34.737  10.238  26.491  0.00  0.00     0.086 C 
ATOM     14  H6  non d ame     -34.740  10.392  27.570  0.00  0.00     0.086 H 
BRANCH  13  15
ATOM     15  N2  non d ame     -35.280  11.448  25.897  0.00  0.00    -0.343 N 
ATOM     16  C5  non d ame     -35.053  12.738  26.552  0.00  0.00     0.273 C 
ATOM     17  O2  non d ame     -34.434  12.791  27.557  0.00  0.00    -0.266 OA
ATOM     18  H5  non d ame     -35.811  11.392  25.039  0.00  0.00     0.163 HD
BRANCH  16  19
ATOM     19  C4  non d ame     -35.620  14.025  25.933  0.00  0.00     0.154 A 
ATOM     20  C1  non d ame     -36.760  14.768  26.377  0.00  0.00    -0.017 A 
ATOM     21  C2  non d ame     -36.857  15.855  25.479  0.00  0.00     0.077 A 
ATOM     22  H1  non d ame     -37.416  14.552  27.219  0.00  0.00     0.091 H 
ATOM     23  O1  non d ame     -35.881  15.741  24.626  0.00  0.00    -0.218 OA
ATOM     24  N1  non d ame     -35.147  14.681  24.870  0.00  0.00    -0.123 NA
BRANCH  21  25
ATOM     25  C3  non d ame     -37.909  16.956  25.507  0.00  0.00    -0.029 C 
ATOM     26  H2  non d ame     -38.776  16.646  24.922  0.00  0.00     0.036 H 
ATOM     27  H3  non d ame     -38.214  17.141  26.537  0.00  0.00     0.036 H 
ATOM     28  H4  non d ame     -37.492  17.868  25.082  0.00  0.00     0.036 H 
ENDBRANCH  21  25
ENDBRANCH  16  19
ENDBRANCH  13  15
BRANCH  13  29
ATOM     29  C8  non d ame     -35.620   9.060  26.163  0.00  0.00    -0.049 C 
ATOM     30  H7  non d ame     -35.242   8.560  25.272  0.00  0.00     0.030 H 
ATOM     31  H8  non d ame     -35.617   8.361  27.000  0.00  0.00     0.030 H 
ATOM     32  H9  non d ame     -36.637   9.407  25.983  0.00  0.00     0.030 H 
ENDBRANCH  13  29
ENDBRANCH  10  13
ENDBRANCH   7   9
BRANCH   7  33
ATOM     33  C11 non d ame     -31.701   9.458  22.811  0.00  0.00    -0.033 C 
ATOM     34  H12 non d ame     -31.476  10.105  21.962  0.00  0.00     0.042 H 
BRANCH  33  35
ATOM     35  C12 non d ame     -30.651   8.304  22.812  0.00  0.00    -0.071 C 
ATOM     36  H13 non d ame     -31.132   7.375  23.118  0.00  0.00     0.028 H 
ATOM     37  H14 non d ame     -30.239   8.187  21.810  0.00  0.00     0.028 H 
ATOM     38  H15 non d ame     -29.848   8.543  23.510  0.00  0.00     0.028 H 
ENDBRANCH  33  35
BRANCH  33  39
ATOM     39  C13 non d ame     -33.150   8.905  22.624  0.00  0.00    -0.071 C 
ATOM     40  H16 non d ame     -33.722   9.586  21.993  0.00  0.00     0.028 H 
ATOM     41  H17 non d ame     -33.107   7.922  22.152  0.00  0.00     0.028 H 
ATOM     42  H18 non d ame     -33.634   8.817  23.596  0.00  0.00     0.028 H 
ENDBRANCH  33  39
ENDBRANCH   7  33
ENDBRANCH   4   7
ENDBRANCH   1   3
BRANCH   1  43
ATOM     43  C15 non d ame     -31.174  15.176  25.264  0.00  0.00     0.240 C 
ATOM     44  O5  non d ame     -30.764  16.291  25.219  0.00  0.00    -0.271 OA
ATOM     45  N6  non d ame     -31.985  14.732  26.432  0.00  0.00    -0.355 N 
ATOM     46  H46 non d ame     -32.344  13.788  26.479  0.00  0.00     0.162 HD
BRANCH  45  47
ATOM     47  C20 non d ame     -32.268  15.679  27.533  0.00  0.00     0.013 C 
ATOM     48  H30 non d ame     -31.493  16.446  27.522  0.00  0.00     0.072 H 
BRANCH  47  49
ATOM     49  C21 non d ame     -32.243  14.937  28.850  0.00  0.00    -0.038 C 
ATOM     50  H31 non d ame     -32.258  15.707  29.623  0.00  0.00     0.036 H 
ATOM     51  H32 non d ame     -33.050  14.207  28.792  0.00  0.00     0.036 H 
BRANCH  49  52
ATOM     52  C22 non d ame     -30.942  14.134  29.061  0.00  0.00     0.018 C 
ATOM     53  H33 non d ame     -30.233  14.523  28.332  0.00  0.00     0.048 H 
ATOM     54  H34 non d ame     -30.721  14.205  30.127  0.00  0.00     0.048 H 
BRANCH  52  55
ATOM     55  C23 non d ame     -31.084  12.618  28.754  0.00  0.00     0.259 C 
ATOM     56  O7  non d ame     -31.063  12.224  27.633  0.00  0.00    -0.265 OA
BRANCH  55  57
ATOM     57  O8  non d ame     -31.257  11.702  29.829  0.00  0.00    -0.317 OA
BRANCH  57  58
ATOM     58  C29 non d ame     -32.212  12.126  30.806  0.00  0.00     0.052 C 
ATOM     59  H47 non d ame     -31.674  12.151  31.753  0.00  0.00     0.082 H 
ATOM     60  H48 non d ame     -32.658  13.036  30.407  0.00  0.00     0.082 H 
BRANCH  58  61
ATOM     61  C35 non d ame     -33.317  11.039  30.898  0.00  0.00    -0.034 A 
ATOM     62  C30 non d ame     -33.386  10.033  29.939  0.00  0.00    -0.075 A 
ATOM     63  C31 non d ame     -34.379   9.057  30.022  0.00  0.00    -0.082 A 
ATOM     64  H49 non d ame     -32.665  10.010  29.123  0.00  0.00     0.084 H 
ATOM     65  C32 non d ame     -35.305   9.091  31.067  0.00  0.00    -0.083 A 
ATOM     66  H50 non d ame     -34.430   8.270  29.269  0.00  0.00     0.083 H 
ATOM     67  C33 non d ame     -35.234  10.098  32.020  0.00  0.00    -0.082 A 
ATOM     68  H51 non d ame     -36.084   8.331  31.139  0.00  0.00     0.083 H 
ATOM     69  C34 non d ame     -34.243  11.074  31.943  0.00  0.00    -0.075 A 
ATOM     70  H52 non d ame     -35.959  10.123  32.834  0.00  0.00     0.083 H 
ATOM     71  H53 non d ame     -34.192  11.861  32.696  0.00  0.00     0.084 H 
ENDBRANCH  58  61
ENDBRANCH  57  58
ENDBRANCH  55  57
ENDBRANCH  52  55
ENDBRANCH  49  52
ENDBRANCH  47  49
BRANCH  47  72
ATOM     72  C24 non d ame     -33.643  16.312  27.330  0.00  0.00    -0.039 C 
ATOM     73  H35 non d ame     -33.997  15.934  26.370  0.00  0.00     0.036 H 
ATOM     74  H36 non d ame     -34.200  16.092  28.240  0.00  0.00     0.036 H 
BRANCH  72  75
ATOM     75  C25 non d ame     -33.550  17.906  27.205  0.00  0.00    -0.001 C 
ATOM     76  C26 non d ame     -34.831  18.602  27.964  0.00  0.00    -0.035 C 
ATOM     77  C27 non d ame     -35.419  19.477  27.114  0.00  0.00     0.085 C 
ATOM     78  H38 non d ame     -35.608  17.860  28.144  0.00  0.00     0.036 H 
ATOM     79  H39 non d ame     -34.483  19.236  28.780  0.00  0.00     0.036 H 
ATOM     80  N5  non d ame     -34.859  19.201  25.740  0.00  0.00    -0.049 N 
ATOM     81  H40 non d ame     -36.480  19.224  27.122  0.00  0.00     0.075 H 
ATOM     82  H41 non d ame     -35.092  20.465  27.439  0.00  0.00     0.075 H 
ATOM     83  C28 non d ame     -33.553  18.280  25.969  0.00  0.00     0.193 C 
ATOM     84  H42 non d ame     -35.555  18.657  25.250  0.00  0.00     0.280 HD
ATOM     85  H43 non d ame     -34.562  20.093  25.368  0.00  0.00     0.280 HD
ATOM     86  H44 non d ame     -32.554  18.705  25.887  0.00  0.00     0.129 H 
ATOM     87  H37 non d ame     -32.559  18.283  27.458  0.00  0.00     0.046 H 
BRANCH  83  88
ATOM     88  O6  non d ame     -33.570  17.169  25.070  0.00  0.00    -0.369 OA
ATOM     89  H45 non d ame     -34.226  17.321  24.386  0.00  0.00     0.212 HD
ENDBRANCH  83  88
ENDBRANCH  72  75
ENDBRANCH  47  72
ENDBRANCH  45  47
ENDBRANCH   1  43
BRANCH   1  90
ATOM     90  C16 non d ame     -31.467  14.730  22.807  0.00  0.00    -0.035 C 
ATOM     91  H21 non d ame     -32.172  13.969  22.476  0.00  0.00     0.037 H 
ATOM     92  H22 non d ame     -31.820  15.733  23.048  0.00  0.00     0.037 H 
BRANCH  90  93
ATOM     93  C17 non d ame     -30.425  14.894  21.655  0.00  0.00    -0.059 C 
ATOM     94  H23 non d ame     -30.484  14.007  21.026  0.00  0.00     0.038 H 
BRANCH  93  95
ATOM     95  C18 non d ame     -30.729  16.136  20.758  0.00  0.00    -0.073 C 
ATOM     96  H24 non d ame     -31.747  16.478  20.943  0.00  0.00     0.028 H 
ATOM     97  H25 non d ame     -30.029  16.938  20.997  0.00  0.00     0.028 H 
ATOM     98  H26 non d ame     -30.622  15.862  19.709  0.00  0.00     0.028 H 
ENDBRANCH  93  95
BRANCH  93  99
ATOM     99  C19 non d ame     -29.000  14.962  22.213  0.00  0.00    -0.073 C 
ATOM    100  H27 non d ame     -28.929  14.339  23.105  0.00  0.00     0.028 H 
ATOM    101  H28 non d ame     -28.298  14.600  21.462  0.00  0.00     0.028 H 
ATOM    102  H29 non d ame     -28.758  15.993  22.468  0.00  0.00     0.028 H 
ENDBRANCH  93  99
ENDBRANCH  90  93
ENDBRANCH   1  90
TORSDOF 26
ENDMDL
MODEL 4
REMARK VINA RESULT:      -6.9      2.287      4.876
REMARK  26 active torsions:
REMARK  status: ('A' for Active; 'I' for Inactive)
REMARK    1  A    between atoms: C2_2  and  C3_3 
REMARK    2  A    between atoms: C4_6  and  C5_7 
REMARK       I    between atoms: C5_7  and  N2_9 
REMARK    3  A    between atoms: N2_9  and  C6_10 
REMARK    4  A    between atoms: C6_10  and  C7_11 
REMARK    5  A    between atoms: C6_10  and  C8_13 
REMARK       I    between atoms: C7_11  and  N3_14 
REMARK    6  A    between atoms: N3_14  and  C9_15 
REMARK    7  A    between atoms: C9_15  and  C10_16 
REMARK    8  A    between atoms: C9_15  and  C11_18 
REMARK       I    between atoms: C10_16  and  N4_21 
REMARK    9  A    between atoms: C11_18  and  C12_19 
REMARK   10  A    between atoms: C11_18  and  C13_20 
REMARK   11  A    between atoms: N4_21  and  C14_22 
REMARK   12  A    between atoms: C14_22  and  C15_23 
REMARK   13  A    between atoms: C14_22  and  C16_25 
REMARK       I    between atoms: C15_23  and  N6_40 
REMARK   14  A    between atoms: C16_25  and  C17_26 
REMARK   15  A    between atoms: C17_26  and  C18_27 
REMARK   16  A    between atoms: C17_26  and  C19_28 
REMARK   17  A    between atoms: C20_29  and  C21_30 
REMARK   18  A    between atoms: C20_29  and  C24_33 
REMARK   19  A    between atoms: C20_29  and  N6_40 
REMARK   20  A    between atoms: C21_30  and  C22_31 
REMARK   21  A    between atoms: C22_31  and  C23_32 
REMARK   22  A    between atoms: C23_32  and  O8_43 
REMARK   23  A    between atoms: C24_33  and  C25_34 
REMARK   24  A    between atoms: C28_38  and  O6_39 
REMARK   25  A    between atoms: C29_42  and  O8_43 
REMARK   26  A    between atoms: C29_42  and  C35_49 
ROOT
ATOM      1  C14 non d ame     -30.770  14.415  23.641  0.00  0.00     0.089 C 
ATOM      2  H20 non d ame     -29.685  14.446  23.532  0.00  0.00     0.087 H 
ENDROOT
BRANCH   1   3
ATOM      3  N4  non d ame     -31.139  13.041  23.948  0.00  0.00    -0.346 N 
ATOM      4  C10 non d ame     -30.498  11.895  23.207  0.00  0.00     0.241 C 
ATOM      5  O4  non d ame     -29.690  12.103  22.364  0.00  0.00    -0.271 OA
ATOM      6  H19 non d ame     -31.831  12.886  24.668  0.00  0.00     0.163 HD
BRANCH   4   7
ATOM      7  C9  non d ame     -30.889  10.480  23.543  0.00  0.00     0.092 C 
ATOM      8  H11 non d ame     -30.396  10.182  24.469  0.00  0.00     0.088 H 
BRANCH   7   9
ATOM      9  N3  non d ame     -32.333  10.414  23.780  0.00  0.00    -0.346 N 
ATOM     10  C7  non d ame     -32.836   9.894  25.028  0.00  0.00     0.240 C 
ATOM     11  O3  non d ame     -32.092   9.523  25.852  0.00  0.00    -0.271 OA
ATOM     12  H10 non d ame     -32.988  10.729  23.079  0.00  0.00     0.163 HD
BRANCH  10  13
ATOM     13  C6  non d ame     -34.375   9.824  25.274  0.00  0.00     0.086 C 
ATOM     14  H6  non d ame     -34.913   9.355  24.450  0.00  0.00     0.086 H 
BRANCH  13  15
ATOM     15  N2  non d ame     -34.628   9.011  26.452  0.00  0.00    -0.343 N 
ATOM     16  C5  non d ame     -34.925   7.585  26.294  0.00  0.00     0.273 C 
ATOM     17  O2  non d ame     -34.961   7.103  25.215  0.00  0.00    -0.266 OA
ATOM     18  H5  non d ame     -34.598   9.431  27.370  0.00  0.00     0.163 HD
BRANCH  16  19
ATOM     19  C4  non d ame     -35.192   6.713  27.530  0.00  0.00     0.154 A 
ATOM     20  C1  non d ame     -34.860   7.014  28.889  0.00  0.00    -0.017 A 
ATOM     21  C2  non d ame     -35.313   5.900  29.630  0.00  0.00     0.077 A 
ATOM     22  H1  non d ame     -34.364   7.903  29.278  0.00  0.00     0.091 H 
ATOM     23  O1  non d ame     -35.846   5.064  28.786  0.00  0.00    -0.218 OA
ATOM     24  N1  non d ame     -35.785   5.517  27.555  0.00  0.00    -0.123 NA
BRANCH  21  25
ATOM     25  C3  non d ame     -35.202   5.714  31.137  0.00  0.00    -0.029 C 
ATOM     26  H2  non d ame     -36.200   5.637  31.569  0.00  0.00     0.036 H 
ATOM     27  H3  non d ame     -34.645   4.802  31.351  0.00  0.00     0.036 H 
ATOM     28  H4  non d ame     -34.684   6.567  31.572  0.00  0.00     0.036 H 
ENDBRANCH  21  25
ENDBRANCH  16  19
ENDBRANCH  13  15
BRANCH  13  29
ATOM     29  C8  non d ame     -34.918  11.216  25.482  0.00  0.00    -0.049 C 
ATOM     30  H7  non d ame     -34.984  11.425  26.549  0.00  0.00     0.030 H 
ATOM     31  H8  non d ame     -34.252  11.939  25.010  0.00  0.00     0.030 H 
ATOM     32  H9  non d ame     -35.910  11.289  25.035  0.00  0.00     0.030 H 
ENDBRANCH  13  29
ENDBRANCH  10  13
ENDBRANCH   7   9
BRANCH   7  33
ATOM     33  C11 non d ame     -30.517   9.544  22.356  0.00  0.00    -0.033 C 
ATOM     34  H12 non d ame     -30.369  10.172  21.477  0.00  0.00     0.042 H 
BRANCH  33  35
ATOM     35  C12 non d ame     -29.179   8.787  22.625  0.00  0.00    -0.071 C 
ATOM     36  H13 non d ame     -28.360   9.505  22.678  0.00  0.00     0.028 H 
ATOM     37  H14 non d ame     -29.250   8.248  23.569  0.00  0.00     0.028 H 
ATOM     38  H15 non d ame     -28.991   8.082  21.815  0.00  0.00     0.028 H 
ENDBRANCH  33  35
BRANCH  33  39
ATOM     39  C13 non d ame     -31.679   8.546  22.046  0.00  0.00    -0.071 C 
ATOM     40  H16 non d ame     -32.315   8.961  21.263  0.00  0.00     0.028 H 
ATOM     41  H17 non d ame     -31.263   7.595  21.711  0.00  0.00     0.028 H 
ATOM     42  H18 non d ame     -32.270   8.384  22.947  0.00  0.00     0.028 H 
ENDBRANCH  33  39
ENDBRANCH   7  33
ENDBRANCH   4   7
ENDBRANCH   1   3
BRANCH   1  43
ATOM     43  C15 non d ame     -31.272  15.333  24.790  0.00  0.00     0.240 C 
ATOM     44  O5  non d ame     -30.660  16.311  25.076  0.00  0.00    -0.271 OA
ATOM     45  N6  non d ame     -32.523  14.999  25.529  0.00  0.00    -0.355 N 
ATOM     46  H46 non d ame     -33.054  14.173  25.292  0.00  0.00     0.162 HD
BRANCH  45  47
ATOM     47  C20 non d ame     -32.989  15.883  26.620  0.00  0.00     0.013 C 
ATOM     48  H30 non d ame     -32.146  16.496  26.938  0.00  0.00     0.072 H 
BRANCH  47  49
ATOM     49  C21 non d ame     -33.479  15.038  27.774  0.00  0.00    -0.038 C 
ATOM     50  H31 non d ame     -34.545  15.251  27.864  0.00  0.00     0.036 H 
ATOM     51  H32 non d ame     -33.142  14.024  27.560  0.00  0.00     0.036 H 
BRANCH  49  52
ATOM     52  C22 non d ame     -32.839  15.436  29.122  0.00  0.00     0.018 C 
ATOM     53  H33 non d ame     -32.738  16.519  29.092  0.00  0.00     0.048 H 
ATOM     54  H34 non d ame     -33.457  14.967  29.890  0.00  0.00     0.048 H 
BRANCH  52  55
ATOM     55  C23 non d ame     -31.405  14.875  29.324  0.00  0.00     0.259 C 
ATOM     56  O7  non d ame     -30.696  15.321  30.168  0.00  0.00    -0.265 OA
BRANCH  55  57
ATOM     57  O8  non d ame     -30.939  13.830  28.479  0.00  0.00    -0.317 OA
BRANCH  57  58
ATOM     58  C29 non d ame     -30.573  12.636  29.178  0.00  0.00     0.052 C 
ATOM     59  H47 non d ame     -30.062  12.011  28.446  0.00  0.00     0.082 H 
ATOM     60  H48 non d ame     -30.049  12.968  30.074  0.00  0.00     0.082 H 
BRANCH  58  61
ATOM     61  C35 non d ame     -31.879  11.916  29.611  0.00  0.00    -0.034 A 
ATOM     62  C30 non d ame     -32.711  11.347  28.652  0.00  0.00    -0.075 A 
ATOM     63  C31 non d ame     -33.884  10.701  29.041  0.00  0.00    -0.082 A 
ATOM     64  H49 non d ame     -32.447  11.409  27.597  0.00  0.00     0.084 H 
ATOM     65  C32 non d ame     -34.224  10.626  30.394  0.00  0.00    -0.083 A 
ATOM     66  H50 non d ame     -34.534  10.255  28.287  0.00  0.00     0.083 H 
ATOM     67  C33 non d ame     -33.391  11.197  31.347  0.00  0.00    -0.082 A 
ATOM     68  H51 non d ame     -35.138  10.121  30.707  0.00  0.00     0.083 H 
ATOM     69  C34 non d ame     -32.217  11.842  30.963  0.00  0.00    -0.075 A 
ATOM     70  H52 non d ame     -33.660  11.139  32.402  0.00  0.00     0.083 H 
ATOM     71  H53 non d ame     -31.568  12.287  31.718  0.00  0.00     0.084 H 
ENDBRANCH  58  61
ENDBRANCH  57  58
ENDBRANCH  55  57
ENDBRANCH  52  55
ENDBRANCH  49  52
ENDBRANCH  47  49
BRANCH  47  72
ATOM     72  C24 non d ame     -34.128  16.768  26.116  0.00  0.00    -0.039 C 
ATOM     73  H35 non d ame     -34.350  16.409  25.111  0.00  0.00     0.036 H 
ATOM     74  H36 non d ame     -34.892  16.726  26.892  0.00  0.00     0.036 H 
BRANCH  72  75
ATOM     75  C25 non d ame     -33.674  18.299  25.983  0.00  0.00    -0.001 C 
ATOM     76  C26 non d ame     -32.464  18.618  27.048  0.00  0.00    -0.035 C 
ATOM     77  C27 non d ame     -32.791  19.722  27.762  0.00  0.00     0.085 C 
ATOM     78  H38 non d ame     -32.412  17.833  27.802  0.00  0.00     0.036 H 
ATOM     79  H39 non d ame     -31.564  18.920  26.512  0.00  0.00     0.036 H 
ATOM     80  N5  non d ame     -34.254  19.992  27.511  0.00  0.00    -0.049 N 
ATOM     81  H40 non d ame     -32.655  19.444  28.808  0.00  0.00     0.075 H 
ATOM     82  H41 non d ame     -32.202  20.532  27.333  0.00  0.00     0.075 H 
ATOM     83  C28 non d ame     -34.657  19.101  26.227  0.00  0.00     0.193 C 
ATOM     84  H42 non d ame     -34.753  19.641  28.316  0.00  0.00     0.280 HD
ATOM     85  H43 non d ame     -34.326  20.968  27.260  0.00  0.00     0.280 HD
ATOM     86  H44 non d ame     -34.783  19.563  25.249  0.00  0.00     0.129 H 
ATOM     87  H37 non d ame     -33.513  18.593  24.946  0.00  0.00     0.046 H 
BRANCH  83  88
ATOM     88  O6  non d ame     -35.876  18.399  26.477  0.00  0.00    -0.369 OA
ATOM     89  H45 non d ame     -36.578  18.774  25.940  0.00  0.00     0.212 HD
ENDBRANCH  83  88
ENDBRANCH  72  75
ENDBRANCH  47  72
ENDBRANCH  45  47
ENDBRANCH   1  43
BRANCH   1  90
ATOM     90  C16 non d ame     -31.429  14.824  22.333  0.00  0.00    -0.035 C 
ATOM     91  H21 non d ame     -31.608  13.894  21.796  0.00  0.00     0.037 H 
ATOM     92  H22 non d ame     -32.268  15.458  22.619  0.00  0.00     0.037 H 
BRANCH  90  93
ATOM     93  C17 non d ame     -30.512  15.693  21.414  0.00  0.00    -0.059 C 
ATOM     94  H23 non d ame     -30.820  16.732  21.527  0.00  0.00     0.038 H 
BRANCH  93  95
ATOM     95  C18 non d ame     -29.007  15.594  21.820  0.00  0.00    -0.073 C 
ATOM     96  H24 non d ame     -28.385  15.647  20.926  0.00  0.00     0.028 H 
ATOM     97  H25 non d ame     -28.755  16.419  22.486  0.00  0.00     0.028 H 
ATOM     98  H26 non d ame     -28.830  14.648  22.330  0.00  0.00     0.028 H 
ENDBRANCH  93  95
BRANCH  93  99
ATOM     99  C19 non d ame     -30.705  15.320  19.942  0.00  0.00    -0.073 C 
ATOM    100  H27 non d ame     -31.525  14.607  19.851  0.00  0.00     0.028 H 
ATOM    101  H28 non d ame     -30.939  16.216  19.367  0.00  0.00     0.028 H 
ATOM    102  H29 non d ame     -29.789  14.872  19.557  0.00  0.00     0.028 H 
ENDBRANCH  93  99
ENDBRANCH  90  93
ENDBRANCH   1  90
TORSDOF 26
ENDMDL
MODEL 5
REMARK VINA RESULT:      -6.8      2.592      5.753
REMARK  26 active torsions:
REMARK  status: ('A' for Active; 'I' for Inactive)
REMARK    1  A    between atoms: C2_2  and  C3_3 
REMARK    2  A    between atoms: C4_6  and  C5_7 
REMARK       I    between atoms: C5_7  and  N2_9 
REMARK    3  A    between atoms: N2_9  and  C6_10 
REMARK    4  A    between atoms: C6_10  and  C7_11 
REMARK    5  A    between atoms: C6_10  and  C8_13 
REMARK       I    between atoms: C7_11  and  N3_14 
REMARK    6  A    between atoms: N3_14  and  C9_15 
REMARK    7  A    between atoms: C9_15  and  C10_16 
REMARK    8  A    between atoms: C9_15  and  C11_18 
REMARK       I    between atoms: C10_16  and  N4_21 
REMARK    9  A    between atoms: C11_18  and  C12_19 
REMARK   10  A    between atoms: C11_18  and  C13_20 
REMARK   11  A    between atoms: N4_21  and  C14_22 
REMARK   12  A    between atoms: C14_22  and  C15_23 
REMARK   13  A    between atoms: C14_22  and  C16_25 
REMARK       I    between atoms: C15_23  and  N6_40 
REMARK   14  A    between atoms: C16_25  and  C17_26 
REMARK   15  A    between atoms: C17_26  and  C18_27 
REMARK   16  A    between atoms: C17_26  and  C19_28 
REMARK   17  A    between atoms: C20_29  and  C21_30 
REMARK   18  A    between atoms: C20_29  and  C24_33 
REMARK   19  A    between atoms: C20_29  and  N6_40 
REMARK   20  A    between atoms: C21_30  and  C22_31 
REMARK   21  A    between atoms: C22_31  and  C23_32 
REMARK   22  A    between atoms: C23_32  and  O8_43 
REMARK   23  A    between atoms: C24_33  and  C25_34 
REMARK   24  A    between atoms: C28_38  and  O6_39 
REMARK   25  A    between atoms: C29_42  and  O8_43 
REMARK   26  A    between atoms: C29_42  and  C35_49 
ROOT
ATOM      1  C14 non d ame     -33.120  10.225  26.183  0.00  0.00     0.089 C 
ATOM      2  H20 non d ame     -33.850  10.560  25.446  0.00  0.00     0.087 H 
ENDROOT
BRANCH   1   3
ATOM      3  N4  non d ame     -32.360   9.138  25.584  0.00  0.00    -0.346 N 
ATOM      4  C10 non d ame     -33.039   8.147  24.672  0.00  0.00     0.241 C 
ATOM      5  O4  non d ame     -34.199   8.242  24.439  0.00  0.00    -0.271 OA
ATOM      6  H19 non d ame     -31.375   9.073  25.797  0.00  0.00     0.163 HD
BRANCH   4   7
ATOM      7  C9  non d ame     -32.236   7.032  24.055  0.00  0.00     0.092 C 
ATOM      8  H11 non d ame     -32.740   6.682  23.154  0.00  0.00     0.088 H 
BRANCH   7   9
ATOM      9  N3  non d ame     -30.924   7.541  23.649  0.00  0.00    -0.346 N 
ATOM     10  C7  non d ame     -30.708   7.975  22.291  0.00  0.00     0.240 C 
ATOM     11  O3  non d ame     -31.580   7.921  21.512  0.00  0.00    -0.271 OA
ATOM     12  H10 non d ame     -30.162   7.592  24.309  0.00  0.00     0.163 HD
BRANCH  10  13
ATOM     13  C6  non d ame     -29.308   8.514  21.863  0.00  0.00     0.086 C 
ATOM     14  H6  non d ame     -28.964   8.091  20.919  0.00  0.00     0.086 H 
BRANCH  13  15
ATOM     15  N2  non d ame     -29.395   9.951  21.668  0.00  0.00    -0.343 N 
ATOM     16  C5  non d ame     -29.882  10.799  22.759  0.00  0.00     0.273 C 
ATOM     17  O2  non d ame     -30.202  10.315  23.788  0.00  0.00    -0.266 OA
ATOM     18  H5  non d ame     -29.123  10.356  20.784  0.00  0.00     0.163 HD
BRANCH  16  19
ATOM     19  C4  non d ame     -29.978  12.320  22.567  0.00  0.00     0.154 A 
ATOM     20  C1  non d ame     -30.695  13.252  23.383  0.00  0.00    -0.017 A 
ATOM     21  C2  non d ame     -30.466  14.511  22.785  0.00  0.00     0.077 A 
ATOM     22  H1  non d ame     -31.292  13.046  24.271  0.00  0.00     0.091 H 
ATOM     23  O1  non d ame     -29.702  14.315  21.750  0.00  0.00    -0.218 OA
ATOM     24  N1  non d ame     -29.405  13.045  21.602  0.00  0.00    -0.123 NA
BRANCH  21  25
ATOM     25  C3  non d ame     -31.010  15.850  23.266  0.00  0.00    -0.029 C 
ATOM     26  H2  non d ame     -31.004  15.874  24.356  0.00  0.00     0.036 H 
ATOM     27  H3  non d ame     -30.383  16.655  22.883  0.00  0.00     0.036 H 
ATOM     28  H4  non d ame     -32.029  15.979  22.905  0.00  0.00     0.036 H 
ENDBRANCH  21  25
ENDBRANCH  16  19
ENDBRANCH  13  15
BRANCH  13  29
ATOM     29  C8  non d ame     -28.296   8.199  22.936  0.00  0.00    -0.049 C 
ATOM     30  H7  non d ame     -28.636   7.342  23.516  0.00  0.00     0.030 H 
ATOM     31  H8  non d ame     -27.337   7.966  22.473  0.00  0.00     0.030 H 
ATOM     32  H9  non d ame     -28.182   9.061  23.593  0.00  0.00     0.030 H 
ENDBRANCH  13  29
ENDBRANCH  10  13
ENDBRANCH   7   9
BRANCH   7  33
ATOM     33  C11 non d ame     -32.048   5.891  25.098  0.00  0.00    -0.033 C 
ATOM     34  H12 non d ame     -31.068   5.446  24.924  0.00  0.00     0.042 H 
BRANCH  33  35
ATOM     35  C12 non d ame     -32.060   6.445  26.557  0.00  0.00    -0.071 C 
ATOM     36  H13 non d ame     -32.898   7.132  26.678  0.00  0.00     0.028 H 
ATOM     37  H14 non d ame     -32.164   5.618  27.258  0.00  0.00     0.028 H 
ATOM     38  H15 non d ame     -31.127   6.974  26.753  0.00  0.00     0.028 H 
ENDBRANCH  33  35
BRANCH  33  39
ATOM     39  C13 non d ame     -33.125   4.775  24.907  0.00  0.00    -0.071 C 
ATOM     40  H16 non d ame     -33.745   5.012  24.042  0.00  0.00     0.028 H 
ATOM     41  H17 non d ame     -32.631   3.816  24.748  0.00  0.00     0.028 H 
ATOM     42  H18 non d ame     -33.749   4.716  25.798  0.00  0.00     0.028 H 
ENDBRANCH  33  39
ENDBRANCH   7  33
ENDBRANCH   4   7
ENDBRANCH   1   3
BRANCH   1  43
ATOM     43  C15 non d ame     -32.131  11.356  26.588  0.00  0.00     0.240 C 
ATOM     44  O5  non d ame     -30.960  11.169  26.519  0.00  0.00    -0.271 OA
ATOM     45  N6  non d ame     -32.645  12.675  27.052  0.00  0.00    -0.355 N 
ATOM     46  H46 non d ame     -33.639  12.847  27.110  0.00  0.00     0.162 HD
BRANCH  45  47
ATOM     47  C20 non d ame     -31.692  13.742  27.432  0.00  0.00     0.013 C 
ATOM     48  H30 non d ame     -30.704  13.450  27.076  0.00  0.00     0.072 H 
BRANCH  47  49
ATOM     49  C21 non d ame     -31.678  13.887  28.937  0.00  0.00    -0.038 C 
ATOM     50  H31 non d ame     -30.670  13.610  29.250  0.00  0.00     0.036 H 
ATOM     51  H32 non d ame     -32.057  14.888  29.139  0.00  0.00     0.036 H 
BRANCH  49  52
ATOM     52  C22 non d ame     -32.638  12.905  29.643  0.00  0.00     0.018 C 
ATOM     53  H33 non d ame     -33.245  13.515  30.311  0.00  0.00     0.048 H 
ATOM     54  H34 non d ame     -33.114  12.333  28.845  0.00  0.00     0.048 H 
BRANCH  52  55
ATOM     55  C23 non d ame     -31.919  11.865  30.545  0.00  0.00     0.259 C 
ATOM     56  O7  non d ame     -30.753  11.953  30.755  0.00  0.00    -0.265 OA
BRANCH  55  57
ATOM     57  O8  non d ame     -32.668  10.795  31.109  0.00  0.00    -0.317 OA
BRANCH  57  58
ATOM     58  C29 non d ame     -33.950  11.184  31.611  0.00  0.00     0.052 C 
ATOM     59  H47 non d ame     -33.800  11.397  32.669  0.00  0.00     0.082 H 
ATOM     60  H48 non d ame     -34.305  11.967  30.941  0.00  0.00     0.082 H 
BRANCH  58  61
ATOM     61  C35 non d ame     -34.903   9.964  31.486  0.00  0.00    -0.034 A 
ATOM     62  C30 non d ame     -34.405   8.729  31.085  0.00  0.00    -0.075 A 
ATOM     63  C31 non d ame     -35.261   7.634  30.973  0.00  0.00    -0.082 A 
ATOM     64  H49 non d ame     -33.345   8.619  30.857  0.00  0.00     0.084 H 
ATOM     65  C32 non d ame     -36.620   7.778  31.262  0.00  0.00    -0.083 A 
ATOM     66  H50 non d ame     -34.866   6.667  30.659  0.00  0.00     0.083 H 
ATOM     67  C33 non d ame     -37.113   9.014  31.659  0.00  0.00    -0.082 A 
ATOM     68  H51 non d ame     -37.295   6.927  31.178  0.00  0.00     0.083 H 
ATOM     69  C34 non d ame     -36.261  10.110  31.774  0.00  0.00    -0.075 A 
ATOM     70  H52 non d ame     -38.175   9.124  31.882  0.00  0.00     0.083 H 
ATOM     71  H53 non d ame     -36.657  11.077  32.088  0.00  0.00     0.084 H 
ENDBRANCH  58  61
ENDBRANCH  57  58
ENDBRANCH  55  57
ENDBRANCH  52  55
ENDBRANCH  49  52
ENDBRANCH  47  49
BRANCH  47  72
ATOM     72  C24 non d ame     -32.116  15.064  26.795  0.00  0.00    -0.039 C 
ATOM     73  H35 non d ame     -31.188  15.547  26.487  0.00  0.00     0.036 H 
ATOM     74  H36 non d ame     -32.866  14.799  26.050  0.00  0.00     0.036 H 
BRANCH  72  75
ATOM     75  C25 non d ame     -32.824  16.032  27.856  0.00  0.00    -0.001 C 
ATOM     76  C26 non d ame     -34.429  15.686  27.946  0.00  0.00    -0.035 C 
ATOM     77  C27 non d ame     -35.132  16.833  27.791  0.00  0.00     0.085 C 
ATOM     78  H38 non d ame     -34.730  15.085  27.089  0.00  0.00     0.036 H 
ATOM     79  H39 non d ame     -34.686  15.364  28.955  0.00  0.00     0.036 H 
ATOM     80  N5  non d ame     -34.169  17.876  27.278  0.00  0.00    -0.049 N 
ATOM     81  H40 non d ame     -35.871  16.620  27.018  0.00  0.00     0.075 H 
ATOM     82  H41 non d ame     -35.457  17.113  28.793  0.00  0.00     0.075 H 
ATOM     83  C28 non d ame     -32.691  17.272  27.519  0.00  0.00     0.193 C 
ATOM     84  H42 non d ame     -34.328  17.949  26.284  0.00  0.00     0.280 HD
ATOM     85  H43 non d ame     -34.285  18.688  27.869  0.00  0.00     0.280 HD
ATOM     86  H44 non d ame     -32.071  17.635  28.338  0.00  0.00     0.129 H 
ATOM     87  H37 non d ame     -32.275  16.088  28.796  0.00  0.00     0.046 H 
BRANCH  83  88
ATOM     88  O6  non d ame     -31.897  17.428  26.341  0.00  0.00    -0.369 OA
ATOM     89  H45 non d ame     -32.061  16.695  25.745  0.00  0.00     0.212 HD
ENDBRANCH  83  88
ENDBRANCH  72  75
ENDBRANCH  47  72
ENDBRANCH  45  47
ENDBRANCH   1  43
BRANCH   1  90
ATOM     90  C16 non d ame     -33.837   9.706  27.419  0.00  0.00    -0.035 C 
ATOM     91  H21 non d ame     -33.517   8.670  27.525  0.00  0.00     0.037 H 
ATOM     92  H22 non d ame     -33.615  10.427  28.206  0.00  0.00     0.037 H 
BRANCH  90  93
ATOM     93  C17 non d ame     -35.392   9.674  27.275  0.00  0.00    -0.059 C 
ATOM     94  H23 non d ame     -35.634   9.936  26.245  0.00  0.00     0.038 H 
BRANCH  93  95
ATOM     95  C18 non d ame     -35.981   8.256  27.559  0.00  0.00    -0.073 C 
ATOM     96  H24 non d ame     -36.668   8.310  28.404  0.00  0.00     0.028 H 
ATOM     97  H25 non d ame     -36.517   7.902  26.679  0.00  0.00     0.028 H 
ATOM     98  H26 non d ame     -35.171   7.566  27.793  0.00  0.00     0.028 H 
ENDBRANCH  93  95
BRANCH  93  99
ATOM     99  C19 non d ame     -36.045  10.726  28.176  0.00  0.00    -0.073 C 
ATOM    100  H27 non d ame     -37.106  10.497  28.292  0.00  0.00     0.028 H 
ATOM    101  H28 non d ame     -35.564  10.716  29.154  0.00  0.00     0.028 H 
ATOM    102  H29 non d ame     -35.932  11.711  27.726  0.00  0.00     0.028 H 
ENDBRANCH  93  99
ENDBRANCH  90  93
ENDBRANCH   1  90
TORSDOF 26
ENDMDL
MODEL 6
REMARK VINA RESULT:      -6.7      2.119      5.902
REMARK  26 active torsions:
REMARK  status: ('A' for Active; 'I' for Inactive)
REMARK    1  A    between atoms: C2_2  and  C3_3 
REMARK    2  A    between atoms: C4_6  and  C5_7 
REMARK       I    between atoms: C5_7  and  N2_9 
REMARK    3  A    between atoms: N2_9  and  C6_10 
REMARK    4  A    between atoms: C6_10  and  C7_11 
REMARK    5  A    between atoms: C6_10  and  C8_13 
REMARK       I    between atoms: C7_11  and  N3_14 
REMARK    6  A    between atoms: N3_14  and  C9_15 
REMARK    7  A    between atoms: C9_15  and  C10_16 
REMARK    8  A    between atoms: C9_15  and  C11_18 
REMARK       I    between atoms: C10_16  and  N4_21 
REMARK    9  A    between atoms: C11_18  and  C12_19 
REMARK   10  A    between atoms: C11_18  and  C13_20 
REMARK   11  A    between atoms: N4_21  and  C14_22 
REMARK   12  A    between atoms: C14_22  and  C15_23 
REMARK   13  A    between atoms: C14_22  and  C16_25 
REMARK       I    between atoms: C15_23  and  N6_40 
REMARK   14  A    between atoms: C16_25  and  C17_26 
REMARK   15  A    between atoms: C17_26  and  C18_27 
REMARK   16  A    between atoms: C17_26  and  C19_28 
REMARK   17  A    between atoms: C20_29  and  C21_30 
REMARK   18  A    between atoms: C20_29  and  C24_33 
REMARK   19  A    between atoms: C20_29  and  N6_40 
REMARK   20  A    between atoms: C21_30  and  C22_31 
REMARK   21  A    between atoms: C22_31  and  C23_32 
REMARK   22  A    between atoms: C23_32  and  O8_43 
REMARK   23  A    between atoms: C24_33  and  C25_34 
REMARK   24  A    between atoms: C28_38  and  O6_39 
REMARK   25  A    between atoms: C29_42  and  O8_43 
REMARK   26  A    between atoms: C29_42  and  C35_49 
ROOT
ATOM      1  C14 non d ame     -31.114  13.902  24.653  0.00  0.00     0.089 C 
ATOM      2  H20 non d ame     -30.090  13.869  25.026  0.00  0.00     0.087 H 
ENDROOT
BRANCH   1   3
ATOM      3  N4  non d ame     -31.460  12.561  24.206  0.00  0.00    -0.346 N 
ATOM      4  C10 non d ame     -31.276  11.380  25.125  0.00  0.00     0.241 C 
ATOM      5  O4  non d ame     -30.844  11.533  26.220  0.00  0.00    -0.271 OA
ATOM      6  H19 non d ame     -31.824  12.452  23.270  0.00  0.00     0.163 HD
BRANCH   4   7
ATOM      7  C9  non d ame     -31.645  10.000  24.648  0.00  0.00     0.092 C 
ATOM      8  H11 non d ame     -31.034   9.264  25.171  0.00  0.00     0.088 H 
BRANCH   7   9
ATOM      9  N3  non d ame     -33.043   9.723  24.986  0.00  0.00    -0.346 N 
ATOM     10  C7  non d ame     -33.363   9.007  26.197  0.00  0.00     0.240 C 
ATOM     11  O3  non d ame     -32.508   8.646  26.909  0.00  0.00    -0.271 OA
ATOM     12  H10 non d ame     -33.792  10.026  24.381  0.00  0.00     0.163 HD
BRANCH  10  13
ATOM     13  C6  non d ame     -34.854   8.712  26.551  0.00  0.00     0.086 C 
ATOM     14  H6  non d ame     -34.999   8.479  27.605  0.00  0.00     0.086 H 
BRANCH  13  15
ATOM     15  N2  non d ame     -35.647   9.899  26.275  0.00  0.00    -0.343 N 
ATOM     16  C5  non d ame     -36.192  10.678  27.390  0.00  0.00     0.273 C 
ATOM     17  O2  non d ame     -35.988  10.340  28.504  0.00  0.00    -0.266 OA
ATOM     18  H5  non d ame     -35.820  10.178  25.320  0.00  0.00     0.163 HD
BRANCH  16  19
ATOM     19  C4  non d ame     -37.030  11.935  27.114  0.00  0.00     0.154 A 
ATOM     20  C1  non d ame     -36.631  13.097  26.381  0.00  0.00    -0.017 A 
ATOM     21  C2  non d ame     -37.754  13.953  26.416  0.00  0.00     0.077 A 
ATOM     22  H1  non d ame     -35.673  13.291  25.898  0.00  0.00     0.091 H 
ATOM     23  O1  non d ame     -38.685  13.343  27.091  0.00  0.00    -0.218 OA
ATOM     24  N1  non d ame     -38.286  12.164  27.508  0.00  0.00    -0.123 NA
BRANCH  21  25
ATOM     25  C3  non d ame     -37.856  15.334  25.781  0.00  0.00    -0.029 C 
ATOM     26  H2  non d ame     -37.355  15.326  24.812  0.00  0.00     0.036 H 
ATOM     27  H3  non d ame     -38.906  15.594  25.644  0.00  0.00     0.036 H 
ATOM     28  H4  non d ame     -37.381  16.068  26.429  0.00  0.00     0.036 H 
ENDBRANCH  21  25
ENDBRANCH  16  19
ENDBRANCH  13  15
BRANCH  13  29
ATOM     29  C8  non d ame     -35.351   7.555  25.721  0.00  0.00    -0.049 C 
ATOM     30  H7  non d ame     -34.518   6.896  25.481  0.00  0.00     0.030 H 
ATOM     31  H8  non d ame     -36.102   7.001  26.285  0.00  0.00     0.030 H 
ATOM     32  H9  non d ame     -35.794   7.932  24.799  0.00  0.00     0.030 H 
ENDBRANCH  13  29
ENDBRANCH  10  13
ENDBRANCH   7   9
BRANCH   7  33
ATOM     33  C11 non d ame     -31.461   9.920  23.104  0.00  0.00    -0.033 C 
ATOM     34  H12 non d ame     -31.770  10.879  22.687  0.00  0.00     0.042 H 
BRANCH  33  35
ATOM     35  C12 non d ame     -29.965   9.701  22.719  0.00  0.00    -0.071 C 
ATOM     36  H13 non d ame     -29.349   9.737  23.618  0.00  0.00     0.028 H 
ATOM     37  H14 non d ame     -29.852   8.729  22.239  0.00  0.00     0.028 H 
ATOM     38  H15 non d ame     -29.648  10.485  22.031  0.00  0.00     0.028 H 
ENDBRANCH  33  35
BRANCH  33  39
ATOM     39  C13 non d ame     -32.373   8.810  22.489  0.00  0.00    -0.071 C 
ATOM     40  H16 non d ame     -32.249   8.796  21.406  0.00  0.00     0.028 H 
ATOM     41  H17 non d ame     -32.091   7.839  22.900  0.00  0.00     0.028 H 
ATOM     42  H18 non d ame     -33.414   9.018  22.734  0.00  0.00     0.028 H 
ENDBRANCH  33  39
ENDBRANCH   7  33
ENDBRANCH   4   7
ENDBRANCH   1   3
BRANCH   1  43
ATOM     43  C15 non d ame     -32.127  14.335  25.750  0.00  0.00     0.240 C 
ATOM     44  O5  non d ame     -33.283  14.422  25.486  0.00  0.00    -0.271 OA
ATOM     45  N6  non d ame     -31.658  14.633  27.133  0.00  0.00    -0.355 N 
ATOM     46  H46 non d ame     -30.679  14.557  27.370  0.00  0.00     0.162 HD
BRANCH  45  47
ATOM     47  C20 non d ame     -32.634  15.042  28.167  0.00  0.00     0.013 C 
ATOM     48  H30 non d ame     -33.624  14.723  27.838  0.00  0.00     0.072 H 
BRANCH  47  49
ATOM     49  C21 non d ame     -32.601  16.546  28.319  0.00  0.00    -0.038 C 
ATOM     50  H31 non d ame     -32.766  16.739  29.380  0.00  0.00     0.036 H 
ATOM     51  H32 non d ame     -31.675  16.869  27.844  0.00  0.00     0.036 H 
BRANCH  49  52
ATOM     52  C22 non d ame     -33.748  17.251  27.564  0.00  0.00     0.018 C 
ATOM     53  H33 non d ame     -34.441  16.461  27.276  0.00  0.00     0.048 H 
ATOM     54  H34 non d ame     -34.082  18.056  28.220  0.00  0.00     0.048 H 
BRANCH  52  55
ATOM     55  C23 non d ame     -33.302  17.934  26.242  0.00  0.00     0.259 C 
ATOM     56  O7  non d ame     -32.225  17.721  25.786  0.00  0.00    -0.265 OA
BRANCH  55  57
ATOM     57  O8  non d ame     -34.190  18.831  25.586  0.00  0.00    -0.317 OA
BRANCH  57  58
ATOM     58  C29 non d ame     -35.514  18.316  25.413  0.00  0.00     0.052 C 
ATOM     59  H47 non d ame     -35.686  18.303  24.337  0.00  0.00     0.082 H 
ATOM     60  H48 non d ame     -35.546  17.387  25.982  0.00  0.00     0.082 H 
BRANCH  58  61
ATOM     61  C35 non d ame     -36.507  19.320  26.057  0.00  0.00    -0.034 A 
ATOM     62  C30 non d ame     -37.878  19.112  25.944  0.00  0.00    -0.075 A 
ATOM     63  C31 non d ame     -38.771  20.015  26.522  0.00  0.00    -0.082 A 
ATOM     64  H49 non d ame     -38.254  18.244  25.404  0.00  0.00     0.084 H 
ATOM     65  C32 non d ame     -38.287  21.130  27.212  0.00  0.00    -0.083 A 
ATOM     66  H50 non d ame     -39.845  19.848  26.434  0.00  0.00     0.083 H 
ATOM     67  C33 non d ame     -36.918  21.334  27.319  0.00  0.00    -0.082 A 
ATOM     68  H51 non d ame     -38.978  21.839  27.667  0.00  0.00     0.083 H 
ATOM     69  C34 non d ame     -36.023  20.434  26.744  0.00  0.00    -0.075 A 
ATOM     70  H52 non d ame     -36.544  22.206  27.856  0.00  0.00     0.083 H 
ATOM     71  H53 non d ame     -34.949  20.602  26.834  0.00  0.00     0.084 H 
ENDBRANCH  58  61
ENDBRANCH  57  58
ENDBRANCH  55  57
ENDBRANCH  52  55
ENDBRANCH  49  52
ENDBRANCH  47  49
BRANCH  47  72
ATOM     72  C24 non d ame     -32.281  14.386  29.500  0.00  0.00    -0.039 C 
ATOM     73  H35 non d ame     -31.483  14.999  29.921  0.00  0.00     0.036 H 
ATOM     74  H36 non d ame     -33.227  14.283  30.031  0.00  0.00     0.036 H 
BRANCH  72  75
ATOM     75  C25 non d ame     -31.689  12.912  29.297  0.00  0.00    -0.001 C 
ATOM     76  C26 non d ame     -32.918  11.834  29.127  0.00  0.00    -0.035 C 
ATOM     77  C27 non d ame     -32.725  10.811  29.995  0.00  0.00     0.085 C 
ATOM     78  H38 non d ame     -33.855  12.279  29.462  0.00  0.00     0.036 H 
ATOM     79  H39 non d ame     -32.862  11.353  28.151  0.00  0.00     0.036 H 
ATOM     80  N5  non d ame     -31.658  11.253  30.967  0.00  0.00    -0.049 N 
ATOM     81  H40 non d ame     -33.669  10.701  30.530  0.00  0.00     0.075 H 
ATOM     82  H41 non d ame     -32.339   9.988  29.394  0.00  0.00     0.075 H 
ATOM     83  C28 non d ame     -30.967  12.554  30.307  0.00  0.00     0.193 C 
ATOM     84  H42 non d ame     -32.137  11.536  31.810  0.00  0.00     0.280 HD
ATOM     85  H43 non d ame     -30.976  10.508  31.000  0.00  0.00     0.280 HD
ATOM     86  H44 non d ame     -29.988  12.483  29.835  0.00  0.00     0.129 H 
ATOM     87  H37 non d ame     -30.898  12.884  28.548  0.00  0.00     0.046 H 
BRANCH  83  88
ATOM     88  O6  non d ame     -30.847  13.595  31.279  0.00  0.00    -0.369 OA
ATOM     89  H45 non d ame     -29.949  13.933  31.277  0.00  0.00     0.212 HD
ENDBRANCH  83  88
ENDBRANCH  72  75
ENDBRANCH  47  72
ENDBRANCH  45  47
ENDBRANCH   1  43
BRANCH   1  90
ATOM     90  C16 non d ame     -31.200  14.856  23.472  0.00  0.00    -0.035 C 
ATOM     91  H21 non d ame     -32.173  14.668  23.019  0.00  0.00     0.037 H 
ATOM     92  H22 non d ame     -30.970  15.840  23.878  0.00  0.00     0.037 H 
BRANCH  90  93
ATOM     93  C17 non d ame     -30.137  14.577  22.362  0.00  0.00    -0.059 C 
ATOM     94  H23 non d ame     -30.047  13.497  22.253  0.00  0.00     0.038 H 
BRANCH  93  95
ATOM     95  C18 non d ame     -30.563  15.163  20.978  0.00  0.00    -0.073 C 
ATOM     96  H24 non d ame     -31.649  15.252  20.939  0.00  0.00     0.028 H 
ATOM     97  H25 non d ame     -30.114  16.148  20.846  0.00  0.00     0.028 H 
ATOM     98  H26 non d ame     -30.224  14.501  20.182  0.00  0.00     0.028 H 
ENDBRANCH  93  95
BRANCH  93  99
ATOM     99  C19 non d ame     -28.762  15.108  22.777  0.00  0.00    -0.073 C 
ATOM    100  H27 non d ame     -27.997  14.374  22.520  0.00  0.00     0.028 H 
ATOM    101  H28 non d ame     -28.559  16.042  22.253  0.00  0.00     0.028 H 
ATOM    102  H29 non d ame     -28.750  15.285  23.852  0.00  0.00     0.028 H 
ENDBRANCH  93  99
ENDBRANCH  90  93
ENDBRANCH   1  90
TORSDOF 26
ENDMDL
MODEL 7
REMARK VINA RESULT:      -6.7      3.296      7.856
REMARK  26 active torsions:
REMARK  status: ('A' for Active; 'I' for Inactive)
REMARK    1  A    between atoms: C2_2  and  C3_3 
REMARK    2  A    between atoms: C4_6  and  C5_7 
REMARK       I    between atoms: C5_7  and  N2_9 
REMARK    3  A    between atoms: N2_9  and  C6_10 
REMARK    4  A    between atoms: C6_10  and  C7_11 
REMARK    5  A    between atoms: C6_10  and  C8_13 
REMARK       I    between atoms: C7_11  and  N3_14 
REMARK    6  A    between atoms: N3_14  and  C9_15 
REMARK    7  A    between atoms: C9_15  and  C10_16 
REMARK    8  A    between atoms: C9_15  and  C11_18 
REMARK       I    between atoms: C10_16  and  N4_21 
REMARK    9  A    between atoms: C11_18  and  C12_19 
REMARK   10  A    between atoms: C11_18  and  C13_20 
REMARK   11  A    between atoms: N4_21  and  C14_22 
REMARK   12  A    between atoms: C14_22  and  C15_23 
REMARK   13  A    between atoms: C14_22  and  C16_25 
REMARK       I    between atoms: C15_23  and  N6_40 
REMARK   14  A    between atoms: C16_25  and  C17_26 
REMARK   15  A    between atoms: C17_26  and  C18_27 
REMARK   16  A    between atoms: C17_26  and  C19_28 
REMARK   17  A    between atoms: C20_29  and  C21_30 
REMARK   18  A    between atoms: C20_29  and  C24_33 
REMARK   19  A    between atoms: C20_29  and  N6_40 
REMARK   20  A    between atoms: C21_30  and  C22_31 
REMARK   21  A    between atoms: C22_31  and  C23_32 
REMARK   22  A    between atoms: C23_32  and  O8_43 
REMARK   23  A    between atoms: C24_33  and  C25_34 
REMARK   24  A    between atoms: C28_38  and  O6_39 
REMARK   25  A    between atoms: C29_42  and  O8_43 
REMARK   26  A    between atoms: C29_42  and  C35_49 
ROOT
ATOM      1  C14 non d ame     -33.003  10.571  25.793  0.00  0.00     0.089 C 
ATOM      2  H20 non d ame     -33.743  10.637  24.994  0.00  0.00     0.087 H 
ENDROOT
BRANCH   1   3
ATOM      3  N4  non d ame     -32.429   9.235  25.747  0.00  0.00    -0.346 N 
ATOM      4  C10 non d ame     -33.100   8.143  24.951  0.00  0.00     0.241 C 
ATOM      5  O4  non d ame     -34.104   8.363  24.358  0.00  0.00    -0.271 OA
ATOM      6  H19 non d ame     -31.575   9.067  26.260  0.00  0.00     0.163 HD
BRANCH   4   7
ATOM      7  C9  non d ame     -32.487   6.768  24.910  0.00  0.00     0.092 C 
ATOM      8  H11 non d ame     -31.433   6.837  25.180  0.00  0.00     0.088 H 
BRANCH   7   9
ATOM      9  N3  non d ame     -33.136   5.913  25.907  0.00  0.00    -0.346 N 
ATOM     10  C7  non d ame     -32.678   5.926  27.275  0.00  0.00     0.240 C 
ATOM     11  O3  non d ame     -31.786   6.617  27.589  0.00  0.00    -0.271 OA
ATOM     12  H10 non d ame     -33.905   5.311  25.651  0.00  0.00     0.163 HD
BRANCH  10  13
ATOM     13  C6  non d ame     -33.371   5.011  28.332  0.00  0.00     0.086 C 
ATOM     14  H6  non d ame     -32.759   4.857  29.221  0.00  0.00     0.086 H 
BRANCH  13  15
ATOM     15  N2  non d ame     -34.597   5.652  28.778  0.00  0.00    -0.343 N 
ATOM     16  C5  non d ame     -34.982   5.571  30.189  0.00  0.00     0.273 C 
ATOM     17  O2  non d ame     -34.299   4.986  30.956  0.00  0.00    -0.266 OA
ATOM     18  H5  non d ame     -35.176   6.146  28.114  0.00  0.00     0.163 HD
BRANCH  16  19
ATOM     19  C4  non d ame     -36.274   6.245  30.674  0.00  0.00     0.154 A 
ATOM     20  C1  non d ame     -36.565   7.646  30.693  0.00  0.00    -0.017 A 
ATOM     21  C2  non d ame     -37.870   7.740  31.225  0.00  0.00     0.077 A 
ATOM     22  H1  non d ame     -35.926   8.469  30.373  0.00  0.00     0.091 H 
ATOM     23  O1  non d ame     -38.274   6.528  31.475  0.00  0.00    -0.218 OA
ATOM     24  N1  non d ame     -37.360   5.639  31.163  0.00  0.00    -0.123 NA
BRANCH  21  25
ATOM     25  C3  non d ame     -38.659   9.021  31.459  0.00  0.00    -0.029 C 
ATOM     26  H2  non d ame     -37.987   9.800  31.822  0.00  0.00     0.036 H 
ATOM     27  H3  non d ame     -39.115   9.343  30.523  0.00  0.00     0.036 H 
ATOM     28  H4  non d ame     -39.437   8.840  32.199  0.00  0.00     0.036 H 
ENDBRANCH  21  25
ENDBRANCH  16  19
ENDBRANCH  13  15
BRANCH  13  29
ATOM     29  C8  non d ame     -33.683   3.671  27.715  0.00  0.00    -0.049 C 
ATOM     30  H7  non d ame     -34.644   3.316  28.084  0.00  0.00     0.030 H 
ATOM     31  H8  non d ame     -33.726   3.773  26.630  0.00  0.00     0.030 H 
ATOM     32  H9  non d ame     -32.904   2.958  27.982  0.00  0.00     0.030 H 
ENDBRANCH  13  29
ENDBRANCH  10  13
ENDBRANCH   7   9
BRANCH   7  33
ATOM     33  C11 non d ame     -32.688   6.153  23.494  0.00  0.00    -0.033 C 
ATOM     34  H12 non d ame     -33.489   6.710  23.005  0.00  0.00     0.042 H 
BRANCH  33  35
ATOM     35  C12 non d ame     -31.406   6.309  22.618  0.00  0.00    -0.071 C 
ATOM     36  H13 non d ame     -31.593   5.902  21.624  0.00  0.00     0.028 H 
ATOM     37  H14 non d ame     -31.149   7.365  22.536  0.00  0.00     0.028 H 
ATOM     38  H15 non d ame     -30.581   5.769  23.082  0.00  0.00     0.028 H 
ENDBRANCH  33  35
BRANCH  33  39
ATOM     39  C13 non d ame     -33.130   4.658  23.591  0.00  0.00    -0.071 C 
ATOM     40  H16 non d ame     -34.171   4.606  23.912  0.00  0.00     0.028 H 
ATOM     41  H17 non d ame     -33.027   4.184  22.614  0.00  0.00     0.028 H 
ATOM     42  H18 non d ame     -32.500   4.139  24.313  0.00  0.00     0.028 H 
ENDBRANCH  33  39
ENDBRANCH   7  33
ENDBRANCH   4   7
ENDBRANCH   1   3
BRANCH   1  43
ATOM     43  C15 non d ame     -31.858  11.609  25.621  0.00  0.00     0.240 C 
ATOM     44  O5  non d ame     -30.741  11.306  25.889  0.00  0.00    -0.271 OA
ATOM     45  N6  non d ame     -32.153  12.979  25.114  0.00  0.00    -0.355 N 
ATOM     46  H46 non d ame     -33.098  13.246  24.879  0.00  0.00     0.162 HD
BRANCH  45  47
ATOM     47  C20 non d ame     -31.053  13.955  24.955  0.00  0.00     0.013 C 
ATOM     48  H30 non d ame     -30.243  13.659  25.622  0.00  0.00     0.072 H 
BRANCH  47  49
ATOM     49  C21 non d ame     -31.551  15.334  25.325  0.00  0.00    -0.038 C 
ATOM     50  H31 non d ame     -30.772  15.769  25.955  0.00  0.00     0.036 H 
ATOM     51  H32 non d ame     -31.820  15.812  24.384  0.00  0.00     0.036 H 
BRANCH  49  52
ATOM     52  C22 non d ame     -32.835  15.298  26.181  0.00  0.00     0.018 C 
ATOM     53  H33 non d ame     -33.456  16.114  25.816  0.00  0.00     0.048 H 
ATOM     54  H34 non d ame     -33.197  14.270  26.126  0.00  0.00     0.048 H 
BRANCH  52  55
ATOM     55  C23 non d ame     -32.591  15.585  27.688  0.00  0.00     0.259 C 
ATOM     56  O7  non d ame     -31.908  14.862  28.338  0.00  0.00    -0.265 OA
BRANCH  55  57
ATOM     57  O8  non d ame     -33.207  16.718  28.291  0.00  0.00    -0.317 OA
BRANCH  57  58
ATOM     58  C29 non d ame     -32.748  17.972  27.776  0.00  0.00     0.052 C 
ATOM     59  H47 non d ame     -32.359  18.518  28.635  0.00  0.00     0.082 H 
ATOM     60  H48 non d ame     -32.090  17.726  26.942  0.00  0.00     0.082 H 
BRANCH  58  61
ATOM     61  C35 non d ame     -33.977  18.741  27.221  0.00  0.00    -0.034 A 
ATOM     62  C30 non d ame     -34.775  19.490  28.079  0.00  0.00    -0.075 A 
ATOM     63  C31 non d ame     -35.880  20.181  27.581  0.00  0.00    -0.082 A 
ATOM     64  H49 non d ame     -34.537  19.536  29.142  0.00  0.00     0.084 H 
ATOM     65  C32 non d ame     -36.185  20.117  26.219  0.00  0.00    -0.083 A 
ATOM     66  H50 non d ame     -36.502  20.768  28.256  0.00  0.00     0.083 H 
ATOM     67  C33 non d ame     -35.387  19.366  25.367  0.00  0.00    -0.082 A 
ATOM     68  H51 non d ame     -37.046  20.655  25.821  0.00  0.00     0.083 H 
ATOM     69  C34 non d ame     -34.282  18.676  25.860  0.00  0.00    -0.075 A 
ATOM     70  H52 non d ame     -35.630  19.317  24.305  0.00  0.00     0.083 H 
ATOM     71  H53 non d ame     -33.660  18.089  25.184  0.00  0.00     0.084 H 
ENDBRANCH  58  61
ENDBRANCH  57  58
ENDBRANCH  55  57
ENDBRANCH  52  55
ENDBRANCH  49  52
ENDBRANCH  47  49
BRANCH  47  72
ATOM     72  C24 non d ame     -30.571  13.959  23.506  0.00  0.00    -0.039 C 
ATOM     73  H35 non d ame     -29.645  13.383  23.507  0.00  0.00     0.036 H 
ATOM     74  H36 non d ame     -31.422  13.619  22.916  0.00  0.00     0.036 H 
BRANCH  72  75
ATOM     75  C25 non d ame     -30.209  15.436  23.005  0.00  0.00    -0.001 C 
ATOM     76  C26 non d ame     -31.321  15.941  21.904  0.00  0.00    -0.035 C 
ATOM     77  C27 non d ame     -30.672  16.387  20.801  0.00  0.00     0.085 C 
ATOM     78  H38 non d ame     -31.895  15.092  21.535  0.00  0.00     0.036 H 
ATOM     79  H39 non d ame     -31.835  16.829  22.272  0.00  0.00     0.036 H 
ATOM     80  N5  non d ame     -29.238  15.929  20.918  0.00  0.00    -0.049 N 
ATOM     81  H40 non d ame     -31.141  15.876  19.960  0.00  0.00     0.075 H 
ATOM     82  H41 non d ame     -30.703  17.475  20.864  0.00  0.00     0.075 H 
ATOM     83  C28 non d ame     -29.042  15.470  22.453  0.00  0.00     0.193 C 
ATOM     84  H42 non d ame     -29.148  15.116  20.325  0.00  0.00     0.280 HD
ATOM     85  H43 non d ame     -28.664  16.743  20.749  0.00  0.00     0.280 HD
ATOM     86  H44 non d ame     -28.508  16.107  23.157  0.00  0.00     0.129 H 
ATOM     87  H37 non d ame     -29.988  16.111  23.832  0.00  0.00     0.046 H 
BRANCH  83  88
ATOM     88  O6  non d ame     -28.382  14.204  22.509  0.00  0.00    -0.369 OA
ATOM     89  H45 non d ame     -27.578  14.284  23.027  0.00  0.00     0.212 HD
ENDBRANCH  83  88
ENDBRANCH  72  75
ENDBRANCH  47  72
ENDBRANCH  45  47
ENDBRANCH   1  43
BRANCH   1  90
ATOM     90  C16 non d ame     -33.680  10.773  27.139  0.00  0.00    -0.035 C 
ATOM     91  H21 non d ame     -33.706  11.852  27.290  0.00  0.00     0.037 H 
ATOM     92  H22 non d ame     -34.611  10.209  27.082  0.00  0.00     0.037 H 
BRANCH  90  93
ATOM     93  C17 non d ame     -32.877  10.180  28.340  0.00  0.00    -0.059 C 
ATOM     94  H23 non d ame     -32.022   9.641  27.933  0.00  0.00     0.038 H 
BRANCH  93  95
ATOM     95  C18 non d ame     -32.332  11.293  29.291  0.00  0.00    -0.073 C 
ATOM     96  H24 non d ame     -31.247  11.351  29.198  0.00  0.00     0.028 H 
ATOM     97  H25 non d ame     -32.771  12.252  29.017  0.00  0.00     0.028 H 
ATOM     98  H26 non d ame     -32.596  11.053  30.320  0.00  0.00     0.028 H 
ENDBRANCH  93  95
BRANCH  93  99
ATOM     99  C19 non d ame     -33.724   9.168  29.117  0.00  0.00    -0.073 C 
ATOM    100  H27 non d ame     -34.414   8.671  28.434  0.00  0.00     0.028 H 
ATOM    101  H28 non d ame     -33.072   8.425  29.576  0.00  0.00     0.028 H 
ATOM    102  H29 non d ame     -34.288   9.685  29.892  0.00  0.00     0.028 H 
ENDBRANCH  93  99
ENDBRANCH  90  93
ENDBRANCH   1  90
TORSDOF 26
ENDMDL
MODEL 8
REMARK VINA RESULT:      -6.6      3.597      9.335
REMARK  26 active torsions:
REMARK  status: ('A' for Active; 'I' for Inactive)
REMARK    1  A    between atoms: C2_2  and  C3_3 
REMARK    2  A    between atoms: C4_6  and  C5_7 
REMARK       I    between atoms: C5_7  and  N2_9 
REMARK    3  A    between atoms: N2_9  and  C6_10 
REMARK    4  A    between atoms: C6_10  and  C7_11 
REMARK    5  A    between atoms: C6_10  and  C8_13 
REMARK       I    between atoms: C7_11  and  N3_14 
REMARK    6  A    between atoms: N3_14  and  C9_15 
REMARK    7  A    between atoms: C9_15  and  C10_16 
REMARK    8  A    between atoms: C9_15  and  C11_18 
REMARK       I    between atoms: C10_16  and  N4_21 
REMARK    9  A    between atoms: C11_18  and  C12_19 
REMARK   10  A    between atoms: C11_18  and  C13_20 
REMARK   11  A    between atoms: N4_21  and  C14_22 
REMARK   12  A    between atoms: C14_22  and  C15_23 
REMARK   13  A    between atoms: C14_22  and  C16_25 
REMARK       I    between atoms: C15_23  and  N6_40 
REMARK   14  A    between atoms: C16_25  and  C17_26 
REMARK   15  A    between atoms: C17_26  and  C18_27 
REMARK   16  A    between atoms: C17_26  and  C19_28 
REMARK   17  A    between atoms: C20_29  and  C21_30 
REMARK   18  A    between atoms: C20_29  and  C24_33 
REMARK   19  A    between atoms: C20_29  and  N6_40 
REMARK   20  A    between atoms: C21_30  and  C22_31 
REMARK   21  A    between atoms: C22_31  and  C23_32 
REMARK   22  A    between atoms: C23_32  and  O8_43 
REMARK   23  A    between atoms: C24_33  and  C25_34 
REMARK   24  A    between atoms: C28_38  and  O6_39 
REMARK   25  A    between atoms: C29_42  and  O8_43 
REMARK   26  A    between atoms: C29_42  and  C35_49 
ROOT
ATOM      1  C14 non d ame     -34.886   8.412  31.242  0.00  0.00     0.089 C 
ATOM      2  H20 non d ame     -34.448   8.434  32.241  0.00  0.00     0.087 H 
ENDROOT
BRANCH   1   3
ATOM      3  N4  non d ame     -33.996   9.149  30.358  0.00  0.00    -0.346 N 
ATOM      4  C10 non d ame     -33.467  10.502  30.764  0.00  0.00     0.241 C 
ATOM      5  O4  non d ame     -33.775  10.979  31.806  0.00  0.00    -0.271 OA
ATOM      6  H19 non d ame     -33.748   8.727  29.474  0.00  0.00     0.163 HD
BRANCH   4   7
ATOM      7  C9  non d ame     -32.543  11.248  29.838  0.00  0.00     0.092 C 
ATOM      8  H11 non d ame     -31.889  10.536  29.333  0.00  0.00     0.088 H 
BRANCH   7   9
ATOM      9  N3  non d ame     -33.328  11.926  28.804  0.00  0.00    -0.346 N 
ATOM     10  C7  non d ame     -33.546  11.286  27.529  0.00  0.00     0.240 C 
ATOM     11  O3  non d ame     -33.094  10.227  27.319  0.00  0.00    -0.271 OA
ATOM     12  H10 non d ame     -33.723  12.840  28.969  0.00  0.00     0.163 HD
BRANCH  10  13
ATOM     13  C6  non d ame     -34.381  12.014  26.430  0.00  0.00     0.086 C 
ATOM     14  H6  non d ame     -35.035  12.784  26.838  0.00  0.00     0.086 H 
BRANCH  13  15
ATOM     15  N2  non d ame     -33.472  12.683  25.514  0.00  0.00    -0.343 N 
ATOM     16  C5  non d ame     -32.947  14.007  25.858  0.00  0.00     0.273 C 
ATOM     17  O2  non d ame     -33.264  14.525  26.872  0.00  0.00    -0.266 OA
ATOM     18  H5  non d ame     -33.209  12.234  24.648  0.00  0.00     0.163 HD
BRANCH  16  19
ATOM     19  C4  non d ame     -31.984  14.725  24.900  0.00  0.00     0.154 A 
ATOM     20  C1  non d ame     -30.862  14.159  24.216  0.00  0.00    -0.017 A 
ATOM     21  C2  non d ame     -30.315  15.226  23.469  0.00  0.00     0.077 A 
ATOM     22  H1  non d ame     -30.499  13.132  24.256  0.00  0.00     0.091 H 
ATOM     23  O1  non d ame     -31.047  16.277  23.701  0.00  0.00    -0.218 OA
ATOM     24  N1  non d ame     -32.026  16.009  24.534  0.00  0.00    -0.123 NA
BRANCH  21  25
ATOM     25  C3  non d ame     -29.096  15.158  22.558  0.00  0.00    -0.029 C 
ATOM     26  H2  non d ame     -28.380  14.442  22.963  0.00  0.00     0.036 H 
ATOM     27  H3  non d ame     -29.404  14.839  21.563  0.00  0.00     0.036 H 
ATOM     28  H4  non d ame     -28.632  16.141  22.498  0.00  0.00     0.036 H 
ENDBRANCH  21  25
ENDBRANCH  16  19
ENDBRANCH  13  15
BRANCH  13  29
ATOM     29  C8  non d ame     -35.218  11.007  25.682  0.00  0.00    -0.049 C 
ATOM     30  H7  non d ame     -34.596  10.484  24.956  0.00  0.00     0.030 H 
ATOM     31  H8  non d ame     -35.635  10.287  26.387  0.00  0.00     0.030 H 
ATOM     32  H9  non d ame     -36.028  11.521  25.165  0.00  0.00     0.030 H 
ENDBRANCH  13  29
ENDBRANCH  10  13
ENDBRANCH   7   9
BRANCH   7  33
ATOM     33  C11 non d ame     -31.738  12.305  30.650  0.00  0.00    -0.033 C 
ATOM     34  H12 non d ame     -32.274  12.479  31.584  0.00  0.00     0.042 H 
BRANCH  33  35
ATOM     35  C12 non d ame     -30.316  11.778  31.018  0.00  0.00    -0.071 C 
ATOM     36  H13 non d ame     -29.767  11.547  30.105  0.00  0.00     0.028 H 
ATOM     37  H14 non d ame     -29.780  12.543  31.580  0.00  0.00     0.028 H 
ATOM     38  H15 non d ame     -30.407  10.878  31.625  0.00  0.00     0.028 H 
ENDBRANCH  33  35
BRANCH  33  39
ATOM     39  C13 non d ame     -31.658  13.661  29.879  0.00  0.00    -0.071 C 
ATOM     40  H16 non d ame     -31.457  13.469  28.825  0.00  0.00     0.028 H 
ATOM     41  H17 non d ame     -32.606  14.192  29.978  0.00  0.00     0.028 H 
ATOM     42  H18 non d ame     -30.857  14.270  30.297  0.00  0.00     0.028 H 
ENDBRANCH  33  39
ENDBRANCH   7  33
ENDBRANCH   4   7
ENDBRANCH   1   3
BRANCH   1  43
ATOM     43  C15 non d ame     -35.036   6.963  30.698  0.00  0.00     0.240 C 
ATOM     44  O5  non d ame     -35.646   6.157  31.324  0.00  0.00    -0.271 OA
ATOM     45  N6  non d ame     -34.426   6.581  29.393  0.00  0.00    -0.355 N 
ATOM     46  H46 non d ame     -33.909   7.258  28.851  0.00  0.00     0.162 HD
BRANCH  45  47
ATOM     47  C20 non d ame     -34.579   5.199  28.888  0.00  0.00     0.013 C 
ATOM     48  H30 non d ame     -34.924   4.576  29.714  0.00  0.00     0.072 H 
BRANCH  47  49
ATOM     49  C21 non d ame     -33.242   4.699  28.388  0.00  0.00    -0.038 C 
ATOM     50  H31 non d ame     -32.493   5.326  28.873  0.00  0.00     0.036 H 
ATOM     51  H32 non d ame     -33.247   3.623  28.561  0.00  0.00     0.036 H 
BRANCH  49  52
ATOM     52  C22 non d ame     -33.058   4.896  26.868  0.00  0.00     0.018 C 
ATOM     53  H33 non d ame     -32.506   4.024  26.522  0.00  0.00     0.048 H 
ATOM     54  H34 non d ame     -34.056   5.101  26.475  0.00  0.00     0.048 H 
BRANCH  52  55
ATOM     55  C23 non d ame     -32.191   6.130  26.497  0.00  0.00     0.259 C 
ATOM     56  O7  non d ame     -32.102   7.052  27.242  0.00  0.00    -0.265 OA
BRANCH  55  57
ATOM     57  O8  non d ame     -31.512   6.154  25.247  0.00  0.00    -0.317 OA
BRANCH  57  58
ATOM     58  C29 non d ame     -32.290   6.694  24.174  0.00  0.00     0.052 C 
ATOM     59  H47 non d ame     -32.251   5.950  23.379  0.00  0.00     0.082 H 
ATOM     60  H48 non d ame     -33.246   6.974  24.614  0.00  0.00     0.082 H 
BRANCH  58  61
ATOM     61  C35 non d ame     -31.585   7.984  23.673  0.00  0.00    -0.034 A 
ATOM     62  C30 non d ame     -32.002   9.229  24.134  0.00  0.00    -0.075 A 
ATOM     63  C31 non d ame     -31.369  10.387  23.684  0.00  0.00    -0.082 A 
ATOM     64  H49 non d ame     -32.824   9.297  24.846  0.00  0.00     0.084 H 
ATOM     65  C32 non d ame     -30.317  10.297  22.768  0.00  0.00    -0.083 A 
ATOM     66  H50 non d ame     -31.697  11.361  24.048  0.00  0.00     0.083 H 
ATOM     67  C33 non d ame     -29.907   9.053  22.309  0.00  0.00    -0.082 A 
ATOM     68  H51 non d ame     -29.817  11.197  22.412  0.00  0.00     0.083 H 
ATOM     69  C34 non d ame     -30.535   7.892  22.757  0.00  0.00    -0.075 A 
ATOM     70  H52 non d ame     -29.088   8.985  21.593  0.00  0.00     0.083 H 
ATOM     71  H53 non d ame     -30.206   6.919  22.393  0.00  0.00     0.084 H 
ENDBRANCH  58  61
ENDBRANCH  57  58
ENDBRANCH  55  57
ENDBRANCH  52  55
ENDBRANCH  49  52
ENDBRANCH  47  49
BRANCH  47  72
ATOM     72  C24 non d ame     -35.593   5.175  27.746  0.00  0.00    -0.039 C 
ATOM     73  H35 non d ame     -35.643   6.202  27.382  0.00  0.00     0.036 H 
ATOM     74  H36 non d ame     -35.262   4.377  27.082  0.00  0.00     0.036 H 
BRANCH  72  75
ATOM     75  C25 non d ame     -37.058   4.783  28.262  0.00  0.00    -0.001 C 
ATOM     76  C26 non d ame     -37.497   3.326  27.642  0.00  0.00    -0.035 C 
ATOM     77  C27 non d ame     -38.719   3.446  27.068  0.00  0.00     0.085 C 
ATOM     78  H38 non d ame     -36.848   3.062  26.807  0.00  0.00     0.036 H 
ATOM     79  H39 non d ame     -37.665   2.612  28.449  0.00  0.00     0.036 H 
ATOM     80  N5  non d ame     -39.007   4.923  26.950  0.00  0.00    -0.049 N 
ATOM     81  H40 non d ame     -38.614   3.023  26.068  0.00  0.00     0.075 H 
ATOM     82  H41 non d ame     -39.419   3.003  27.776  0.00  0.00     0.075 H 
ATOM     83  C28 non d ame     -37.932   5.663  27.900  0.00  0.00     0.193 C 
ATOM     84  H42 non d ame     -38.818   5.177  25.991  0.00  0.00     0.280 HD
ATOM     85  H43 non d ame     -39.930   5.066  27.337  0.00  0.00     0.280 HD
ATOM     86  H44 non d ame     -38.229   6.058  28.870  0.00  0.00     0.129 H 
ATOM     87  H37 non d ame     -37.167   4.918  29.338  0.00  0.00     0.046 H 
BRANCH  83  88
ATOM     88  O6  non d ame     -37.335   6.761  27.207  0.00  0.00    -0.369 OA
ATOM     89  H45 non d ame     -36.380   6.671  27.225  0.00  0.00     0.212 HD
ENDBRANCH  83  88
ENDBRANCH  72  75
ENDBRANCH  47  72
ENDBRANCH  45  47
ENDBRANCH   1  43
BRANCH   1  90
ATOM     90  C16 non d ame     -36.244   9.094  31.261  0.00  0.00    -0.035 C 
ATOM     91  H21 non d ame     -36.826   8.560  32.012  0.00  0.00     0.037 H 
ATOM     92  H22 non d ame     -36.032  10.155  31.389  0.00  0.00     0.037 H 
BRANCH  90  93
ATOM     93  C17 non d ame     -37.031   8.961  29.918  0.00  0.00    -0.059 C 
ATOM     94  H23 non d ame     -36.516   8.222  29.304  0.00  0.00     0.038 H 
BRANCH  93  95
ATOM     95  C18 non d ame     -38.494   8.460  30.141  0.00  0.00    -0.073 C 
ATOM     96  H24 non d ame     -38.557   7.400  29.894  0.00  0.00     0.028 H 
ATOM     97  H25 non d ame     -38.774   8.606  31.184  0.00  0.00     0.028 H 
ATOM     98  H26 non d ame     -39.173   9.023  29.501  0.00  0.00     0.028 H 
ENDBRANCH  93  95
BRANCH  93  99
ATOM     99  C19 non d ame     -37.020  10.282  29.145  0.00  0.00    -0.073 C 
ATOM    100  H27 non d ame     -36.054  10.771  29.273  0.00  0.00     0.028 H 
ATOM    101  H28 non d ame     -37.189  10.085  28.086  0.00  0.00     0.028 H 
ATOM    102  H29 non d ame     -37.809  10.931  29.523  0.00  0.00     0.028 H 
ENDBRANCH  93  99
ENDBRANCH  90  93
ENDBRANCH   1  90
TORSDOF 26
ENDMDL
MODEL 9
REMARK VINA RESULT:      -6.6      3.497      6.564
REMARK  26 active torsions:
REMARK  status: ('A' for Active; 'I' for Inactive)
REMARK    1  A    between atoms: C2_2  and  C3_3 
REMARK    2  A    between atoms: C4_6  and  C5_7 
REMARK       I    between atoms: C5_7  and  N2_9 
REMARK    3  A    between atoms: N2_9  and  C6_10 
REMARK    4  A    between atoms: C6_10  and  C7_11 
REMARK    5  A    between atoms: C6_10  and  C8_13 
REMARK       I    between atoms: C7_11  and  N3_14 
REMARK    6  A    between atoms: N3_14  and  C9_15 
REMARK    7  A    between atoms: C9_15  and  C10_16 
REMARK    8  A    between atoms: C9_15  and  C11_18 
REMARK       I    between atoms: C10_16  and  N4_21 
REMARK    9  A    between atoms: C11_18  and  C12_19 
REMARK   10  A    between atoms: C11_18  and  C13_20 
REMARK   11  A    between atoms: N4_21  and  C14_22 
REMARK   12  A    between atoms: C14_22  and  C15_23 
REMARK   13  A    between atoms: C14_22  and  C16_25 
REMARK       I    between atoms: C15_23  and  N6_40 
REMARK   14  A    between atoms: C16_25  and  C17_26 
REMARK   15  A    between atoms: C17_26  and  C18_27 
REMARK   16  A    between atoms: C17_26  and  C19_28 
REMARK   17  A    between atoms: C20_29  and  C21_30 
REMARK   18  A    between atoms: C20_29  and  C24_33 
REMARK   19  A    between atoms: C20_29  and  N6_40 
REMARK   20  A    between atoms: C21_30  and  C22_31 
REMARK   21  A    between atoms: C22_31  and  C23_32 
REMARK   22  A    between atoms: C23_32  and  O8_43 
REMARK   23  A    between atoms: C24_33  and  C25_34 
REMARK   24  A    between atoms: C28_38  and  O6_39 
REMARK   25  A    between atoms: C29_42  and  O8_43 
REMARK   26  A    between atoms: C29_42  and  C35_49 
ROOT
ATOM      1  C14 non d ame     -30.842  14.097  24.774  0.00  0.00     0.089 C 
ATOM      2  H20 non d ame     -30.166  13.711  25.538  0.00  0.00     0.087 H 
ENDROOT
BRANCH   1   3
ATOM      3  N4  non d ame     -31.603  12.972  24.254  0.00  0.00    -0.346 N 
ATOM      4  C10 non d ame     -31.457  11.603  24.871  0.00  0.00     0.241 C 
ATOM      5  O4  non d ame     -30.718  11.431  25.782  0.00  0.00    -0.271 OA
ATOM      6  H19 non d ame     -32.225  13.138  23.476  0.00  0.00     0.163 HD
BRANCH   4   7
ATOM      7  C9  non d ame     -32.258  10.451  24.323  0.00  0.00     0.092 C 
ATOM      8  H11 non d ame     -32.616  10.705  23.325  0.00  0.00     0.088 H 
BRANCH   7   9
ATOM      9  N3  non d ame     -31.394   9.275  24.188  0.00  0.00    -0.346 N 
ATOM     10  C7  non d ame     -30.610   9.090  22.991  0.00  0.00     0.240 C 
ATOM     11  O3  non d ame     -30.664   9.877  22.127  0.00  0.00    -0.271 OA
ATOM     12  H10 non d ame     -31.338   8.586  24.924  0.00  0.00     0.163 HD
BRANCH  10  13
ATOM     13  C6  non d ame     -29.694   7.834  22.852  0.00  0.00     0.086 C 
ATOM     14  H6  non d ame     -29.550   7.311  23.797  0.00  0.00     0.086 H 
BRANCH  13  15
ATOM     15  N2  non d ame     -30.326   6.889  21.945  0.00  0.00    -0.343 N 
ATOM     16  C5  non d ame     -31.411   6.036  22.435  0.00  0.00     0.273 C 
ATOM     17  O2  non d ame     -31.767   6.116  23.559  0.00  0.00    -0.266 OA
ATOM     18  H5  non d ame     -30.013   6.825  20.987  0.00  0.00     0.163 HD
BRANCH  16  19
ATOM     19  C4  non d ame     -32.089   5.034  21.488  0.00  0.00     0.154 A 
ATOM     20  C1  non d ame     -32.856   3.882  21.852  0.00  0.00    -0.017 A 
ATOM     21  C2  non d ame     -33.251   3.305  20.624  0.00  0.00     0.077 A 
ATOM     22  H1  non d ame     -33.089   3.519  22.853  0.00  0.00     0.091 H 
ATOM     23  O1  non d ame     -32.765   4.048  19.673  0.00  0.00    -0.218 OA
ATOM     24  N1  non d ame     -32.082   5.062  20.152  0.00  0.00    -0.123 NA
BRANCH  21  25
ATOM     25  C3  non d ame     -34.092   2.048  20.448  0.00  0.00    -0.029 C 
ATOM     26  H2  non d ame     -35.143   2.288  20.606  0.00  0.00     0.036 H 
ATOM     27  H3  non d ame     -33.957   1.659  19.439  0.00  0.00     0.036 H 
ATOM     28  H4  non d ame     -33.779   1.297  21.172  0.00  0.00     0.036 H 
ENDBRANCH  21  25
ENDBRANCH  16  19
ENDBRANCH  13  15
BRANCH  13  29
ATOM     29  C8  non d ame     -28.349   8.248  22.311  0.00  0.00    -0.049 C 
ATOM     30  H7  non d ame     -28.151   7.715  21.382  0.00  0.00     0.030 H 
ATOM     31  H8  non d ame     -28.349   9.321  22.120  0.00  0.00     0.030 H 
ATOM     32  H9  non d ame     -27.575   8.008  23.040  0.00  0.00     0.030 H 
ENDBRANCH  13  29
ENDBRANCH  10  13
ENDBRANCH   7   9
BRANCH   7  33
ATOM     33  C11 non d ame     -33.427  10.123  25.297  0.00  0.00    -0.033 C 
ATOM     34  H12 non d ame     -33.447  10.903  26.059  0.00  0.00     0.042 H 
BRANCH  33  35
ATOM     35  C12 non d ame     -34.804  10.150  24.563  0.00  0.00    -0.071 C 
ATOM     36  H13 non d ame     -35.297  11.104  24.748  0.00  0.00     0.028 H 
ATOM     37  H14 non d ame     -34.647  10.024  23.492  0.00  0.00     0.028 H 
ATOM     38  H15 non d ame     -35.431   9.340  24.936  0.00  0.00     0.028 H 
ENDBRANCH  33  35
BRANCH  33  39
ATOM     39  C13 non d ame     -33.193   8.754  26.012  0.00  0.00    -0.071 C 
ATOM     40  H16 non d ame     -32.217   8.760  26.499  0.00  0.00     0.028 H 
ATOM     41  H17 non d ame     -33.971   8.596  26.759  0.00  0.00     0.028 H 
ATOM     42  H18 non d ame     -33.227   7.950  25.278  0.00  0.00     0.028 H 
ENDBRANCH  33  39
ENDBRANCH   7  33
ENDBRANCH   4   7
ENDBRANCH   1   3
BRANCH   1  43
ATOM     43  C15 non d ame     -31.837  15.147  25.345  0.00  0.00     0.240 C 
ATOM     44  O5  non d ame     -31.528  16.294  25.383  0.00  0.00    -0.271 OA
ATOM     45  N6  non d ame     -33.179  14.725  25.835  0.00  0.00    -0.355 N 
ATOM     46  H46 non d ame     -33.455  13.753  25.802  0.00  0.00     0.162 HD
BRANCH  45  47
ATOM     47  C20 non d ame     -34.116  15.735  26.373  0.00  0.00     0.013 C 
ATOM     48  H30 non d ame     -33.756  16.719  26.072  0.00  0.00     0.072 H 
BRANCH  47  49
ATOM     49  C21 non d ame     -34.145  15.636  27.882  0.00  0.00    -0.038 C 
ATOM     50  H31 non d ame     -35.162  15.901  28.175  0.00  0.00     0.036 H 
ATOM     51  H32 non d ame     -33.750  14.649  28.119  0.00  0.00     0.036 H 
BRANCH  49  52
ATOM     52  C22 non d ame     -33.213  16.657  28.568  0.00  0.00     0.018 C 
ATOM     53  H33 non d ame     -32.819  17.282  27.768  0.00  0.00     0.048 H 
ATOM     54  H34 non d ame     -33.805  17.105  29.368  0.00  0.00     0.048 H 
BRANCH  52  55
ATOM     55  C23 non d ame     -31.978  16.014  29.258  0.00  0.00     0.259 C 
ATOM     56  O7  non d ame     -31.512  16.500  30.237  0.00  0.00    -0.265 OA
BRANCH  55  57
ATOM     57  O8  non d ame     -31.399  14.841  28.697  0.00  0.00    -0.317 OA
BRANCH  57  58
ATOM     58  C29 non d ame     -30.939  13.898  29.670  0.00  0.00     0.052 C 
ATOM     59  H47 non d ame     -29.988  13.524  29.291  0.00  0.00     0.082 H 
ATOM     60  H48 non d ame     -30.979  14.418  30.627  0.00  0.00     0.082 H 
BRANCH  58  61
ATOM     61  C35 non d ame     -31.949  12.720  29.709  0.00  0.00    -0.034 A 
ATOM     62  C30 non d ame     -32.684  12.395  28.574  0.00  0.00    -0.075 A 
ATOM     63  C31 non d ame     -33.592  11.337  28.609  0.00  0.00    -0.082 A 
ATOM     64  H49 non d ame     -32.550  12.968  27.657  0.00  0.00     0.084 H 
ATOM     65  C32 non d ame     -33.765  10.605  29.787  0.00  0.00    -0.083 A 
ATOM     66  H50 non d ame     -34.165  11.083  27.717  0.00  0.00     0.083 H 
ATOM     67  C33 non d ame     -33.032  10.936  30.918  0.00  0.00    -0.082 A 
ATOM     68  H51 non d ame     -34.472   9.776  29.823  0.00  0.00     0.083 H 
ATOM     69  C34 non d ame     -32.122  11.991  30.887  0.00  0.00    -0.075 A 
ATOM     70  H52 non d ame     -33.171  10.364  31.837  0.00  0.00     0.083 H 
ATOM     71  H53 non d ame     -31.549  12.243  31.780  0.00  0.00     0.084 H 
ENDBRANCH  58  61
ENDBRANCH  57  58
ENDBRANCH  55  57
ENDBRANCH  52  55
ENDBRANCH  49  52
ENDBRANCH  47  49
BRANCH  47  72
ATOM     72  C24 non d ame     -35.517  15.489  25.818  0.00  0.00    -0.039 C 
ATOM     73  H35 non d ame     -35.366  14.966  24.873  0.00  0.00     0.036 H 
ATOM     74  H36 non d ame     -36.068  15.007  26.625  0.00  0.00     0.036 H 
BRANCH  72  75
ATOM     75  C25 non d ame     -36.272  16.862  25.485  0.00  0.00    -0.001 C 
ATOM     76  C26 non d ame     -35.240  18.128  25.674  0.00  0.00    -0.035 C 
ATOM     77  C27 non d ame     -35.825  19.053  26.472  0.00  0.00     0.085 C 
ATOM     78  H38 non d ame     -34.365  17.816  26.244  0.00  0.00     0.036 H 
ATOM     79  H39 non d ame     -35.115  18.652  24.726  0.00  0.00     0.036 H 
ATOM     80  N5  non d ame     -37.022  18.391  27.110  0.00  0.00    -0.049 N 
ATOM     81  H40 non d ame     -35.090  19.278  27.245  0.00  0.00     0.075 H 
ATOM     82  H41 non d ame     -36.170  19.840  25.802  0.00  0.00     0.075 H 
ATOM     83  C28 non d ame     -37.285  17.040  26.266  0.00  0.00     0.193 C 
ATOM     84  H42 non d ame     -36.744  18.137  28.047  0.00  0.00     0.280 HD
ATOM     85  H43 non d ame     -37.804  19.016  26.968  0.00  0.00     0.280 HD
ATOM     86  H44 non d ame     -38.102  16.986  25.547  0.00  0.00     0.129 H 
ATOM     87  H37 non d ame     -36.829  16.811  24.550  0.00  0.00     0.046 H 
BRANCH  83  88
ATOM     88  O6  non d ame     -37.483  15.936  27.153  0.00  0.00    -0.369 OA
ATOM     89  H45 non d ame     -37.822  15.186  26.659  0.00  0.00     0.212 HD
ENDBRANCH  83  88
ENDBRANCH  72  75
ENDBRANCH  47  72
ENDBRANCH  45  47
ENDBRANCH   1  43
BRANCH   1  90
ATOM     90  C16 non d ame     -30.038  14.717  23.642  0.00  0.00    -0.035 C 
ATOM     91  H21 non d ame     -30.388  15.747  23.569  0.00  0.00     0.037 H 
ATOM     92  H22 non d ame     -28.995  14.513  23.883  0.00  0.00     0.037 H 
BRANCH  90  93
ATOM     93  C17 non d ame     -30.306  14.062  22.250  0.00  0.00    -0.059 C 
ATOM     94  H23 non d ame     -31.235  13.498  22.323  0.00  0.00     0.038 H 
BRANCH  93  95
ATOM     95  C18 non d ame     -30.483  15.127  21.121  0.00  0.00    -0.073 C 
ATOM     96  H24 non d ame     -30.932  14.659  20.246  0.00  0.00     0.028 H 
ATOM     97  H25 non d ame     -31.131  15.929  21.476  0.00  0.00     0.028 H 
ATOM     98  H26 non d ame     -29.510  15.539  20.854  0.00  0.00     0.028 H 
ENDBRANCH  93  95
BRANCH  93  99
ATOM     99  C19 non d ame     -29.198  13.068  21.891  0.00  0.00    -0.073 C 
ATOM    100  H27 non d ame     -28.311  13.613  21.569  0.00  0.00     0.028 H 
ATOM    101  H28 non d ame     -28.954  12.464  22.765  0.00  0.00     0.028 H 
ATOM    102  H29 non d ame     -29.539  12.418  21.086  0.00  0.00     0.028 H 
ENDBRANCH  93  99
ENDBRANCH  90  93
ENDBRANCH   1  90
TORSDOF 26
ENDMDL
MODEL 10
REMARK VINA RESULT:      -6.6      3.307      7.662
REMARK  26 active torsions:
REMARK  status: ('A' for Active; 'I' for Inactive)
REMARK    1  A    between atoms: C2_2  and  C3_3 
REMARK    2  A    between atoms: C4_6  and  C5_7 
REMARK       I    between atoms: C5_7  and  N2_9 
REMARK    3  A    between atoms: N2_9  and  C6_10 
REMARK    4  A    between atoms: C6_10  and  C7_11 
REMARK    5  A    between atoms: C6_10  and  C8_13 
REMARK       I    between atoms: C7_11  and  N3_14 
REMARK    6  A    between atoms: N3_14  and  C9_15 
REMARK    7  A    between atoms: C9_15  and  C10_16 
REMARK    8  A    between atoms: C9_15  and  C11_18 
REMARK       I    between atoms: C10_16  and  N4_21 
REMARK    9  A    between atoms: C11_18  and  C12_19 
REMARK   10  A    between atoms: C11_18  and  C13_20 
REMARK   11  A    between atoms: N4_21  and  C14_22 
REMARK   12  A    between atoms: C14_22  and  C15_23 
REMARK   13  A    between atoms: C14_22  and  C16_25 
REMARK       I    between atoms: C15_23  and  N6_40 
REMARK   14  A    between atoms: C16_25  and  C17_26 
REMARK   15  A    between atoms: C17_26  and  C18_27 
REMARK   16  A    between atoms: C17_26  and  C19_28 
REMARK   17  A    between atoms: C20_29  and  C21_30 
REMARK   18  A    between atoms: C20_29  and  C24_33 
REMARK   19  A    between atoms: C20_29  and  N6_40 
REMARK   20  A    between atoms: C21_30  and  C22_31 
REMARK   21  A    between atoms: C22_31  and  C23_32 
REMARK   22  A    between atoms: C23_32  and  O8_43 
REMARK   23  A    between atoms: C24_33  and  C25_34 
REMARK   24  A    between atoms: C28_38  and  O6_39 
REMARK   25  A    between atoms: C29_42  and  O8_43 
REMARK   26  A    between atoms: C29_42  and  C35_49 
ROOT
ATOM      1  C14 non d ame     -31.840   8.898  24.533  0.00  0.00     0.089 C 
ATOM      2  H20 non d ame     -30.922   8.353  24.752  0.00  0.00     0.087 H 
ENDROOT
BRANCH   1   3
ATOM      3  N4  non d ame     -32.896   7.916  24.337  0.00  0.00    -0.346 N 
ATOM      4  C10 non d ame     -32.709   6.493  24.802  0.00  0.00     0.241 C 
ATOM      5  O4  non d ame     -31.698   6.162  25.327  0.00  0.00    -0.271 OA
ATOM      6  H19 non d ame     -33.748   8.218  23.886  0.00  0.00     0.163 HD
BRANCH   4   7
ATOM      7  C9  non d ame     -33.815   5.492  24.596  0.00  0.00     0.092 C 
ATOM      8  H11 non d ame     -33.388   4.489  24.556  0.00  0.00     0.088 H 
BRANCH   7   9
ATOM      9  N3  non d ame     -34.728   5.529  25.742  0.00  0.00    -0.346 N 
ATOM     10  C7  non d ame     -34.547   4.610  26.838  0.00  0.00     0.240 C 
ATOM     11  O3  non d ame     -33.672   3.832  26.814  0.00  0.00    -0.271 OA
ATOM     12  H10 non d ame     -35.488   6.193  25.776  0.00  0.00     0.163 HD
BRANCH  10  13
ATOM     13  C6  non d ame     -35.524   4.652  28.054  0.00  0.00     0.086 C 
ATOM     14  H6  non d ame     -35.174   4.057  28.897  0.00  0.00     0.086 H 
BRANCH  13  15
ATOM     15  N2  non d ame     -35.628   6.023  28.527  0.00  0.00    -0.343 N 
ATOM     16  C5  non d ame     -35.120   6.367  29.858  0.00  0.00     0.273 C 
ATOM     17  O2  non d ame     -34.633   5.533  30.540  0.00  0.00    -0.266 OA
ATOM     18  H5  non d ame     -36.049   6.728  27.939  0.00  0.00     0.163 HD
BRANCH  16  19
ATOM     19  C4  non d ame     -35.222   7.811  30.370  0.00  0.00     0.154 A 
ATOM     20  C1  non d ame     -35.055   8.265  31.717  0.00  0.00    -0.017 A 
ATOM     21  C2  non d ame     -35.246   9.664  31.656  0.00  0.00     0.077 A 
ATOM     22  H1  non d ame     -34.831   7.672  32.603  0.00  0.00     0.091 H 
ATOM     23  O1  non d ame     -35.490   9.967  30.414  0.00  0.00    -0.218 OA
ATOM     24  N1  non d ame     -35.482   8.903  29.646  0.00  0.00    -0.123 NA
BRANCH  21  25
ATOM     25  C3  non d ame     -35.177  10.635  32.827  0.00  0.00    -0.029 C 
ATOM     26  H2  non d ame     -34.325  10.384  33.458  0.00  0.00     0.036 H 
ATOM     27  H3  non d ame     -35.063  11.651  32.450  0.00  0.00     0.036 H 
ATOM     28  H4  non d ame     -36.094  10.566  33.411  0.00  0.00     0.036 H 
ENDBRANCH  21  25
ENDBRANCH  16  19
ENDBRANCH  13  15
BRANCH  13  29
ATOM     29  C8  non d ame     -36.881   4.149  27.630  0.00  0.00    -0.049 C 
ATOM     30  H7  non d ame     -36.964   3.088  27.862  0.00  0.00     0.030 H 
ATOM     31  H8  non d ame     -37.655   4.699  28.165  0.00  0.00     0.030 H 
ATOM     32  H9  non d ame     -37.004   4.298  26.557  0.00  0.00     0.030 H 
ENDBRANCH  13  29
ENDBRANCH  10  13
ENDBRANCH   7   9
BRANCH   7  33
ATOM     33  C11 non d ame     -34.599   5.845  23.299  0.00  0.00    -0.033 C 
ATOM     34  H12 non d ame     -34.251   6.821  22.961  0.00  0.00     0.042 H 
BRANCH  33  35
ATOM     35  C12 non d ame     -34.304   4.821  22.159  0.00  0.00    -0.071 C 
ATOM     36  H13 non d ame     -33.235   4.810  21.947  0.00  0.00     0.028 H 
ATOM     37  H14 non d ame     -34.622   3.827  22.473  0.00  0.00     0.028 H 
ATOM     38  H15 non d ame     -34.849   5.110  21.260  0.00  0.00     0.028 H 
ENDBRANCH  33  35
BRANCH  33  39
ATOM     39  C13 non d ame     -36.132   5.950  23.583  0.00  0.00    -0.071 C 
ATOM     40  H16 non d ame     -36.373   6.962  23.909  0.00  0.00     0.028 H 
ATOM     41  H17 non d ame     -36.687   5.719  22.673  0.00  0.00     0.028 H 
ATOM     42  H18 non d ame     -36.406   5.242  24.364  0.00  0.00     0.028 H 
ENDBRANCH  33  39
ENDBRANCH   7  33
ENDBRANCH   4   7
ENDBRANCH   1   3
BRANCH   1  43
ATOM     43  C15 non d ame     -32.254   9.845  25.695  0.00  0.00     0.240 C 
ATOM     44  O5  non d ame     -32.421   9.404  26.786  0.00  0.00    -0.271 OA
ATOM     45  N6  non d ame     -32.432  11.305  25.451  0.00  0.00    -0.355 N 
ATOM     46  H46 non d ame     -32.287  11.692  24.529  0.00  0.00     0.162 HD
BRANCH  45  47
ATOM     47  C20 non d ame     -32.823  12.194  26.567  0.00  0.00     0.013 C 
ATOM     48  H30 non d ame     -33.364  11.594  27.299  0.00  0.00     0.072 H 
BRANCH  47  49
ATOM     49  C21 non d ame     -33.716  13.294  26.039  0.00  0.00    -0.038 C 
ATOM     50  H31 non d ame     -33.570  13.299  24.958  0.00  0.00     0.036 H 
ATOM     51  H32 non d ame     -34.704  13.096  26.455  0.00  0.00     0.036 H 
BRANCH  49  52
ATOM     52  C22 non d ame     -33.303  14.694  26.542  0.00  0.00     0.018 C 
ATOM     53  H33 non d ame     -33.925  14.890  27.414  0.00  0.00     0.048 H 
ATOM     54  H34 non d ame     -32.217  14.662  26.643  0.00  0.00     0.048 H 
BRANCH  52  55
ATOM     55  C23 non d ame     -33.606  15.836  25.533  0.00  0.00     0.259 C 
ATOM     56  O7  non d ame     -34.727  16.153  25.299  0.00  0.00    -0.265 OA
BRANCH  55  57
ATOM     57  O8  non d ame     -32.526  16.493  24.879  0.00  0.00    -0.317 OA
BRANCH  57  58
ATOM     58  C29 non d ame     -31.275  15.808  24.992  0.00  0.00     0.052 C 
ATOM     59  H47 non d ame     -30.637  16.457  25.590  0.00  0.00     0.082 H 
ATOM     60  H48 non d ame     -31.518  14.806  25.345  0.00  0.00     0.082 H 
BRANCH  58  61
ATOM     61  C35 non d ame     -30.662  15.692  23.570  0.00  0.00    -0.034 A 
ATOM     62  C30 non d ame     -31.367  16.164  22.468  0.00  0.00    -0.075 A 
ATOM     63  C31 non d ame     -30.817  16.060  21.190  0.00  0.00    -0.082 A 
ATOM     64  H49 non d ame     -32.351  16.614  22.603  0.00  0.00     0.084 H 
ATOM     65  C32 non d ame     -29.557  15.479  21.019  0.00  0.00    -0.083 A 
ATOM     66  H50 non d ame     -31.372  16.431  20.328  0.00  0.00     0.083 H 
ATOM     67  C33 non d ame     -28.859  15.008  22.122  0.00  0.00    -0.082 A 
ATOM     68  H51 non d ame     -29.120  15.395  20.024  0.00  0.00     0.083 H 
ATOM     69  C34 non d ame     -29.404  15.111  23.400  0.00  0.00    -0.075 A 
ATOM     70  H52 non d ame     -27.877  14.553  21.984  0.00  0.00     0.083 H 
ATOM     71  H53 non d ame     -28.849  14.739  24.261  0.00  0.00     0.084 H 
ENDBRANCH  58  61
ENDBRANCH  57  58
ENDBRANCH  55  57
ENDBRANCH  52  55
ENDBRANCH  49  52
ENDBRANCH  47  49
BRANCH  47  72
ATOM     72  C24 non d ame     -31.577  12.807  27.201  0.00  0.00    -0.039 C 
ATOM     73  H35 non d ame     -30.761  12.582  26.512  0.00  0.00     0.036 H 
ATOM     74  H36 non d ame     -31.840  13.843  27.413  0.00  0.00     0.036 H 
BRANCH  72  75
ATOM     75  C25 non d ame     -31.221  12.114  28.600  0.00  0.00    -0.001 C 
ATOM     76  C26 non d ame     -32.603  11.728  29.401  0.00  0.00    -0.035 C 
ATOM     77  C27 non d ame     -32.531  12.221  30.660  0.00  0.00     0.085 C 
ATOM     78  H38 non d ame     -33.449  12.261  28.966  0.00  0.00     0.036 H 
ATOM     79  H39 non d ame     -32.659  10.650  29.553  0.00  0.00     0.036 H 
ATOM     80  N5  non d ame     -31.372  13.188  30.689  0.00  0.00    -0.049 N 
ATOM     81  H40 non d ame     -33.459  12.775  30.810  0.00  0.00     0.075 H 
ATOM     82  H41 non d ame     -32.297  11.367  31.295  0.00  0.00     0.075 H 
ATOM     83  C28 non d ame     -30.521  12.901  29.347  0.00  0.00     0.193 C 
ATOM     84  H42 non d ame     -31.769  14.114  30.626  0.00  0.00     0.280 HD
ATOM     85  H43 non d ame     -30.808  12.934  31.488  0.00  0.00     0.280 HD
ATOM     86  H44 non d ame     -29.583  12.349  29.393  0.00  0.00     0.129 H 
ATOM     87  H37 non d ame     -30.473  11.328  28.493  0.00  0.00     0.046 H 
BRANCH  83  88
ATOM     88  O6  non d ame     -30.207  14.131  28.690  0.00  0.00    -0.369 OA
ATOM     89  H45 non d ame     -29.858  14.756  29.329  0.00  0.00     0.212 HD
ENDBRANCH  83  88
ENDBRANCH  72  75
ENDBRANCH  47  72
ENDBRANCH  45  47
ENDBRANCH   1  43
BRANCH   1  90
ATOM     90  C16 non d ame     -31.669   9.702  23.254  0.00  0.00    -0.035 C 
ATOM     91  H21 non d ame     -32.004   9.046  22.452  0.00  0.00     0.037 H 
ATOM     92  H22 non d ame     -32.182  10.646  23.436  0.00  0.00     0.037 H 
BRANCH  90  93
ATOM     93  C17 non d ame     -30.183  10.062  22.934  0.00  0.00    -0.059 C 
ATOM     94  H23 non d ame     -29.610   9.954  23.855  0.00  0.00     0.038 H 
BRANCH  93  95
ATOM     95  C18 non d ame     -29.560   9.103  21.870  0.00  0.00    -0.073 C 
ATOM     96  H24 non d ame     -30.171   9.117  20.967  0.00  0.00     0.028 H 
ATOM     97  H25 non d ame     -28.550   9.434  21.629  0.00  0.00     0.028 H 
ATOM     98  H26 non d ame     -29.525   8.090  22.269  0.00  0.00     0.028 H 
ENDBRANCH  93  95
BRANCH  93  99
ATOM     99  C19 non d ame     -30.057  11.522  22.491  0.00  0.00    -0.073 C 
ATOM    100  H27 non d ame     -29.013  11.832  22.550  0.00  0.00     0.028 H 
ATOM    101  H28 non d ame     -30.407  11.621  21.463  0.00  0.00     0.028 H 
ATOM    102  H29 non d ame     -30.661  12.153  23.142  0.00  0.00     0.028 H 
ENDBRANCH  93  99
ENDBRANCH  90  93
ENDBRANCH   1  90
TORSDOF 26
ENDMDL
MODEL 11
REMARK VINA RESULT:      -6.5      3.072      9.056
REMARK  26 active torsions:
REMARK  status: ('A' for Active; 'I' for Inactive)
REMARK    1  A    between atoms: C2_2  and  C3_3 
REMARK    2  A    between atoms: C4_6  and  C5_7 
REMARK       I    between atoms: C5_7  and  N2_9 
REMARK    3  A    between atoms: N2_9  and  C6_10 
REMARK    4  A    between atoms: C6_10  and  C7_11 
REMARK    5  A    between atoms: C6_10  and  C8_13 
REMARK       I    between atoms: C7_11  and  N3_14 
REMARK    6  A    between atoms: N3_14  and  C9_15 
REMARK    7  A    between atoms: C9_15  and  C10_16 
REMARK    8  A    between atoms: C9_15  and  C11_18 
REMARK       I    between atoms: C10_16  and  N4_21 
REMARK    9  A    between atoms: C11_18  and  C12_19 
REMARK   10  A    between atoms: C11_18  and  C13_20 
REMARK   11  A    between atoms: N4_21  and  C14_22 
REMARK   12  A    between atoms: C14_22  and  C15_23 
REMARK   13  A    between atoms: C14_22  and  C16_25 
REMARK       I    between atoms: C15_23  and  N6_40 
REMARK   14  A    between atoms: C16_25  and  C17_26 
REMARK   15  A    between atoms: C17_26  and  C18_27 
REMARK   16  A    between atoms: C17_26  and  C19_28 
REMARK   17  A    between atoms: C20_29  and  C21_30 
REMARK   18  A    between atoms: C20_29  and  C24_33 
REMARK   19  A    between atoms: C20_29  and  N6_40 
REMARK   20  A    between atoms: C21_30  and  C22_31 
REMARK   21  A    between atoms: C22_31  and  C23_32 
REMARK   22  A    between atoms: C23_32  and  O8_43 
REMARK   23  A    between atoms: C24_33  and  C25_34 
REMARK   24  A    between atoms: C28_38  and  O6_39 
REMARK   25  A    between atoms: C29_42  and  O8_43 
REMARK   26  A    between atoms: C29_42  and  C35_49 
ROOT
ATOM      1  C14 non d ame     -33.706   6.999  27.831  0.00  0.00     0.089 C 
ATOM      2  H20 non d ame     -33.172   6.628  28.707  0.00  0.00     0.087 H 
ENDROOT
BRANCH   1   3
ATOM      3  N4  non d ame     -34.258   8.301  28.174  0.00  0.00    -0.346 N 
ATOM      4  C10 non d ame     -34.821   8.551  29.551  0.00  0.00     0.241 C 
ATOM      5  O4  non d ame     -34.821   7.688  30.365  0.00  0.00    -0.271 OA
ATOM      6  H19 non d ame     -34.250   9.022  27.466  0.00  0.00     0.163 HD
BRANCH   4   7
ATOM      7  C9  non d ame     -35.382   9.907  29.890  0.00  0.00     0.092 C 
ATOM      8  H11 non d ame     -35.494   9.989  30.972  0.00  0.00     0.088 H 
BRANCH   7   9
ATOM      9  N3  non d ame     -34.438  10.946  29.472  0.00  0.00    -0.346 N 
ATOM     10  C7  non d ame     -33.284  11.241  30.286  0.00  0.00     0.240 C 
ATOM     11  O3  non d ame     -33.101  10.653  31.281  0.00  0.00    -0.271 OA
ATOM     12  H10 non d ame     -34.583  11.464  28.618  0.00  0.00     0.163 HD
BRANCH  10  13
ATOM     13  C6  non d ame     -32.283  12.352  29.837  0.00  0.00     0.086 C 
ATOM     14  H6  non d ame     -31.768  12.104  28.909  0.00  0.00     0.086 H 
BRANCH  13  15
ATOM     15  N2  non d ame     -33.022  13.578  29.587  0.00  0.00    -0.343 N 
ATOM     16  C5  non d ame     -32.421  14.627  28.760  0.00  0.00     0.273 C 
ATOM     17  O2  non d ame     -31.342  14.474  28.302  0.00  0.00    -0.266 OA
ATOM     18  H5  non d ame     -33.942  13.702  29.986  0.00  0.00     0.163 HD
BRANCH  16  19
ATOM     19  C4  non d ame     -33.191  15.928  28.487  0.00  0.00     0.154 A 
ATOM     20  C1  non d ame     -34.510  16.055  27.946  0.00  0.00    -0.017 A 
ATOM     21  C2  non d ame     -34.750  17.447  27.896  0.00  0.00     0.077 A 
ATOM     22  H1  non d ame     -35.188  15.261  27.637  0.00  0.00     0.091 H 
ATOM     23  O1  non d ame     -33.687  18.040  28.358  0.00  0.00    -0.218 OA
ATOM     24  N1  non d ame     -32.764  17.174  28.709  0.00  0.00    -0.123 NA
BRANCH  21  25
ATOM     25  C3  non d ame     -36.017  18.126  27.395  0.00  0.00    -0.029 C 
ATOM     26  H2  non d ame     -36.224  17.803  26.374  0.00  0.00     0.036 H 
ATOM     27  H3  non d ame     -36.854  17.852  28.037  0.00  0.00     0.036 H 
ATOM     28  H4  non d ame     -35.883  19.206  27.413  0.00  0.00     0.036 H 
ENDBRANCH  21  25
ENDBRANCH  16  19
ENDBRANCH  13  15
BRANCH  13  29
ATOM     29  C8  non d ame     -31.259  12.577  30.920  0.00  0.00    -0.049 C 
ATOM     30  H7  non d ame     -31.431  11.873  31.735  0.00  0.00     0.030 H 
ATOM     31  H8  non d ame     -30.260  12.423  30.512  0.00  0.00     0.030 H 
ATOM     32  H9  non d ame     -31.345  13.596  31.296  0.00  0.00     0.030 H 
ENDBRANCH  13  29
ENDBRANCH  10  13
ENDBRANCH   7   9
BRANCH   7  33
ATOM     33  C11 non d ame     -36.735  10.108  29.146  0.00  0.00    -0.033 C 
ATOM     34  H12 non d ame     -37.038   9.139  28.750  0.00  0.00     0.042 H 
BRANCH  33  35
ATOM     35  C12 non d ame     -37.855  10.589  30.121  0.00  0.00    -0.071 C 
ATOM     36  H13 non d ame     -38.021  11.657  29.985  0.00  0.00     0.028 H 
ATOM     37  H14 non d ame     -38.777  10.048  29.908  0.00  0.00     0.028 H 
ATOM     38  H15 non d ame     -37.549  10.397  31.149  0.00  0.00     0.028 H 
ENDBRANCH  33  35
BRANCH  33  39
ATOM     39  C13 non d ame     -36.570  11.092  27.943  0.00  0.00    -0.071 C 
ATOM     40  H16 non d ame     -35.517  11.349  27.825  0.00  0.00     0.028 H 
ATOM     41  H17 non d ame     -36.933  10.615  27.032  0.00  0.00     0.028 H 
ATOM     42  H18 non d ame     -37.147  11.996  28.132  0.00  0.00     0.028 H 
ENDBRANCH  33  39
ENDBRANCH   7  33
ENDBRANCH   4   7
ENDBRANCH   1   3
BRANCH   1  43
ATOM     43  C15 non d ame     -32.770   7.166  26.600  0.00  0.00     0.240 C 
ATOM     44  O5  non d ame     -31.798   6.490  26.501  0.00  0.00    -0.271 OA
ATOM     45  N6  non d ame     -33.091   8.162  25.540  0.00  0.00    -0.355 N 
ATOM     46  H46 non d ame     -33.918   8.739  25.611  0.00  0.00     0.162 HD
BRANCH  45  47
ATOM     47  C20 non d ame     -32.193   8.309  24.373  0.00  0.00     0.013 C 
ATOM     48  H30 non d ame     -31.206   7.947  24.664  0.00  0.00     0.072 H 
BRANCH  47  49
ATOM     49  C21 non d ame     -32.114   9.767  23.983  0.00  0.00    -0.038 C 
ATOM     50  H31 non d ame     -31.455   9.804  23.114  0.00  0.00     0.036 H 
ATOM     51  H32 non d ame     -33.147  10.105  23.898  0.00  0.00     0.036 H 
BRANCH  49  52
ATOM     52  C22 non d ame     -31.455  10.644  25.068  0.00  0.00     0.018 C 
ATOM     53  H33 non d ame     -31.186   9.964  25.875  0.00  0.00     0.048 H 
ATOM     54  H34 non d ame     -30.679  11.214  24.555  0.00  0.00     0.048 H 
BRANCH  52  55
ATOM     55  C23 non d ame     -32.414  11.694  25.694  0.00  0.00     0.259 C 
ATOM     56  O7  non d ame     -33.169  11.382  26.558  0.00  0.00    -0.265 OA
BRANCH  55  57
ATOM     57  O8  non d ame     -32.392  13.033  25.213  0.00  0.00    -0.317 OA
BRANCH  57  58
ATOM     58  C29 non d ame     -31.088  13.620  25.189  0.00  0.00     0.052 C 
ATOM     59  H47 non d ame     -31.134  14.469  25.872  0.00  0.00     0.082 H 
ATOM     60  H48 non d ame     -30.392  12.804  25.380  0.00  0.00     0.082 H 
BRANCH  58  61
ATOM     61  C35 non d ame     -30.831  14.158  23.756  0.00  0.00    -0.034 A 
ATOM     62  C30 non d ame     -30.056  13.422  22.865  0.00  0.00    -0.075 A 
ATOM     63  C31 non d ame     -29.824  13.905  21.577  0.00  0.00    -0.082 A 
ATOM     64  H49 non d ame     -29.629  12.469  23.175  0.00  0.00     0.084 H 
ATOM     65  C32 non d ame     -30.370  15.130  21.183  0.00  0.00    -0.083 A 
ATOM     66  H50 non d ame     -29.217  13.325  20.881  0.00  0.00     0.083 H 
ATOM     67  C33 non d ame     -31.140  15.862  22.076  0.00  0.00    -0.082 A 
ATOM     68  H51 non d ame     -30.194  15.513  20.178  0.00  0.00     0.083 H 
ATOM     69  C34 non d ame     -31.375  15.382  23.363  0.00  0.00    -0.075 A 
ATOM     70  H52 non d ame     -31.562  16.818  21.766  0.00  0.00     0.083 H 
ATOM     71  H53 non d ame     -31.982  15.962  24.059  0.00  0.00     0.084 H 
ENDBRANCH  58  61
ENDBRANCH  57  58
ENDBRANCH  55  57
ENDBRANCH  52  55
ENDBRANCH  49  52
ENDBRANCH  47  49
BRANCH  47  72
ATOM     72  C24 non d ame     -32.732   7.494  23.200  0.00  0.00    -0.039 C 
ATOM     73  H35 non d ame     -33.790   7.339  23.417  0.00  0.00     0.036 H 
ATOM     74  H36 non d ame     -32.434   8.041  22.306  0.00  0.00     0.036 H 
BRANCH  72  75
ATOM     75  C25 non d ame     -32.048   6.048  23.118  0.00  0.00    -0.001 C 
ATOM     76  C26 non d ame     -31.486   5.780  21.597  0.00  0.00    -0.035 C 
ATOM     77  C27 non d ame     -31.952   4.585  21.163  0.00  0.00     0.085 C 
ATOM     78  H38 non d ame     -31.929   6.494  20.903  0.00  0.00     0.036 H 
ATOM     79  H39 non d ame     -30.405   5.640  21.617  0.00  0.00     0.036 H 
ATOM     80  N5  non d ame     -33.044   4.165  22.116  0.00  0.00    -0.049 N 
ATOM     81  H40 non d ame     -32.391   4.781  20.184  0.00  0.00     0.075 H 
ATOM     82  H41 non d ame     -31.114   3.894  21.255  0.00  0.00     0.075 H 
ATOM     83  C28 non d ame     -32.892   5.114  23.413  0.00  0.00     0.193 C 
ATOM     84  H42 non d ame     -33.920   4.379  21.662  0.00  0.00     0.280 HD
ATOM     85  H43 non d ame     -32.836   3.214  22.388  0.00  0.00     0.280 HD
ATOM     86  H44 non d ame     -32.450   4.731  24.331  0.00  0.00     0.129 H 
ATOM     87  H37 non d ame     -31.357   5.871  23.941  0.00  0.00     0.046 H 
BRANCH  83  88
ATOM     88  O6  non d ame     -34.166   5.639  23.792  0.00  0.00    -0.369 OA
ATOM     89  H45 non d ame     -34.262   6.529  23.445  0.00  0.00     0.212 HD
ENDBRANCH  83  88
ENDBRANCH  72  75
ENDBRANCH  47  72
ENDBRANCH  45  47
ENDBRANCH   1  43
BRANCH   1  90
ATOM     90  C16 non d ame     -34.844   6.054  27.484  0.00  0.00    -0.035 C 
ATOM     91  H21 non d ame     -35.715   6.445  28.008  0.00  0.00     0.037 H 
ATOM     92  H22 non d ame     -34.847   5.992  26.396  0.00  0.00     0.037 H 
BRANCH  90  93
ATOM     93  C17 non d ame     -34.633   4.598  28.008  0.00  0.00    -0.059 C 
ATOM     94  H23 non d ame     -35.586   4.245  28.401  0.00  0.00     0.038 H 
BRANCH  93  95
ATOM     95  C18 non d ame     -34.195   3.620  26.871  0.00  0.00    -0.073 C 
ATOM     96  H24 non d ame     -33.201   3.230  27.089  0.00  0.00     0.028 H 
ATOM     97  H25 non d ame     -34.903   2.793  26.809  0.00  0.00     0.028 H 
ATOM     98  H26 non d ame     -34.175   4.153  25.920  0.00  0.00     0.028 H 
ENDBRANCH  93  95
BRANCH  93  99
ATOM     99  C19 non d ame     -33.628   4.573  29.163  0.00  0.00    -0.073 C 
ATOM    100  H27 non d ame     -32.945   5.418  29.069  0.00  0.00     0.028 H 
ATOM    101  H28 non d ame     -34.162   4.643  30.111  0.00  0.00     0.028 H 
ATOM    102  H29 non d ame     -33.063   3.643  29.133  0.00  0.00     0.028 H 
ENDBRANCH  93  99
ENDBRANCH  90  93
ENDBRANCH   1  90
TORSDOF 26
ENDMDL
MODEL 12
REMARK VINA RESULT:      -6.5      2.657      7.101
REMARK  26 active torsions:
REMARK  status: ('A' for Active; 'I' for Inactive)
REMARK    1  A    between atoms: C2_2  and  C3_3 
REMARK    2  A    between atoms: C4_6  and  C5_7 
REMARK       I    between atoms: C5_7  and  N2_9 
REMARK    3  A    between atoms: N2_9  and  C6_10 
REMARK    4  A    between atoms: C6_10  and  C7_11 
REMARK    5  A    between atoms: C6_10  and  C8_13 
REMARK       I    between atoms: C7_11  and  N3_14 
REMARK    6  A    between atoms: N3_14  and  C9_15 
REMARK    7  A    between atoms: C9_15  and  C10_16 
REMARK    8  A    between atoms: C9_15  and  C11_18 
REMARK       I    between atoms: C10_16  and  N4_21 
REMARK    9  A    between atoms: C11_18  and  C12_19 
REMARK   10  A    between atoms: C11_18  and  C13_20 
REMARK   11  A    between atoms: N4_21  and  C14_22 
REMARK   12  A    between atoms: C14_22  and  C15_23 
REMARK   13  A    between atoms: C14_22  and  C16_25 
REMARK       I    between atoms: C15_23  and  N6_40 
REMARK   14  A    between atoms: C16_25  and  C17_26 
REMARK   15  A    between atoms: C17_26  and  C18_27 
REMARK   16  A    between atoms: C17_26  and  C19_28 
REMARK   17  A    between atoms: C20_29  and  C21_30 
REMARK   18  A    between atoms: C20_29  and  C24_33 
REMARK   19  A    between atoms: C20_29  and  N6_40 
REMARK   20  A    between atoms: C21_30  and  C22_31 
REMARK   21  A    between atoms: C22_31  and  C23_32 
REMARK   22  A    between atoms: C23_32  and  O8_43 
REMARK   23  A    between atoms: C24_33  and  C25_34 
REMARK   24  A    between atoms: C28_38  and  O6_39 
REMARK   25  A    between atoms: C29_42  and  O8_43 
REMARK   26  A    between atoms: C29_42  and  C35_49 
ROOT
ATOM      1  C14 non d ame     -30.821  13.443  24.331  0.00  0.00     0.089 C 
ATOM      2  H20 non d ame     -29.766  13.399  24.603  0.00  0.00     0.087 H 
ENDROOT
BRANCH   1   3
ATOM      3  N4  non d ame     -31.204  12.123  23.853  0.00  0.00    -0.346 N 
ATOM      4  C10 non d ame     -31.116  10.926  24.767  0.00  0.00     0.241 C 
ATOM      5  O4  non d ame     -30.730  11.049  25.882  0.00  0.00    -0.271 OA
ATOM      6  H19 non d ame     -31.529  12.039  22.900  0.00  0.00     0.163 HD
BRANCH   4   7
ATOM      7  C9  non d ame     -31.523   9.569  24.257  0.00  0.00     0.092 C 
ATOM      8  H11 non d ame     -30.892   8.808  24.717  0.00  0.00     0.088 H 
BRANCH   7   9
ATOM      9  N3  non d ame     -32.904   9.288  24.660  0.00  0.00    -0.346 N 
ATOM     10  C7  non d ame     -33.201   8.118  25.449  0.00  0.00     0.240 C 
ATOM     11  O3  non d ame     -32.341   7.390  25.766  0.00  0.00    -0.271 OA
ATOM     12  H10 non d ame     -33.657   9.906  24.393  0.00  0.00     0.163 HD
BRANCH  10  13
ATOM     13  C6  non d ame     -34.673   7.823  25.873  0.00  0.00     0.086 C 
ATOM     14  H6  non d ame     -34.940   6.771  25.767  0.00  0.00     0.086 H 
BRANCH  13  15
ATOM     15  N2  non d ame     -34.833   8.152  27.279  0.00  0.00    -0.343 N 
ATOM     16  C5  non d ame     -34.847   7.078  28.275  0.00  0.00     0.273 C 
ATOM     17  O2  non d ame     -34.731   5.953  27.934  0.00  0.00    -0.266 OA
ATOM     18  H5  non d ame     -34.936   9.117  27.561  0.00  0.00     0.163 HD
BRANCH  16  19
ATOM     19  C4  non d ame     -35.014   7.412  29.765  0.00  0.00     0.154 A 
ATOM     20  C1  non d ame     -35.274   8.697  30.340  0.00  0.00    -0.017 A 
ATOM     21  C2  non d ame     -35.338   8.467  31.732  0.00  0.00     0.077 A 
ATOM     22  H1  non d ame     -35.397   9.650  29.826  0.00  0.00     0.091 H 
ATOM     23  O1  non d ame     -35.140   7.195  31.924  0.00  0.00    -0.218 OA
ATOM     24  N1  non d ame     -34.947   6.560  30.791  0.00  0.00    -0.123 NA
BRANCH  21  25
ATOM     25  C3  non d ame     -35.594   9.513  32.808  0.00  0.00    -0.029 C 
ATOM     26  H2  non d ame     -35.810   9.017  33.755  0.00  0.00     0.036 H 
ATOM     27  H3  non d ame     -34.711  10.142  32.922  0.00  0.00     0.036 H 
ATOM     28  H4  non d ame     -36.445  10.130  32.520  0.00  0.00     0.036 H 
ENDBRANCH  21  25
ENDBRANCH  16  19
ENDBRANCH  13  15
BRANCH  13  29
ATOM     29  C8  non d ame     -35.616   8.652  25.037  0.00  0.00    -0.049 C 
ATOM     30  H7  non d ame     -35.956   8.067  24.184  0.00  0.00     0.030 H 
ATOM     31  H8  non d ame     -36.474   8.945  25.642  0.00  0.00     0.030 H 
ATOM     32  H9  non d ame     -35.099   9.544  24.684  0.00  0.00     0.030 H 
ENDBRANCH  13  29
ENDBRANCH  10  13
ENDBRANCH   7   9
BRANCH   7  33
ATOM     33  C11 non d ame     -31.425   9.548  22.704  0.00  0.00    -0.033 C 
ATOM     34  H12 non d ame     -31.661  10.551  22.346  0.00  0.00     0.042 H 
BRANCH  33  35
ATOM     35  C12 non d ame     -29.977   9.210  22.229  0.00  0.00    -0.071 C 
ATOM     36  H13 non d ame     -29.266   9.477  23.012  0.00  0.00     0.028 H 
ATOM     37  H14 non d ame     -29.903   8.143  22.020  0.00  0.00     0.028 H 
ATOM     38  H15 non d ame     -29.749   9.774  21.325  0.00  0.00     0.028 H 
ENDBRANCH  33  35
BRANCH  33  39
ATOM     39  C13 non d ame     -32.467   8.559  22.090  0.00  0.00    -0.071 C 
ATOM     40  H16 non d ame     -32.247   7.545  22.424  0.00  0.00     0.028 H 
ATOM     41  H17 non d ame     -33.470   8.839  22.415  0.00  0.00     0.028 H 
ATOM     42  H18 non d ame     -32.414   8.603  21.003  0.00  0.00     0.028 H 
ENDBRANCH  33  39
ENDBRANCH   7  33
ENDBRANCH   4   7
ENDBRANCH   1   3
BRANCH   1  43
ATOM     43  C15 non d ame     -31.725  13.814  25.540  0.00  0.00     0.240 C 
ATOM     44  O5  non d ame     -32.902  13.675  25.463  0.00  0.00    -0.271 OA
ATOM     45  N6  non d ame     -31.122  14.335  26.800  0.00  0.00    -0.355 N 
ATOM     46  H46 non d ame     -30.121  14.452  26.879  0.00  0.00     0.162 HD
BRANCH  45  47
ATOM     47  C20 non d ame     -31.994  14.682  27.943  0.00  0.00     0.013 C 
ATOM     48  H30 non d ame     -32.942  14.159  27.812  0.00  0.00     0.072 H 
BRANCH  47  49
ATOM     49  C21 non d ame     -32.227  16.176  27.958  0.00  0.00    -0.038 C 
ATOM     50  H31 non d ame     -32.711  16.389  28.913  0.00  0.00     0.036 H 
ATOM     51  H32 non d ame     -31.263  16.626  27.724  0.00  0.00     0.036 H 
BRANCH  49  52
ATOM     52  C22 non d ame     -33.206  16.642  26.860  0.00  0.00     0.018 C 
ATOM     53  H33 non d ame     -33.026  15.989  26.007  0.00  0.00     0.048 H 
ATOM     54  H34 non d ame     -34.190  16.663  27.331  0.00  0.00     0.048 H 
BRANCH  52  55
ATOM     55  C23 non d ame     -32.941  18.087  26.356  0.00  0.00     0.259 C 
ATOM     56  O7  non d ame     -31.953  18.666  26.674  0.00  0.00    -0.265 OA
BRANCH  55  57
ATOM     57  O8  non d ame     -33.902  18.722  25.520  0.00  0.00    -0.317 OA
BRANCH  57  58
ATOM     58  C29 non d ame     -35.234  18.228  25.688  0.00  0.00     0.052 C 
ATOM     59  H47 non d ame     -35.591  17.997  24.685  0.00  0.00     0.082 H 
ATOM     60  H48 non d ame     -35.165  17.440  26.438  0.00  0.00     0.082 H 
BRANCH  58  61
ATOM     61  C35 non d ame     -36.103  19.378  26.265  0.00  0.00    -0.034 A 
ATOM     62  C30 non d ame     -36.982  20.069  25.436  0.00  0.00    -0.075 A 
ATOM     63  C31 non d ame     -37.762  21.103  25.954  0.00  0.00    -0.082 A 
ATOM     64  H49 non d ame     -37.060  19.802  24.383  0.00  0.00     0.084 H 
ATOM     65  C32 non d ame     -37.658  21.446  27.305  0.00  0.00    -0.083 A 
ATOM     66  H50 non d ame     -38.451  21.641  25.303  0.00  0.00     0.083 H 
ATOM     67  C33 non d ame     -36.777  20.756  28.126  0.00  0.00    -0.082 A 
ATOM     68  H51 non d ame     -38.265  22.252  27.717  0.00  0.00     0.083 H 
ATOM     69  C34 non d ame     -35.997  19.721  27.613  0.00  0.00    -0.075 A 
ATOM     70  H52 non d ame     -36.696  21.027  29.179  0.00  0.00     0.083 H 
ATOM     71  H53 non d ame     -35.308  19.183  28.265  0.00  0.00     0.084 H 
ENDBRANCH  58  61
ENDBRANCH  57  58
ENDBRANCH  55  57
ENDBRANCH  52  55
ENDBRANCH  49  52
ENDBRANCH  47  49
BRANCH  47  72
ATOM     72  C24 non d ame     -31.329  14.255  29.249  0.00  0.00    -0.039 C 
ATOM     73  H35 non d ame     -30.349  14.733  29.245  0.00  0.00     0.036 H 
ATOM     74  H36 non d ame     -32.048  14.495  30.032  0.00  0.00     0.036 H 
BRANCH  72  75
ATOM     75  C25 non d ame     -31.085  12.673  29.301  0.00  0.00    -0.001 C 
ATOM     76  C26 non d ame     -32.428  11.882  28.778  0.00  0.00    -0.035 C 
ATOM     77  C27 non d ame     -32.769  10.946  29.696  0.00  0.00     0.085 C 
ATOM     78  H38 non d ame     -33.283  12.559  28.774  0.00  0.00     0.036 H 
ATOM     79  H39 non d ame     -32.194  11.295  27.890  0.00  0.00     0.036 H 
ATOM     80  N5  non d ame     -31.979  11.246  30.946  0.00  0.00    -0.049 N 
ATOM     81  H40 non d ame     -33.829  11.108  29.898  0.00  0.00     0.075 H 
ATOM     82  H41 non d ame     -32.432   9.996  29.282  0.00  0.00     0.075 H 
ATOM     83  C28 non d ame     -30.821  12.279  30.503  0.00  0.00     0.193 C 
ATOM     84  H42 non d ame     -32.609  11.720  31.577  0.00  0.00     0.280 HD
ATOM     85  H43 non d ame     -31.545  10.377  31.225  0.00  0.00     0.280 HD
ATOM     86  H44 non d ame     -29.793  11.940  30.378  0.00  0.00     0.129 H 
ATOM     87  H37 non d ame     -30.135  12.386  28.852  0.00  0.00     0.046 H 
BRANCH  83  88
ATOM     88  O6  non d ame     -30.754  13.369  31.424  0.00  0.00    -0.369 OA
ATOM     89  H45 non d ame     -30.964  14.187  30.969  0.00  0.00     0.212 HD
ENDBRANCH  83  88
ENDBRANCH  72  75
ENDBRANCH  47  72
ENDBRANCH  45  47
ENDBRANCH   1  43
BRANCH   1  90
ATOM     90  C16 non d ame     -31.022  14.453  23.212  0.00  0.00    -0.035 C 
ATOM     91  H21 non d ame     -31.967  14.180  22.743  0.00  0.00     0.037 H 
ATOM     92  H22 non d ame     -30.910  15.429  23.682  0.00  0.00     0.037 H 
BRANCH  90  93
ATOM     93  C17 non d ame     -29.936  14.373  22.092  0.00  0.00    -0.059 C 
ATOM     94  H23 non d ame     -29.787  13.322  21.849  0.00  0.00     0.038 H 
BRANCH  93  95
ATOM     95  C18 non d ame     -30.382  15.107  20.787  0.00  0.00    -0.073 C 
ATOM     96  H24 non d ame     -31.424  14.870  20.574  0.00  0.00     0.028 H 
ATOM     97  H25 non d ame     -30.276  16.184  20.921  0.00  0.00     0.028 H 
ATOM     98  H26 non d ame     -29.757  14.781  19.956  0.00  0.00     0.028 H 
ENDBRANCH  93  95
BRANCH  93  99
ATOM     99  C19 non d ame     -28.596  14.918  22.592  0.00  0.00    -0.073 C 
ATOM    100  H27 non d ame     -28.092  15.445  21.781  0.00  0.00     0.028 H 
ATOM    101  H28 non d ame     -28.768  15.608  23.419  0.00  0.00     0.028 H 
ATOM    102  H29 non d ame     -27.972  14.093  22.933  0.00  0.00     0.028 H 
ENDBRANCH  93  99
ENDBRANCH  90  93
ENDBRANCH   1  90
TORSDOF 26
ENDMDL
MODEL 13
REMARK VINA RESULT:      -6.4      3.643      8.585
REMARK  26 active torsions:
REMARK  status: ('A' for Active; 'I' for Inactive)
REMARK    1  A    between atoms: C2_2  and  C3_3 
REMARK    2  A    between atoms: C4_6  and  C5_7 
REMARK       I    between atoms: C5_7  and  N2_9 
REMARK    3  A    between atoms: N2_9  and  C6_10 
REMARK    4  A    between atoms: C6_10  and  C7_11 
REMARK    5  A    between atoms: C6_10  and  C8_13 
REMARK       I    between atoms: C7_11  and  N3_14 
REMARK    6  A    between atoms: N3_14  and  C9_15 
REMARK    7  A    between atoms: C9_15  and  C10_16 
REMARK    8  A    between atoms: C9_15  and  C11_18 
REMARK       I    between atoms: C10_16  and  N4_21 
REMARK    9  A    between atoms: C11_18  and  C12_19 
REMARK   10  A    between atoms: C11_18  and  C13_20 
REMARK   11  A    between atoms: N4_21  and  C14_22 
REMARK   12  A    between atoms: C14_22  and  C15_23 
REMARK   13  A    between atoms: C14_22  and  C16_25 
REMARK       I    between atoms: C15_23  and  N6_40 
REMARK   14  A    between atoms: C16_25  and  C17_26 
REMARK   15  A    between atoms: C17_26  and  C18_27 
REMARK   16  A    between atoms: C17_26  and  C19_28 
REMARK   17  A    between atoms: C20_29  and  C21_30 
REMARK   18  A    between atoms: C20_29  and  C24_33 
REMARK   19  A    between atoms: C20_29  and  N6_40 
REMARK   20  A    between atoms: C21_30  and  C22_31 
REMARK   21  A    between atoms: C22_31  and  C23_32 
REMARK   22  A    between atoms: C23_32  and  O8_43 
REMARK   23  A    between atoms: C24_33  and  C25_34 
REMARK   24  A    between atoms: C28_38  and  O6_39 
REMARK   25  A    between atoms: C29_42  and  O8_43 
REMARK   26  A    between atoms: C29_42  and  C35_49 
ROOT
ATOM      1  C14 non d ame     -32.466  12.852  27.917  0.00  0.00     0.089 C 
ATOM      2  H20 non d ame     -33.283  13.171  28.564  0.00  0.00     0.087 H 
ENDROOT
BRANCH   1   3
ATOM      3  N4  non d ame     -32.990  11.828  27.024  0.00  0.00    -0.346 N 
ATOM      4  C10 non d ame     -32.058  11.038  26.140  0.00  0.00     0.241 C 
ATOM      5  O4  non d ame     -30.891  11.246  26.161  0.00  0.00    -0.271 OA
ATOM      6  H19 non d ame     -33.988  11.668  27.020  0.00  0.00     0.163 HD
BRANCH   4   7
ATOM      7  C9  non d ame     -32.618   9.979  25.227  0.00  0.00     0.092 C 
ATOM      8  H11 non d ame     -33.147  10.458  24.403  0.00  0.00     0.088 H 
BRANCH   7   9
ATOM      9  N3  non d ame     -31.519   9.204  24.646  0.00  0.00    -0.346 N 
ATOM     10  C7  non d ame     -31.478   8.967  23.223  0.00  0.00     0.240 C 
ATOM     11  O3  non d ame     -32.323   9.392  22.533  0.00  0.00    -0.271 OA
ATOM     12  H10 non d ame     -30.785   8.829  25.228  0.00  0.00     0.163 HD
BRANCH  10  13
ATOM     13  C6  non d ame     -30.307   8.138  22.610  0.00  0.00     0.086 C 
ATOM     14  H6  non d ame     -29.844   7.465  23.331  0.00  0.00     0.086 H 
BRANCH  13  15
ATOM     15  N2  non d ame     -30.831   7.304  21.541  0.00  0.00    -0.343 N 
ATOM     16  C5  non d ame     -31.528   6.058  21.872  0.00  0.00     0.273 C 
ATOM     17  O2  non d ame     -31.659   5.736  23.002  0.00  0.00    -0.266 OA
ATOM     18  H5  non d ame     -30.710   7.585  20.578  0.00  0.00     0.163 HD
BRANCH  16  19
ATOM     19  C4  non d ame     -32.087   5.168  20.753  0.00  0.00     0.154 A 
ATOM     20  C1  non d ame     -32.172   3.740  20.744  0.00  0.00    -0.017 A 
ATOM     21  C2  non d ame     -32.756   3.417  19.499  0.00  0.00     0.077 A 
ATOM     22  H1  non d ame     -31.856   3.043  21.521  0.00  0.00     0.091 H 
ATOM     23  O1  non d ame     -32.980   4.537  18.874  0.00  0.00    -0.218 OA
ATOM     24  N1  non d ame     -32.597   5.572  19.586  0.00  0.00    -0.123 NA
BRANCH  21  25
ATOM     25  C3  non d ame     -33.068   2.018  18.984  0.00  0.00    -0.029 C 
ATOM     26  H2  non d ame     -33.951   2.054  18.346  0.00  0.00     0.036 H 
ATOM     27  H3  non d ame     -32.220   1.645  18.410  0.00  0.00     0.036 H 
ATOM     28  H4  non d ame     -33.257   1.355  19.827  0.00  0.00     0.036 H 
ENDBRANCH  21  25
ENDBRANCH  16  19
ENDBRANCH  13  15
BRANCH  13  29
ATOM     29  C8  non d ame     -29.256   9.073  22.068  0.00  0.00    -0.049 C 
ATOM     30  H7  non d ame     -28.386   9.061  22.723  0.00  0.00     0.030 H 
ATOM     31  H8  non d ame     -28.962   8.748  21.069  0.00  0.00     0.030 H 
ATOM     32  H9  non d ame     -29.660  10.084  22.017  0.00  0.00     0.030 H 
ENDBRANCH  13  29
ENDBRANCH  10  13
ENDBRANCH   7   9
BRANCH   7  33
ATOM     33  C11 non d ame     -33.545   9.030  26.042  0.00  0.00    -0.033 C 
ATOM     34  H12 non d ame     -34.221   9.655  26.628  0.00  0.00     0.042 H 
BRANCH  33  35
ATOM     35  C12 non d ame     -34.421   8.144  25.102  0.00  0.00    -0.071 C 
ATOM     36  H13 non d ame     -33.970   8.111  24.110  0.00  0.00     0.028 H 
ATOM     37  H14 non d ame     -34.481   7.135  25.508  0.00  0.00     0.028 H 
ATOM     38  H15 non d ame     -35.422   8.568  25.032  0.00  0.00     0.028 H 
ENDBRANCH  33  35
BRANCH  33  39
ATOM     39  C13 non d ame     -32.715   8.155  27.035  0.00  0.00    -0.071 C 
ATOM     40  H16 non d ame     -33.290   7.269  27.306  0.00  0.00     0.028 H 
ATOM     41  H17 non d ame     -31.782   7.851  26.560  0.00  0.00     0.028 H 
ATOM     42  H18 non d ame     -32.494   8.733  27.932  0.00  0.00     0.028 H 
ENDBRANCH  33  39
ENDBRANCH   7  33
ENDBRANCH   4   7
ENDBRANCH   1   3
BRANCH   1  43
ATOM     43  C15 non d ame     -31.905  14.020  27.056  0.00  0.00     0.240 C 
ATOM     44  O5  non d ame     -30.767  14.343  27.169  0.00  0.00    -0.271 OA
ATOM     45  N6  non d ame     -32.785  14.730  26.085  0.00  0.00    -0.355 N 
ATOM     46  H46 non d ame     -33.753  14.460  25.977  0.00  0.00     0.162 HD
BRANCH  45  47
ATOM     47  C20 non d ame     -32.237  15.838  25.273  0.00  0.00     0.013 C 
ATOM     48  H30 non d ame     -31.227  16.045  25.626  0.00  0.00     0.072 H 
BRANCH  47  49
ATOM     49  C21 non d ame     -33.106  17.062  25.446  0.00  0.00    -0.038 C 
ATOM     50  H31 non d ame     -33.017  17.622  24.513  0.00  0.00     0.036 H 
ATOM     51  H32 non d ame     -34.078  16.690  25.767  0.00  0.00     0.036 H 
BRANCH  49  52
ATOM     52  C22 non d ame     -32.606  17.999  26.566  0.00  0.00     0.018 C 
ATOM     53  H33 non d ame     -31.531  17.835  26.631  0.00  0.00     0.048 H 
ATOM     54  H34 non d ame     -32.991  18.989  26.316  0.00  0.00     0.048 H 
BRANCH  52  55
ATOM     55  C23 non d ame     -33.177  17.659  27.970  0.00  0.00     0.259 C 
ATOM     56  O7  non d ame     -32.447  17.460  28.887  0.00  0.00    -0.265 OA
BRANCH  55  57
ATOM     57  O8  non d ame     -34.586  17.572  28.147  0.00  0.00    -0.317 OA
BRANCH  57  58
ATOM     58  C29 non d ame     -35.268  18.822  28.005  0.00  0.00     0.052 C 
ATOM     59  H47 non d ame     -36.002  18.849  28.810  0.00  0.00     0.082 H 
ATOM     60  H48 non d ame     -34.487  19.580  27.953  0.00  0.00     0.082 H 
BRANCH  58  61
ATOM     61  C35 non d ame     -36.026  18.803  26.651  0.00  0.00    -0.034 A 
ATOM     62  C30 non d ame     -36.007  19.925  25.827  0.00  0.00    -0.075 A 
ATOM     63  C31 non d ame     -36.688  19.908  24.610  0.00  0.00    -0.082 A 
ATOM     64  H49 non d ame     -35.460  20.816  26.134  0.00  0.00     0.084 H 
ATOM     65  C32 non d ame     -37.392  18.766  24.220  0.00  0.00    -0.083 A 
ATOM     66  H50 non d ame     -36.670  20.788  23.966  0.00  0.00     0.083 H 
ATOM     67  C33 non d ame     -37.410  17.651  25.046  0.00  0.00    -0.082 A 
ATOM     68  H51 non d ame     -37.926  18.745  23.270  0.00  0.00     0.083 H 
ATOM     69  C34 non d ame     -36.729  17.662  26.262  0.00  0.00    -0.075 A 
ATOM     70  H52 non d ame     -37.962  16.761  24.740  0.00  0.00     0.083 H 
ATOM     71  H53 non d ame     -36.748  16.782  26.905  0.00  0.00     0.084 H 
ENDBRANCH  58  61
ENDBRANCH  57  58
ENDBRANCH  55  57
ENDBRANCH  52  55
ENDBRANCH  49  52
ENDBRANCH  47  49
BRANCH  47  72
ATOM     72  C24 non d ame     -32.211  15.435  23.800  0.00  0.00    -0.039 C 
ATOM     73  H35 non d ame     -32.567  14.404  23.775  0.00  0.00     0.036 H 
ATOM     74  H36 non d ame     -32.763  16.214  23.276  0.00  0.00     0.036 H 
BRANCH  72  75
ATOM     75  C25 non d ame     -30.721  15.435  23.211  0.00  0.00    -0.001 C 
ATOM     76  C26 non d ame     -30.718  16.075  21.697  0.00  0.00    -0.035 C 
ATOM     77  C27 non d ame     -30.076  15.221  20.864  0.00  0.00     0.085 C 
ATOM     78  H38 non d ame     -31.732  16.104  21.301  0.00  0.00     0.036 H 
ATOM     79  H39 non d ame     -30.096  16.970  21.671  0.00  0.00     0.036 H 
ATOM     80  N5  non d ame     -29.931  13.911  21.600  0.00  0.00    -0.049 N 
ATOM     81  H40 non d ame     -30.749  15.080  20.017  0.00  0.00     0.075 H 
ATOM     82  H41 non d ame     -29.088  15.652  20.708  0.00  0.00     0.075 H 
ATOM     83  C28 non d ame     -30.242  14.237  23.151  0.00  0.00     0.193 C 
ATOM     84  H42 non d ame     -30.655  13.302  21.248  0.00  0.00     0.280 HD
ATOM     85  H43 non d ame     -28.960  13.643  21.516  0.00  0.00     0.280 HD
ATOM     86  H44 non d ame     -29.432  14.310  23.875  0.00  0.00     0.129 H 
ATOM     87  H37 non d ame     -29.996  15.835  23.921  0.00  0.00     0.046 H 
BRANCH  83  88
ATOM     88  O6  non d ame     -31.145  13.267  23.686  0.00  0.00    -0.369 OA
ATOM     89  H45 non d ame     -30.670  12.453  23.868  0.00  0.00     0.212 HD
ENDBRANCH  83  88
ENDBRANCH  72  75
ENDBRANCH  47  72
ENDBRANCH  45  47
ENDBRANCH   1  43
BRANCH   1  90
ATOM     90  C16 non d ame     -31.348  12.252  28.756  0.00  0.00    -0.035 C 
ATOM     91  H21 non d ame     -31.167  11.265  28.332  0.00  0.00     0.037 H 
ATOM     92  H22 non d ame     -30.555  12.999  28.755  0.00  0.00     0.037 H 
BRANCH  90  93
ATOM     93  C17 non d ame     -31.740  12.024  30.250  0.00  0.00    -0.059 C 
ATOM     94  H23 non d ame     -32.251  12.921  30.600  0.00  0.00     0.038 H 
BRANCH  93  95
ATOM     95  C18 non d ame     -32.718  10.819  30.426  0.00  0.00    -0.073 C 
ATOM     96  H24 non d ame     -33.574  11.130  31.025  0.00  0.00     0.028 H 
ATOM     97  H25 non d ame     -33.063  10.486  29.447  0.00  0.00     0.028 H 
ATOM     98  H26 non d ame     -32.201  10.001  30.927  0.00  0.00     0.028 H 
ENDBRANCH  93  95
BRANCH  93  99
ATOM     99  C19 non d ame     -30.493  11.844  31.120  0.00  0.00    -0.073 C 
ATOM    100  H27 non d ame     -30.082  10.846  30.965  0.00  0.00     0.028 H 
ATOM    101  H28 non d ame     -29.746  12.589  30.845  0.00  0.00     0.028 H 
ATOM    102  H29 non d ame     -30.760  11.969  32.169  0.00  0.00     0.028 H 
ENDBRANCH  93  99
ENDBRANCH  90  93
ENDBRANCH   1  90
TORSDOF 26
ENDMDL
MODEL 14
REMARK VINA RESULT:      -6.4      2.722      5.087
REMARK  26 active torsions:
REMARK  status: ('A' for Active; 'I' for Inactive)
REMARK    1  A    between atoms: C2_2  and  C3_3 
REMARK    2  A    between atoms: C4_6  and  C5_7 
REMARK       I    between atoms: C5_7  and  N2_9 
REMARK    3  A    between atoms: N2_9  and  C6_10 
REMARK    4  A    between atoms: C6_10  and  C7_11 
REMARK    5  A    between atoms: C6_10  and  C8_13 
REMARK       I    between atoms: C7_11  and  N3_14 
REMARK    6  A    between atoms: N3_14  and  C9_15 
REMARK    7  A    between atoms: C9_15  and  C10_16 
REMARK    8  A    between atoms: C9_15  and  C11_18 
REMARK       I    between atoms: C10_16  and  N4_21 
REMARK    9  A    between atoms: C11_18  and  C12_19 
REMARK   10  A    between atoms: C11_18  and  C13_20 
REMARK   11  A    between atoms: N4_21  and  C14_22 
REMARK   12  A    between atoms: C14_22  and  C15_23 
REMARK   13  A    between atoms: C14_22  and  C16_25 
REMARK       I    between atoms: C15_23  and  N6_40 
REMARK   14  A    between atoms: C16_25  and  C17_26 
REMARK   15  A    between atoms: C17_26  and  C18_27 
REMARK   16  A    between atoms: C17_26  and  C19_28 
REMARK   17  A    between atoms: C20_29  and  C21_30 
REMARK   18  A    between atoms: C20_29  and  C24_33 
REMARK   19  A    between atoms: C20_29  and  N6_40 
REMARK   20  A    between atoms: C21_30  and  C22_31 
REMARK   21  A    between atoms: C22_31  and  C23_32 
REMARK   22  A    between atoms: C23_32  and  O8_43 
REMARK   23  A    between atoms: C24_33  and  C25_34 
REMARK   24  A    between atoms: C28_38  and  O6_39 
REMARK   25  A    between atoms: C29_42  and  O8_43 
REMARK   26  A    between atoms: C29_42  and  C35_49 
ROOT
ATOM      1  C14 non d ame     -32.457   9.499  25.508  0.00  0.00     0.089 C 
ATOM      2  H20 non d ame     -31.581   8.854  25.576  0.00  0.00     0.087 H 
ENDROOT
BRANCH   1   3
ATOM      3  N4  non d ame     -33.519   8.880  26.288  0.00  0.00    -0.346 N 
ATOM      4  C10 non d ame     -33.213   7.727  27.211  0.00  0.00     0.241 C 
ATOM      5  O4  non d ame     -32.105   7.312  27.306  0.00  0.00    -0.271 OA
ATOM      6  H19 non d ame     -34.455   9.247  26.191  0.00  0.00     0.163 HD
BRANCH   4   7
ATOM      7  C9  non d ame     -34.322   7.104  28.016  0.00  0.00     0.092 C 
ATOM      8  H11 non d ame     -33.991   6.978  29.047  0.00  0.00     0.088 H 
BRANCH   7   9
ATOM      9  N3  non d ame     -35.477   8.005  28.038  0.00  0.00    -0.346 N 
ATOM     10  C7  non d ame     -35.692   8.873  29.169  0.00  0.00     0.240 C 
ATOM     11  O3  non d ame     -34.946   8.858  30.071  0.00  0.00    -0.271 OA
ATOM     12  H10 non d ame     -36.130   8.029  27.268  0.00  0.00     0.163 HD
BRANCH  10  13
ATOM     13  C6  non d ame     -36.926   9.829  29.189  0.00  0.00     0.086 C 
ATOM     14  H6  non d ame     -36.730  10.759  29.724  0.00  0.00     0.086 H 
BRANCH  13  15
ATOM     15  N2  non d ame     -37.257  10.199  27.822  0.00  0.00    -0.343 N 
ATOM     16  C5  non d ame     -36.299  10.978  27.033  0.00  0.00     0.273 C 
ATOM     17  O2  non d ame     -35.268  11.305  27.508  0.00  0.00    -0.266 OA
ATOM     18  H5  non d ame     -38.142   9.918  27.426  0.00  0.00     0.163 HD
BRANCH  16  19
ATOM     19  C4  non d ame     -36.635  11.374  25.588  0.00  0.00     0.154 A 
ATOM     20  C1  non d ame     -37.252  12.586  25.144  0.00  0.00    -0.017 A 
ATOM     21  C2  non d ame     -37.338  12.459  23.739  0.00  0.00     0.077 A 
ATOM     22  H1  non d ame     -37.588  13.429  25.748  0.00  0.00     0.091 H 
ATOM     23  O1  non d ame     -36.824  11.305  23.424  0.00  0.00    -0.218 OA
ATOM     24  N1  non d ame     -36.409  10.654  24.485  0.00  0.00    -0.123 NA
BRANCH  21  25
ATOM     25  C3  non d ame     -37.921  13.482  22.775  0.00  0.00    -0.029 C 
ATOM     26  H2  non d ame     -38.416  12.966  21.952  0.00  0.00     0.036 H 
ATOM     27  H3  non d ame     -38.645  14.105  23.300  0.00  0.00     0.036 H 
ATOM     28  H4  non d ame     -37.121  14.108  22.381  0.00  0.00     0.036 H 
ENDBRANCH  21  25
ENDBRANCH  16  19
ENDBRANCH  13  15
BRANCH  13  29
ATOM     29  C8  non d ame     -38.096   9.131  29.833  0.00  0.00    -0.049 C 
ATOM     30  H7  non d ame     -38.988   9.749  29.733  0.00  0.00     0.030 H 
ATOM     31  H8  non d ame     -38.262   8.172  29.341  0.00  0.00     0.030 H 
ATOM     32  H9  non d ame     -37.885   8.966  30.889  0.00  0.00     0.030 H 
ENDBRANCH  13  29
ENDBRANCH  10  13
ENDBRANCH   7   9
BRANCH   7  33
ATOM     33  C11 non d ame     -34.736   5.751  27.366  0.00  0.00    -0.033 C 
ATOM     34  H12 non d ame     -33.821   5.209  27.125  0.00  0.00     0.042 H 
BRANCH  33  35
ATOM     35  C12 non d ame     -35.555   4.869  28.359  0.00  0.00    -0.071 C 
ATOM     36  H13 non d ame     -35.732   3.889  27.915  0.00  0.00     0.028 H 
ATOM     37  H14 non d ame     -34.996   4.752  29.287  0.00  0.00     0.028 H 
ATOM     38  H15 non d ame     -36.511   5.349  28.569  0.00  0.00     0.028 H 
ENDBRANCH  33  35
BRANCH  33  39
ATOM     39  C13 non d ame     -35.522   5.986  26.036  0.00  0.00    -0.071 C 
ATOM     40  H16 non d ame     -35.707   7.052  25.907  0.00  0.00     0.028 H 
ATOM     41  H17 non d ame     -34.935   5.614  25.196  0.00  0.00     0.028 H 
ATOM     42  H18 non d ame     -36.472   5.454  26.077  0.00  0.00     0.028 H 
ENDBRANCH  33  39
ENDBRANCH   7  33
ENDBRANCH   4   7
ENDBRANCH   1   3
BRANCH   1  43
ATOM     43  C15 non d ame     -32.187  10.920  26.078  0.00  0.00     0.240 C 
ATOM     44  O5  non d ame     -31.403  11.064  26.959  0.00  0.00    -0.271 OA
ATOM     45  N6  non d ame     -32.898  12.105  25.518  0.00  0.00    -0.355 N 
ATOM     46  H46 non d ame     -33.563  11.995  24.765  0.00  0.00     0.162 HD
BRANCH  45  47
ATOM     47  C20 non d ame     -32.629  13.451  26.069  0.00  0.00     0.013 C 
ATOM     48  H30 non d ame     -32.621  13.372  27.157  0.00  0.00     0.072 H 
BRANCH  47  49
ATOM     49  C21 non d ame     -33.721  14.399  25.629  0.00  0.00    -0.038 C 
ATOM     50  H31 non d ame     -33.225  15.159  25.023  0.00  0.00     0.036 H 
ATOM     51  H32 non d ame     -34.496  13.771  25.189  0.00  0.00     0.036 H 
BRANCH  49  52
ATOM     52  C22 non d ame     -34.381  15.144  26.809  0.00  0.00     0.018 C 
ATOM     53  H33 non d ame     -35.115  15.813  26.363  0.00  0.00     0.048 H 
ATOM     54  H34 non d ame     -34.703  14.367  27.504  0.00  0.00     0.048 H 
BRANCH  52  55
ATOM     55  C23 non d ame     -33.401  16.050  27.604  0.00  0.00     0.259 C 
ATOM     56  O7  non d ame     -32.876  16.978  27.078  0.00  0.00    -0.265 OA
BRANCH  55  57
ATOM     57  O8  non d ame     -33.126  15.752  28.968  0.00  0.00    -0.317 OA
BRANCH  57  58
ATOM     58  C29 non d ame     -31.780  15.332  29.210  0.00  0.00     0.052 C 
ATOM     59  H47 non d ame     -31.292  15.329  28.236  0.00  0.00     0.082 H 
ATOM     60  H48 non d ame     -31.408  15.978  30.005  0.00  0.00     0.082 H 
BRANCH  58  61
ATOM     61  C35 non d ame     -31.821  13.874  29.743  0.00  0.00    -0.034 A 
ATOM     62  C30 non d ame     -30.708  13.333  30.378  0.00  0.00    -0.075 A 
ATOM     63  C31 non d ame     -30.745  12.023  30.857  0.00  0.00    -0.082 A 
ATOM     64  H49 non d ame     -29.807  13.933  30.501  0.00  0.00     0.084 H 
ATOM     65  C32 non d ame     -31.901  11.254  30.695  0.00  0.00    -0.083 A 
ATOM     66  H50 non d ame     -29.872  11.603  31.355  0.00  0.00     0.083 H 
ATOM     67  C33 non d ame     -33.007  11.797  30.057  0.00  0.00    -0.082 A 
ATOM     68  H51 non d ame     -31.938  10.230  31.066  0.00  0.00     0.083 H 
ATOM     69  C34 non d ame     -32.975  13.106  29.579  0.00  0.00    -0.075 A 
ATOM     70  H52 non d ame     -33.907  11.194  29.930  0.00  0.00     0.083 H 
ATOM     71  H53 non d ame     -33.849  13.526  29.081  0.00  0.00     0.084 H 
ENDBRANCH  58  61
ENDBRANCH  57  58
ENDBRANCH  55  57
ENDBRANCH  52  55
ENDBRANCH  49  52
ENDBRANCH  47  49
BRANCH  47  72
ATOM     72  C24 non d ame     -31.280  13.956  25.564  0.00  0.00    -0.039 C 
ATOM     73  H35 non d ame     -31.063  14.846  26.157  0.00  0.00     0.036 H 
ATOM     74  H36 non d ame     -30.612  13.096  25.610  0.00  0.00     0.036 H 
BRANCH  72  75
ATOM     75  C25 non d ame     -31.355  14.415  24.031  0.00  0.00    -0.001 C 
ATOM     76  C26 non d ame     -30.376  13.465  23.114  0.00  0.00    -0.035 C 
ATOM     77  C27 non d ame     -29.570  14.259  22.369  0.00  0.00     0.085 C 
ATOM     78  H38 non d ame     -29.679  12.920  23.752  0.00  0.00     0.036 H 
ATOM     79  H39 non d ame     -30.965  12.930  22.369  0.00  0.00     0.036 H 
ATOM     80  N5  non d ame     -29.681  15.654  22.934  0.00  0.00    -0.049 N 
ATOM     81  H40 non d ame     -28.558  13.887  22.538  0.00  0.00     0.075 H 
ATOM     82  H41 non d ame     -29.995  14.247  21.366  0.00  0.00     0.075 H 
ATOM     83  C28 non d ame     -30.980  15.644  23.892  0.00  0.00     0.193 C 
ATOM     84  H42 non d ame     -28.861  15.798  23.506  0.00  0.00     0.280 HD
ATOM     85  H43 non d ame     -29.863  16.266  22.151  0.00  0.00     0.280 HD
ATOM     86  H44 non d ame     -31.914  16.099  23.564  0.00  0.00     0.129 H 
ATOM     87  H37 non d ame     -32.381  14.547  23.689  0.00  0.00     0.046 H 
BRANCH  83  88
ATOM     88  O6  non d ame     -30.674  16.259  25.145  0.00  0.00    -0.369 OA
ATOM     89  H45 non d ame     -31.188  17.064  25.241  0.00  0.00     0.212 HD
ENDBRANCH  83  88
ENDBRANCH  72  75
ENDBRANCH  47  72
ENDBRANCH  45  47
ENDBRANCH   1  43
BRANCH   1  90
ATOM     90  C16 non d ame     -32.906   9.606  24.059  0.00  0.00    -0.035 C 
ATOM     91  H21 non d ame     -33.832   9.035  24.000  0.00  0.00     0.037 H 
ATOM     92  H22 non d ame     -32.909  10.672  23.835  0.00  0.00     0.037 H 
BRANCH  90  93
ATOM     93  C17 non d ame     -31.917   8.945  23.046  0.00  0.00    -0.059 C 
ATOM     94  H23 non d ame     -32.434   8.849  22.092  0.00  0.00     0.038 H 
BRANCH  93  95
ATOM     95  C18 non d ame     -30.643   9.818  22.812  0.00  0.00    -0.073 C 
ATOM     96  H24 non d ame     -29.752   9.225  23.019  0.00  0.00     0.028 H 
ATOM     97  H25 non d ame     -30.619  10.157  21.776  0.00  0.00     0.028 H 
ATOM     98  H26 non d ame     -30.666  10.682  23.476  0.00  0.00     0.028 H 
ENDBRANCH  93  95
BRANCH  93  99
ATOM     99  C19 non d ame     -31.534   7.534  23.499  0.00  0.00    -0.073 C 
ATOM    100  H27 non d ame     -30.941   7.593  24.412  0.00  0.00     0.028 H 
ATOM    101  H28 non d ame     -32.437   6.955  23.691  0.00  0.00     0.028 H 
ATOM    102  H29 non d ame     -30.951   7.047  22.717  0.00  0.00     0.028 H 
ENDBRANCH  93  99
ENDBRANCH  90  93
ENDBRANCH   1  90
TORSDOF 26
ENDMDL
MODEL 15
REMARK VINA RESULT:      -6.4      2.993      7.099
REMARK  26 active torsions:
REMARK  status: ('A' for Active; 'I' for Inactive)
REMARK    1  A    between atoms: C2_2  and  C3_3 
REMARK    2  A    between atoms: C4_6  and  C5_7 
REMARK       I    between atoms: C5_7  and  N2_9 
REMARK    3  A    between atoms: N2_9  and  C6_10 
REMARK    4  A    between atoms: C6_10  and  C7_11 
REMARK    5  A    between atoms: C6_10  and  C8_13 
REMARK       I    between atoms: C7_11  and  N3_14 
REMARK    6  A    between atoms: N3_14  and  C9_15 
REMARK    7  A    between atoms: C9_15  and  C10_16 
REMARK    8  A    between atoms: C9_15  and  C11_18 
REMARK       I    between atoms: C10_16  and  N4_21 
REMARK    9  A    between atoms: C11_18  and  C12_19 
REMARK   10  A    between atoms: C11_18  and  C13_20 
REMARK   11  A    between atoms: N4_21  and  C14_22 
REMARK   12  A    between atoms: C14_22  and  C15_23 
REMARK   13  A    between atoms: C14_22  and  C16_25 
REMARK       I    between atoms: C15_23  and  N6_40 
REMARK   14  A    between atoms: C16_25  and  C17_26 
REMARK   15  A    between atoms: C17_26  and  C18_27 
REMARK   16  A    between atoms: C17_26  and  C19_28 
REMARK   17  A    between atoms: C20_29  and  C21_30 
REMARK   18  A    between atoms: C20_29  and  C24_33 
REMARK   19  A    between atoms: C20_29  and  N6_40 
REMARK   20  A    between atoms: C21_30  and  C22_31 
REMARK   21  A    between atoms: C22_31  and  C23_32 
REMARK   22  A    between atoms: C23_32  and  O8_43 
REMARK   23  A    between atoms: C24_33  and  C25_34 
REMARK   24  A    between atoms: C28_38  and  O6_39 
REMARK   25  A    between atoms: C29_42  and  O8_43 
REMARK   26  A    between atoms: C29_42  and  C35_49 
ROOT
ATOM      1  C14 non d ame     -31.933   8.992  24.143  0.00  0.00     0.089 C 
ATOM      2  H20 non d ame     -31.279   8.175  24.449  0.00  0.00     0.087 H 
ENDROOT
BRANCH   1   3
ATOM      3  N4  non d ame     -33.211   8.804  24.814  0.00  0.00    -0.346 N 
ATOM      4  C10 non d ame     -33.610   7.442  25.325  0.00  0.00     0.241 C 
ATOM      5  O4  non d ame     -32.887   6.512  25.182  0.00  0.00    -0.271 OA
ATOM      6  H19 non d ame     -33.812   9.608  24.924  0.00  0.00     0.163 HD
BRANCH   4   7
ATOM      7  C9  non d ame     -34.933   7.268  26.022  0.00  0.00     0.092 C 
ATOM      8  H11 non d ame     -35.002   6.252  26.414  0.00  0.00     0.088 H 
BRANCH   7   9
ATOM      9  N3  non d ame     -35.008   8.179  27.167  0.00  0.00    -0.346 N 
ATOM     10  C7  non d ame     -34.972   7.655  28.510  0.00  0.00     0.240 C 
ATOM     11  O3  non d ame     -34.886   6.501  28.687  0.00  0.00    -0.271 OA
ATOM     12  H10 non d ame     -35.084   9.177  27.030  0.00  0.00     0.163 HD
BRANCH  10  13
ATOM     13  C6  non d ame     -35.055   8.631  29.725  0.00  0.00     0.086 C 
ATOM     14  H6  non d ame     -34.794   8.152  30.668  0.00  0.00     0.086 H 
BRANCH  13  15
ATOM     15  N2  non d ame     -34.101   9.710  29.528  0.00  0.00    -0.343 N 
ATOM     16  C5  non d ame     -33.541  10.399  30.693  0.00  0.00     0.273 C 
ATOM     17  O2  non d ame     -33.866  10.079  31.783  0.00  0.00    -0.266 OA
ATOM     18  H5  non d ame     -33.832   9.979  28.592  0.00  0.00     0.163 HD
BRANCH  16  19
ATOM     19  C4  non d ame     -32.531  11.540  30.499  0.00  0.00     0.154 A 
ATOM     20  C1  non d ame     -32.752  12.788  29.834  0.00  0.00    -0.017 A 
ATOM     21  C2  non d ame     -31.521  13.475  29.931  0.00  0.00     0.077 A 
ATOM     22  H1  non d ame     -33.665  13.140  29.354  0.00  0.00     0.091 H 
ATOM     23  O1  non d ame     -30.698  12.704  30.580  0.00  0.00    -0.218 OA
ATOM     24  N1  non d ame     -31.264  11.570  30.921  0.00  0.00    -0.123 NA
BRANCH  21  25
ATOM     25  C3  non d ame     -31.217  14.861  29.379  0.00  0.00    -0.029 C 
ATOM     26  H2  non d ame     -30.663  15.435  30.122  0.00  0.00     0.036 H 
ATOM     27  H3  non d ame     -30.618  14.768  28.473  0.00  0.00     0.036 H 
ATOM     28  H4  non d ame     -32.150  15.373  29.147  0.00  0.00     0.036 H 
ENDBRANCH  21  25
ENDBRANCH  16  19
ENDBRANCH  13  15
BRANCH  13  29
ATOM     29  C8  non d ame     -36.452   9.189  29.830  0.00  0.00    -0.049 C 
ATOM     30  H7  non d ame     -36.433  10.258  29.622  0.00  0.00     0.030 H 
ATOM     31  H8  non d ame     -37.097   8.690  29.107  0.00  0.00     0.030 H 
ATOM     32  H9  non d ame     -36.835   9.021  30.837  0.00  0.00     0.030 H 
ENDBRANCH  13  29
ENDBRANCH  10  13
ENDBRANCH   7   9
BRANCH   7  33
ATOM     33  C11 non d ame     -36.088   7.589  25.029  0.00  0.00    -0.033 C 
ATOM     34  H12 non d ame     -35.643   8.050  24.147  0.00  0.00     0.042 H 
BRANCH  33  35
ATOM     35  C12 non d ame     -36.818   6.291  24.564  0.00  0.00    -0.071 C 
ATOM     36  H13 non d ame     -37.089   6.384  23.512  0.00  0.00     0.028 H 
ATOM     37  H14 non d ame     -36.155   5.436  24.694  0.00  0.00     0.028 H 
ATOM     38  H15 non d ame     -37.719   6.146  25.160  0.00  0.00     0.028 H 
ENDBRANCH  33  35
BRANCH  33  39
ATOM     39  C13 non d ame     -37.093   8.611  25.652  0.00  0.00    -0.071 C 
ATOM     40  H16 non d ame     -38.058   8.523  25.153  0.00  0.00     0.028 H 
ATOM     41  H17 non d ame     -37.213   8.402  26.716  0.00  0.00     0.028 H 
ATOM     42  H18 non d ame     -36.708   9.623  25.524  0.00  0.00     0.028 H 
ENDBRANCH  33  39
ENDBRANCH   7  33
ENDBRANCH   4   7
ENDBRANCH   1   3
BRANCH   1  43
ATOM     43  C15 non d ame     -31.363  10.382  24.544  0.00  0.00     0.240 C 
ATOM     44  O5  non d ame     -31.098  10.607  25.681  0.00  0.00    -0.271 OA
ATOM     45  N6  non d ame     -31.138  11.431  23.509  0.00  0.00    -0.355 N 
ATOM     46  H46 non d ame     -31.355  11.250  22.540  0.00  0.00     0.162 HD
BRANCH  45  47
ATOM     47  C20 non d ame     -30.594  12.748  23.906  0.00  0.00     0.013 C 
ATOM     48  H30 non d ame     -29.961  12.600  24.781  0.00  0.00     0.072 H 
BRANCH  47  49
ATOM     49  C21 non d ame     -31.735  13.680  24.245  0.00  0.00    -0.038 C 
ATOM     50  H31 non d ame     -31.511  14.619  23.737  0.00  0.00     0.036 H 
ATOM     51  H32 non d ame     -32.644  13.132  24.001  0.00  0.00     0.036 H 
BRANCH  49  52
ATOM     52  C22 non d ame     -31.814  14.007  25.752  0.00  0.00     0.018 C 
ATOM     53  H33 non d ame     -31.267  13.211  26.256  0.00  0.00     0.048 H 
ATOM     54  H34 non d ame     -31.480  15.042  25.846  0.00  0.00     0.048 H 
BRANCH  52  55
ATOM     55  C23 non d ame     -33.256  13.969  26.327  0.00  0.00     0.259 C 
ATOM     56  O7  non d ame     -33.865  12.949  26.363  0.00  0.00    -0.265 OA
BRANCH  55  57
ATOM     57  O8  non d ame     -33.851  15.172  26.799  0.00  0.00    -0.317 OA
BRANCH  57  58
ATOM     58  C29 non d ame     -33.994  16.182  25.796  0.00  0.00     0.052 C 
ATOM     59  H47 non d ame     -33.321  15.893  24.989  0.00  0.00     0.082 H 
ATOM     60  H48 non d ame     -35.065  16.265  25.611  0.00  0.00     0.082 H 
BRANCH  58  61
ATOM     61  C35 non d ame     -33.494  17.525  26.393  0.00  0.00    -0.034 A 
ATOM     62  C30 non d ame     -33.018  17.571  27.700  0.00  0.00    -0.075 A 
ATOM     63  C31 non d ame     -32.569  18.778  28.237  0.00  0.00    -0.082 A 
ATOM     64  H49 non d ame     -32.996  16.664  28.303  0.00  0.00     0.084 H 
ATOM     65  C32 non d ame     -32.600  19.941  27.463  0.00  0.00    -0.083 A 
ATOM     66  H50 non d ame     -32.195  18.811  29.261  0.00  0.00     0.083 H 
ATOM     67  C33 non d ame     -33.080  19.890  26.161  0.00  0.00    -0.082 A 
ATOM     68  H51 non d ame     -32.251  20.887  27.875  0.00  0.00     0.083 H 
ATOM     69  C34 non d ame     -33.527  18.687  25.620  0.00  0.00    -0.075 A 
ATOM     70  H52 non d ame     -33.105  20.800  25.560  0.00  0.00     0.083 H 
ATOM     71  H53 non d ame     -33.901  18.655  24.596  0.00  0.00     0.084 H 
ENDBRANCH  58  61
ENDBRANCH  57  58
ENDBRANCH  55  57
ENDBRANCH  52  55
ENDBRANCH  49  52
ENDBRANCH  47  49
BRANCH  47  72
ATOM     72  C24 non d ame     -29.779  13.338  22.756  0.00  0.00    -0.039 C 
ATOM     73  H35 non d ame     -28.754  13.392  23.126  0.00  0.00     0.036 H 
ATOM     74  H36 non d ame     -30.013  12.721  21.889  0.00  0.00     0.036 H 
BRANCH  72  75
ATOM     75  C25 non d ame     -30.237  14.833  22.411  0.00  0.00    -0.001 C 
ATOM     76  C26 non d ame     -30.894  14.883  20.904  0.00  0.00    -0.035 C 
ATOM     77  C27 non d ame     -30.293  15.870  20.198  0.00  0.00     0.085 C 
ATOM     78  H38 non d ame     -30.633  13.980  20.353  0.00  0.00     0.036 H 
ATOM     79  H39 non d ame     -31.933  15.206  20.961  0.00  0.00     0.036 H 
ATOM     80  N5  non d ame     -29.063  16.281  20.972  0.00  0.00    -0.049 N 
ATOM     81  H40 non d ame     -29.984  15.410  19.259  0.00  0.00     0.075 H 
ATOM     82  H41 non d ame     -31.002  16.698  20.193  0.00  0.00     0.075 H 
ATOM     83  C28 non d ame     -29.236  15.649  22.448  0.00  0.00     0.193 C 
ATOM     84  H42 non d ame     -28.278  15.834  20.521  0.00  0.00     0.280 HD
ATOM     85  H43 non d ame     -29.096  17.288  21.047  0.00  0.00     0.280 HD
ATOM     86  H44 non d ame     -29.525  16.278  23.289  0.00  0.00     0.129 H 
ATOM     87  H37 non d ame     -30.812  15.286  23.218  0.00  0.00     0.046 H 
BRANCH  83  88
ATOM     88  O6  non d ame     -28.027  15.002  22.852  0.00  0.00    -0.369 OA
ATOM     89  H45 non d ame     -27.467  15.630  23.314  0.00  0.00     0.212 HD
ENDBRANCH  83  88
ENDBRANCH  72  75
ENDBRANCH  47  72
ENDBRANCH  45  47
ENDBRANCH   1  43
BRANCH   1  90
ATOM     90  C16 non d ame     -32.150   8.942  22.639  0.00  0.00    -0.035 C 
ATOM     91  H21 non d ame     -33.219   8.775  22.507  0.00  0.00     0.037 H 
ATOM     92  H22 non d ame     -31.689   9.850  22.251  0.00  0.00     0.037 H 
BRANCH  90  93
ATOM     93  C17 non d ame     -31.428   7.747  21.941  0.00  0.00    -0.059 C 
ATOM     94  H23 non d ame     -31.048   8.103  20.984  0.00  0.00     0.038 H 
BRANCH  93  95
ATOM     95  C18 non d ame     -30.213   7.225  22.772  0.00  0.00    -0.073 C 
ATOM     96  H24 non d ame     -30.484   7.184  23.827  0.00  0.00     0.028 H 
ATOM     97  H25 non d ame     -29.940   6.227  22.430  0.00  0.00     0.028 H 
ATOM     98  H26 non d ame     -29.366   7.898  22.641  0.00  0.00     0.028 H 
ENDBRANCH  93  95
BRANCH  93  99
ATOM     99  C19 non d ame     -32.412   6.612  21.645  0.00  0.00    -0.073 C 
ATOM    100  H27 non d ame     -33.081   6.479  22.496  0.00  0.00     0.028 H 
ATOM    101  H28 non d ame     -32.998   6.859  20.760  0.00  0.00     0.028 H 
ATOM    102  H29 non d ame     -31.860   5.689  21.468  0.00  0.00     0.028 H 
ENDBRANCH  93  99
ENDBRANCH  90  93
ENDBRANCH   1  90
TORSDOF 26
ENDMDL
MODEL 16
REMARK VINA RESULT:      -6.3      3.493      6.934
REMARK  26 active torsions:
REMARK  status: ('A' for Active; 'I' for Inactive)
REMARK    1  A    between atoms: C2_2  and  C3_3 
REMARK    2  A    between atoms: C4_6  and  C5_7 
REMARK       I    between atoms: C5_7  and  N2_9 
REMARK    3  A    between atoms: N2_9  and  C6_10 
REMARK    4  A    between atoms: C6_10  and  C7_11 
REMARK    5  A    between atoms: C6_10  and  C8_13 
REMARK       I    between atoms: C7_11  and  N3_14 
REMARK    6  A    between atoms: N3_14  and  C9_15 
REMARK    7  A    between atoms: C9_15  and  C10_16 
REMARK    8  A    between atoms: C9_15  and  C11_18 
REMARK       I    between atoms: C10_16  and  N4_21 
REMARK    9  A    between atoms: C11_18  and  C12_19 
REMARK   10  A    between atoms: C11_18  and  C13_20 
REMARK   11  A    between atoms: N4_21  and  C14_22 
REMARK   12  A    between atoms: C14_22  and  C15_23 
REMARK   13  A    between atoms: C14_22  and  C16_25 
REMARK       I    between atoms: C15_23  and  N6_40 
REMARK   14  A    between atoms: C16_25  and  C17_26 
REMARK   15  A    between atoms: C17_26  and  C18_27 
REMARK   16  A    between atoms: C17_26  and  C19_28 
REMARK   17  A    between atoms: C20_29  and  C21_30 
REMARK   18  A    between atoms: C20_29  and  C24_33 
REMARK   19  A    between atoms: C20_29  and  N6_40 
REMARK   20  A    between atoms: C21_30  and  C22_31 
REMARK   21  A    between atoms: C22_31  and  C23_32 
REMARK   22  A    between atoms: C23_32  and  O8_43 
REMARK   23  A    between atoms: C24_33  and  C25_34 
REMARK   24  A    between atoms: C28_38  and  O6_39 
REMARK   25  A    between atoms: C29_42  and  O8_43 
REMARK   26  A    between atoms: C29_42  and  C35_49 
ROOT
ATOM      1  C14 non d ame     -31.350  14.746  24.939  0.00  0.00     0.089 C 
ATOM      2  H20 non d ame     -30.837  14.600  25.890  0.00  0.00     0.087 H 
ENDROOT
BRANCH   1   3
ATOM      3  N4  non d ame     -31.982  13.484  24.584  0.00  0.00    -0.346 N 
ATOM      4  C10 non d ame     -31.682  12.233  25.372  0.00  0.00     0.241 C 
ATOM      5  O4  non d ame     -30.925  12.266  26.285  0.00  0.00    -0.271 OA
ATOM      6  H19 non d ame     -32.622  13.477  23.802  0.00  0.00     0.163 HD
BRANCH   4   7
ATOM      7  C9  non d ame     -32.350  10.938  24.994  0.00  0.00     0.092 C 
ATOM      8  H11 non d ame     -33.041  11.117  24.170  0.00  0.00     0.088 H 
BRANCH   7   9
ATOM      9  N3  non d ame     -31.342   9.988  24.516  0.00  0.00    -0.346 N 
ATOM     10  C7  non d ame     -31.560   9.262  23.289  0.00  0.00     0.240 C 
ATOM     11  O3  non d ame     -32.543   9.429  22.675  0.00  0.00    -0.271 OA
ATOM     12  H10 non d ame     -30.491   9.832  25.035  0.00  0.00     0.163 HD
BRANCH  10  13
ATOM     13  C6  non d ame     -30.484   8.250  22.786  0.00  0.00     0.086 C 
ATOM     14  H6  non d ame     -30.217   7.509  23.540  0.00  0.00     0.086 H 
BRANCH  13  15
ATOM     15  N2  non d ame     -31.022   7.515  21.653  0.00  0.00    -0.343 N 
ATOM     16  C5  non d ame     -31.688   6.229  21.878  0.00  0.00     0.273 C 
ATOM     17  O2  non d ame     -31.784   5.795  22.973  0.00  0.00    -0.266 OA
ATOM     18  H5  non d ame     -30.933   7.892  20.721  0.00  0.00     0.163 HD
BRANCH  16  19
ATOM     19  C4  non d ame     -32.263   5.442  20.691  0.00  0.00     0.154 A 
ATOM     20  C1  non d ame     -32.241   4.024  20.501  0.00  0.00    -0.017 A 
ATOM     21  C2  non d ame     -32.892   3.812  19.265  0.00  0.00     0.077 A 
ATOM     22  H1  non d ame     -31.816   3.265  21.157  0.00  0.00     0.091 H 
ATOM     23  O1  non d ame     -33.246   4.979  18.809  0.00  0.00    -0.218 OA
ATOM     24  N1  non d ame     -32.888   5.945  19.623  0.00  0.00    -0.123 NA
BRANCH  21  25
ATOM     25  C3  non d ame     -33.136   2.468  18.593  0.00  0.00    -0.029 C 
ATOM     26  H2  non d ame     -32.405   2.320  17.799  0.00  0.00     0.036 H 
ATOM     27  H3  non d ame     -33.038   1.671  19.330  0.00  0.00     0.036 H 
ATOM     28  H4  non d ame     -34.140   2.450  18.170  0.00  0.00     0.036 H 
ENDBRANCH  21  25
ENDBRANCH  16  19
ENDBRANCH  13  15
BRANCH  13  29
ATOM     29  C8  non d ame     -29.241   8.997  22.373  0.00  0.00    -0.049 C 
ATOM     30  H7  non d ame     -28.714   9.345  23.261  0.00  0.00     0.030 H 
ATOM     31  H8  non d ame     -28.592   8.333  21.803  0.00  0.00     0.030 H 
ATOM     32  H9  non d ame     -29.519   9.852  21.757  0.00  0.00     0.030 H 
ENDBRANCH  13  29
ENDBRANCH  10  13
ENDBRANCH   7   9
BRANCH   7  33
ATOM     33  C11 non d ame     -33.070  10.343  26.240  0.00  0.00    -0.033 C 
ATOM     34  H12 non d ame     -32.973  11.066  27.051  0.00  0.00     0.042 H 
BRANCH  33  35
ATOM     35  C12 non d ame     -34.594  10.139  25.974  0.00  0.00    -0.071 C 
ATOM     36  H13 non d ame     -34.949  10.905  25.285  0.00  0.00     0.028 H 
ATOM     37  H14 non d ame     -34.757   9.154  25.537  0.00  0.00     0.028 H 
ATOM     38  H15 non d ame     -35.141  10.215  26.914  0.00  0.00     0.028 H 
ENDBRANCH  33  35
BRANCH  33  39
ATOM     39  C13 non d ame     -32.391   9.012  26.696  0.00  0.00    -0.071 C 
ATOM     40  H16 non d ame     -32.148   9.073  27.757  0.00  0.00     0.028 H 
ATOM     41  H17 non d ame     -33.073   8.179  26.526  0.00  0.00     0.028 H 
ATOM     42  H18 non d ame     -31.478   8.855  26.122  0.00  0.00     0.028 H 
ENDBRANCH  33  39
ENDBRANCH   7  33
ENDBRANCH   4   7
ENDBRANCH   1   3
BRANCH   1  43
ATOM     43  C15 non d ame     -32.448  15.843  25.026  0.00  0.00     0.240 C 
ATOM     44  O5  non d ame     -32.181  16.969  24.755  0.00  0.00    -0.271 OA
ATOM     45  N6  non d ame     -33.836  15.489  25.437  0.00  0.00    -0.355 N 
ATOM     46  H46 non d ame     -34.076  14.535  25.665  0.00  0.00     0.162 HD
BRANCH  45  47
ATOM     47  C20 non d ame     -34.871  16.544  25.514  0.00  0.00     0.013 C 
ATOM     48  H30 non d ame     -34.658  17.279  24.737  0.00  0.00     0.072 H 
BRANCH  47  49
ATOM     49  C21 non d ame     -34.816  17.201  26.875  0.00  0.00    -0.038 C 
ATOM     50  H31 non d ame     -34.078  18.000  26.786  0.00  0.00     0.036 H 
ATOM     51  H32 non d ame     -35.848  17.437  27.129  0.00  0.00     0.036 H 
BRANCH  49  52
ATOM     52  C22 non d ame     -34.300  16.252  27.978  0.00  0.00     0.018 C 
ATOM     53  H33 non d ame     -35.074  16.241  28.744  0.00  0.00     0.048 H 
ATOM     54  H34 non d ame     -34.027  15.327  27.467  0.00  0.00     0.048 H 
BRANCH  52  55
ATOM     55  C23 non d ame     -33.008  16.751  28.680  0.00  0.00     0.259 C 
ATOM     56  O7  non d ame     -32.631  17.868  28.529  0.00  0.00    -0.265 OA
BRANCH  55  57
ATOM     57  O8  non d ame     -32.268  15.853  29.499  0.00  0.00    -0.317 OA
BRANCH  57  58
ATOM     58  C29 non d ame     -31.550  14.856  28.765  0.00  0.00     0.052 C 
ATOM     59  H47 non d ame     -31.957  14.883  27.755  0.00  0.00     0.082 H 
ATOM     60  H48 non d ame     -30.494  15.068  28.934  0.00  0.00     0.082 H 
BRANCH  58  61
ATOM     61  C35 non d ame     -31.878  13.473  29.390  0.00  0.00    -0.034 A 
ATOM     62  C30 non d ame     -31.025  12.918  30.339  0.00  0.00    -0.075 A 
ATOM     63  C31 non d ame     -31.320  11.675  30.900  0.00  0.00    -0.082 A 
ATOM     64  H49 non d ame     -30.127  13.455  30.643  0.00  0.00     0.084 H 
ATOM     65  C32 non d ame     -32.470  10.987  30.506  0.00  0.00    -0.083 A 
ATOM     66  H50 non d ame     -30.650  11.244  31.645  0.00  0.00     0.083 H 
ATOM     67  C33 non d ame     -33.316  11.543  29.557  0.00  0.00    -0.082 A 
ATOM     68  H51 non d ame     -32.708  10.016  30.941  0.00  0.00     0.083 H 
ATOM     69  C34 non d ame     -33.027  12.785  28.995  0.00  0.00    -0.075 A 
ATOM     70  H52 non d ame     -34.212  11.003  29.250  0.00  0.00     0.083 H 
ATOM     71  H53 non d ame     -33.697  13.216  28.251  0.00  0.00     0.084 H 
ENDBRANCH  58  61
ENDBRANCH  57  58
ENDBRANCH  55  57
ENDBRANCH  52  55
ENDBRANCH  49  52
ENDBRANCH  47  49
BRANCH  47  72
ATOM     72  C24 non d ame     -36.252  15.930  25.299  0.00  0.00    -0.039 C 
ATOM     73  H35 non d ame     -36.737  15.960  26.275  0.00  0.00     0.036 H 
ATOM     74  H36 non d ame     -36.684  16.474  24.459  0.00  0.00     0.036 H 
BRANCH  72  75
ATOM     75  C25 non d ame     -36.156  14.391  24.866  0.00  0.00    -0.001 C 
ATOM     76  C26 non d ame     -36.957  14.157  23.449  0.00  0.00    -0.035 C 
ATOM     77  C27 non d ame     -37.817  13.122  23.599  0.00  0.00     0.085 C 
ATOM     78  H38 non d ame     -37.611  15.005  23.245  0.00  0.00     0.036 H 
ATOM     79  H39 non d ame     -36.266  13.805  22.683  0.00  0.00     0.036 H 
ATOM     80  N5  non d ame     -37.914  12.840  25.079  0.00  0.00    -0.049 N 
ATOM     81  H40 non d ame     -38.780  13.489  23.243  0.00  0.00     0.075 H 
ATOM     82  H41 non d ame     -37.342  12.274  23.107  0.00  0.00     0.075 H 
ATOM     83  C28 non d ame     -36.676  13.619  25.762  0.00  0.00     0.193 C 
ATOM     84  H42 non d ame     -38.775  13.263  25.396  0.00  0.00     0.280 HD
ATOM     85  H43 non d ame     -37.770  11.846  25.190  0.00  0.00     0.280 HD
ATOM     86  H44 non d ame     -35.792  13.074  26.091  0.00  0.00     0.129 H 
ATOM     87  H37 non d ame     -35.138  14.006  24.930  0.00  0.00     0.046 H 
BRANCH  83  88
ATOM     88  O6  non d ame     -37.123  14.348  26.907  0.00  0.00    -0.369 OA
ATOM     89  H45 non d ame     -36.374  14.547  27.472  0.00  0.00     0.212 HD
ENDBRANCH  83  88
ENDBRANCH  72  75
ENDBRANCH  47  72
ENDBRANCH  45  47
ENDBRANCH   1  43
BRANCH   1  90
ATOM     90  C16 non d ame     -30.342  15.115  23.862  0.00  0.00    -0.035 C 
ATOM     91  H21 non d ame     -30.448  16.191  23.724  0.00  0.00     0.037 H 
ATOM     92  H22 non d ame     -29.393  14.701  24.200  0.00  0.00     0.037 H 
BRANCH  90  93
ATOM     93  C17 non d ame     -30.639  14.463  22.474  0.00  0.00    -0.059 C 
ATOM     94  H23 non d ame     -31.470  13.770  22.605  0.00  0.00     0.038 H 
BRANCH  93  95
ATOM     95  C18 non d ame     -31.063  15.520  21.405  0.00  0.00    -0.073 C 
ATOM     96  H24 non d ame     -32.055  15.276  21.026  0.00  0.00     0.028 H 
ATOM     97  H25 non d ame     -31.083  16.510  21.861  0.00  0.00     0.028 H 
ATOM     98  H26 non d ame     -30.348  15.513  20.583  0.00  0.00     0.028 H 
ENDBRANCH  93  95
BRANCH  93  99
ATOM     99  C19 non d ame     -29.440  13.646  21.986  0.00  0.00    -0.073 C 
ATOM    100  H27 non d ame     -29.377  12.717  22.554  0.00  0.00     0.028 H 
ATOM    101  H28 non d ame     -29.563  13.416  20.928  0.00  0.00     0.028 H 
ATOM    102  H29 non d ame     -28.526  14.222  22.128  0.00  0.00     0.028 H 
ENDBRANCH  93  99
ENDBRANCH  90  93
ENDBRANCH   1  90
TORSDOF 26
ENDMDL
MODEL 17
REMARK VINA RESULT:      -6.3      3.291      7.057
REMARK  26 active torsions:
REMARK  status: ('A' for Active; 'I' for Inactive)
REMARK    1  A    between atoms: C2_2  and  C3_3 
REMARK    2  A    between atoms: C4_6  and  C5_7 
REMARK       I    between atoms: C5_7  and  N2_9 
REMARK    3  A    between atoms: N2_9  and  C6_10 
REMARK    4  A    between atoms: C6_10  and  C7_11 
REMARK    5  A    between atoms: C6_10  and  C8_13 
REMARK       I    between atoms: C7_11  and  N3_14 
REMARK    6  A    between atoms: N3_14  and  C9_15 
REMARK    7  A    between atoms: C9_15  and  C10_16 
REMARK    8  A    between atoms: C9_15  and  C11_18 
REMARK       I    between atoms: C10_16  and  N4_21 
REMARK    9  A    between atoms: C11_18  and  C12_19 
REMARK   10  A    between atoms: C11_18  and  C13_20 
REMARK   11  A    between atoms: N4_21  and  C14_22 
REMARK   12  A    between atoms: C14_22  and  C15_23 
REMARK   13  A    between atoms: C14_22  and  C16_25 
REMARK       I    between atoms: C15_23  and  N6_40 
REMARK   14  A    between atoms: C16_25  and  C17_26 
REMARK   15  A    between atoms: C17_26  and  C18_27 
REMARK   16  A    between atoms: C17_26  and  C19_28 
REMARK   17  A    between atoms: C20_29  and  C21_30 
REMARK   18  A    between atoms: C20_29  and  C24_33 
REMARK   19  A    between atoms: C20_29  and  N6_40 
REMARK   20  A    between atoms: C21_30  and  C22_31 
REMARK   21  A    between atoms: C22_31  and  C23_32 
REMARK   22  A    between atoms: C23_32  and  O8_43 
REMARK   23  A    between atoms: C24_33  and  C25_34 
REMARK   24  A    between atoms: C28_38  and  O6_39 
REMARK   25  A    between atoms: C29_42  and  O8_43 
REMARK   26  A    between atoms: C29_42  and  C35_49 
ROOT
ATOM      1  C14 non d ame     -32.869  11.499  25.681  0.00  0.00     0.089 C 
ATOM      2  H20 non d ame     -33.822  11.537  25.153  0.00  0.00     0.087 H 
ENDROOT
BRANCH   1   3
ATOM      3  N4  non d ame     -32.107  10.388  25.129  0.00  0.00    -0.346 N 
ATOM      4  C10 non d ame     -32.764   9.405  24.193  0.00  0.00     0.241 C 
ATOM      5  O4  non d ame     -33.908   9.526  23.901  0.00  0.00    -0.271 OA
ATOM      6  H19 non d ame     -31.136  10.302  25.391  0.00  0.00     0.163 HD
BRANCH   4   7
ATOM      7  C9  non d ame     -31.959   8.265  23.627  0.00  0.00     0.092 C 
ATOM      8  H11 non d ame     -31.062   8.124  24.231  0.00  0.00     0.088 H 
BRANCH   7   9
ATOM      9  N3  non d ame     -32.738   7.027  23.710  0.00  0.00    -0.346 N 
ATOM     10  C7  non d ame     -32.419   6.041  24.713  0.00  0.00     0.240 C 
ATOM     11  O3  non d ame     -31.537   6.227  25.460  0.00  0.00    -0.271 OA
ATOM     12  H10 non d ame     -33.500   6.851  23.072  0.00  0.00     0.163 HD
BRANCH  10  13
ATOM     13  C6  non d ame     -33.250   4.722  24.795  0.00  0.00     0.086 C 
ATOM     14  H6  non d ame     -32.693   3.900  25.244  0.00  0.00     0.086 H 
BRANCH  13  15
ATOM     15  N2  non d ame     -34.410   4.949  25.641  0.00  0.00    -0.343 N 
ATOM     16  C5  non d ame     -34.353   4.580  27.058  0.00  0.00     0.273 C 
ATOM     17  O2  non d ame     -33.371   4.099  27.506  0.00  0.00    -0.266 OA
ATOM     18  H5  non d ame     -35.246   5.357  25.249  0.00  0.00     0.163 HD
BRANCH  16  19
ATOM     19  C4  non d ame     -35.571   4.815  27.964  0.00  0.00     0.154 A 
ATOM     20  C1  non d ame     -35.621   5.597  29.161  0.00  0.00    -0.017 A 
ATOM     21  C2  non d ame     -36.956   5.492  29.609  0.00  0.00     0.077 A 
ATOM     22  H1  non d ame     -34.812   6.155  29.633  0.00  0.00     0.091 H 
ATOM     23  O1  non d ame     -37.592   4.738  28.760  0.00  0.00    -0.218 OA
ATOM     24  N1  non d ame     -36.804   4.330  27.792  0.00  0.00    -0.123 NA
BRANCH  21  25
ATOM     25  C3  non d ame     -37.543   6.144  30.854  0.00  0.00    -0.029 C 
ATOM     26  H2  non d ame     -38.316   5.498  31.272  0.00  0.00     0.036 H 
ATOM     27  H3  non d ame     -36.756   6.290  31.593  0.00  0.00     0.036 H 
ATOM     28  H4  non d ame     -37.978   7.107  30.591  0.00  0.00     0.036 H 
ENDBRANCH  21  25
ENDBRANCH  16  19
ENDBRANCH  13  15
BRANCH  13  29
ATOM     29  C8  non d ame     -33.691   4.316  23.412  0.00  0.00    -0.049 C 
ATOM     30  H7  non d ame     -32.843   3.903  22.866  0.00  0.00     0.030 H 
ATOM     31  H8  non d ame     -34.475   3.562  23.488  0.00  0.00     0.030 H 
ATOM     32  H9  non d ame     -34.075   5.188  22.882  0.00  0.00     0.030 H 
ENDBRANCH  13  29
ENDBRANCH  10  13
ENDBRANCH   7   9
BRANCH   7  33
ATOM     33  C11 non d ame     -31.618   8.561  22.137  0.00  0.00    -0.033 C 
ATOM     34  H12 non d ame     -32.132   9.482  21.859  0.00  0.00     0.042 H 
BRANCH  33  35
ATOM     35  C12 non d ame     -30.088   8.800  21.939  0.00  0.00    -0.071 C 
ATOM     36  H13 non d ame     -29.531   8.200  22.659  0.00  0.00     0.028 H 
ATOM     37  H14 non d ame     -29.804   8.510  20.928  0.00  0.00     0.028 H 
ATOM     38  H15 non d ame     -29.862   9.855  22.093  0.00  0.00     0.028 H 
ENDBRANCH  33  35
BRANCH  33  39
ATOM     39  C13 non d ame     -32.138   7.419  21.206  0.00  0.00    -0.071 C 
ATOM     40  H16 non d ame     -31.651   6.481  21.475  0.00  0.00     0.028 H 
ATOM     41  H17 non d ame     -33.217   7.316  21.325  0.00  0.00     0.028 H 
ATOM     42  H18 non d ame     -31.910   7.663  20.169  0.00  0.00     0.028 H 
ENDBRANCH  33  39
ENDBRANCH   7  33
ENDBRANCH   4   7
ENDBRANCH   1   3
BRANCH   1  43
ATOM     43  C15 non d ame     -32.044  12.804  25.499  0.00  0.00     0.240 C 
ATOM     44  O5  non d ame     -30.906  12.837  25.840  0.00  0.00    -0.271 OA
ATOM     45  N6  non d ame     -32.669  14.012  24.889  0.00  0.00    -0.355 N 
ATOM     46  H46 non d ame     -33.633  13.995  24.589  0.00  0.00     0.162 HD
BRANCH  45  47
ATOM     47  C20 non d ame     -31.870  15.246  24.720  0.00  0.00     0.013 C 
ATOM     48  H30 non d ame     -30.850  15.031  25.037  0.00  0.00     0.072 H 
BRANCH  47  49
ATOM     49  C21 non d ame     -32.458  16.343  25.579  0.00  0.00    -0.038 C 
ATOM     50  H31 non d ame     -31.616  16.772  26.125  0.00  0.00     0.036 H 
ATOM     51  H32 non d ame     -33.043  16.965  24.903  0.00  0.00     0.036 H 
BRANCH  49  52
ATOM     52  C22 non d ame     -33.441  15.809  26.643  0.00  0.00     0.018 C 
ATOM     53  H33 non d ame     -34.436  16.045  26.270  0.00  0.00     0.048 H 
ATOM     54  H34 non d ame     -33.155  14.770  26.813  0.00  0.00     0.048 H 
BRANCH  52  55
ATOM     55  C23 non d ame     -33.319  16.518  28.020  0.00  0.00     0.259 C 
ATOM     56  O7  non d ame     -33.818  17.582  28.198  0.00  0.00    -0.265 OA
BRANCH  55  57
ATOM     57  O8  non d ame     -32.590  15.886  29.067  0.00  0.00    -0.317 OA
BRANCH  57  58
ATOM     58  C29 non d ame     -31.568  14.996  28.608  0.00  0.00     0.052 C 
ATOM     59  H47 non d ame     -31.813  14.777  27.569  0.00  0.00     0.082 H 
ATOM     60  H48 non d ame     -30.623  15.478  28.857  0.00  0.00     0.082 H 
BRANCH  58  61
ATOM     61  C35 non d ame     -31.678  13.680  29.425  0.00  0.00    -0.034 A 
ATOM     62  C30 non d ame     -32.917  13.252  29.893  0.00  0.00    -0.075 A 
ATOM     63  C31 non d ame     -33.015  12.070  30.627  0.00  0.00    -0.082 A 
ATOM     64  H49 non d ame     -33.809  13.842  29.685  0.00  0.00     0.084 H 
ATOM     65  C32 non d ame     -31.869  11.317  30.894  0.00  0.00    -0.083 A 
ATOM     66  H50 non d ame     -33.988  11.737  30.991  0.00  0.00     0.083 H 
ATOM     67  C33 non d ame     -30.635  11.750  30.428  0.00  0.00    -0.082 A 
ATOM     68  H51 non d ame     -31.938  10.392  31.466  0.00  0.00     0.083 H 
ATOM     69  C34 non d ame     -30.532  12.929  29.693  0.00  0.00    -0.075 A 
ATOM     70  H52 non d ame     -29.742  11.162  30.640  0.00  0.00     0.083 H 
ATOM     71  H53 non d ame     -29.559  13.262  29.329  0.00  0.00     0.084 H 
ENDBRANCH  58  61
ENDBRANCH  57  58
ENDBRANCH  55  57
ENDBRANCH  52  55
ENDBRANCH  49  52
ENDBRANCH  47  49
BRANCH  47  72
ATOM     72  C24 non d ame     -31.890  15.679  23.256  0.00  0.00    -0.039 C 
ATOM     73  H35 non d ame     -32.871  15.384  22.880  0.00  0.00     0.036 H 
ATOM     74  H36 non d ame     -31.603  16.730  23.260  0.00  0.00     0.036 H 
BRANCH  72  75
ATOM     75  C25 non d ame     -30.795  14.893  22.390  0.00  0.00    -0.001 C 
ATOM     76  C26 non d ame     -29.442  14.648  23.291  0.00  0.00    -0.035 C 
ATOM     77  C27 non d ame     -28.366  15.079  22.589  0.00  0.00     0.085 C 
ATOM     78  H38 non d ame     -29.452  15.297  24.166  0.00  0.00     0.036 H 
ATOM     79  H39 non d ame     -29.258  13.579  23.406  0.00  0.00     0.036 H 
ATOM     80  N5  non d ame     -28.893  15.895  21.433  0.00  0.00    -0.049 N 
ATOM     81  H40 non d ame     -27.820  15.736  23.267  0.00  0.00     0.075 H 
ATOM     82  H41 non d ame     -27.891  14.179  22.201  0.00  0.00     0.075 H 
ATOM     83  C28 non d ame     -30.468  15.559  21.333  0.00  0.00     0.193 C 
ATOM     84  H42 non d ame     -28.786  16.865  21.694  0.00  0.00     0.280 HD
ATOM     85  H43 non d ame     -28.435  15.543  20.603  0.00  0.00     0.280 HD
ATOM     86  H44 non d ame     -30.845  14.895  20.556  0.00  0.00     0.129 H 
ATOM     87  H37 non d ame     -31.216  14.027  21.880  0.00  0.00     0.046 H 
BRANCH  83  88
ATOM     88  O6  non d ame     -31.222  16.766  21.202  0.00  0.00    -0.369 OA
ATOM     89  H45 non d ame     -31.400  17.129  22.073  0.00  0.00     0.212 HD
ENDBRANCH  83  88
ENDBRANCH  72  75
ENDBRANCH  47  72
ENDBRANCH  45  47
ENDBRANCH   1  43
BRANCH   1  90
ATOM     90  C16 non d ame     -33.109  11.248  27.161  0.00  0.00    -0.035 C 
ATOM     91  H21 non d ame     -32.145  10.938  27.562  0.00  0.00     0.037 H 
ATOM     92  H22 non d ame     -33.588  12.154  27.533  0.00  0.00     0.037 H 
BRANCH  90  93
ATOM     93  C17 non d ame     -34.101  10.076  27.445  0.00  0.00    -0.059 C 
ATOM     94  H23 non d ame     -34.355   9.617  26.490  0.00  0.00     0.038 H 
BRANCH  93  95
ATOM     95  C18 non d ame     -33.466   8.973  28.350  0.00  0.00    -0.073 C 
ATOM     96  H24 non d ame     -33.304   8.069  27.763  0.00  0.00     0.028 H 
ATOM     97  H25 non d ame     -32.511   9.327  28.739  0.00  0.00     0.028 H 
ATOM     98  H26 non d ame     -34.136   8.752  29.180  0.00  0.00     0.028 H 
ENDBRANCH  93  95
BRANCH  93  99
ATOM     99  C19 non d ame     -35.404  10.598  28.058  0.00  0.00    -0.073 C 
ATOM    100  H27 non d ame     -35.805  11.397  27.433  0.00  0.00     0.028 H 
ATOM    101  H28 non d ame     -36.129   9.787  28.118  0.00  0.00     0.028 H 
ATOM    102  H29 non d ame     -35.206  10.983  29.058  0.00  0.00     0.028 H 
ENDBRANCH  93  99
ENDBRANCH  90  93
ENDBRANCH   1  90
TORSDOF 26
ENDMDL
MODEL 18
REMARK VINA RESULT:      -6.3      3.682      9.522
REMARK  26 active torsions:
REMARK  status: ('A' for Active; 'I' for Inactive)
REMARK    1  A    between atoms: C2_2  and  C3_3 
REMARK    2  A    between atoms: C4_6  and  C5_7 
REMARK       I    between atoms: C5_7  and  N2_9 
REMARK    3  A    between atoms: N2_9  and  C6_10 
REMARK    4  A    between atoms: C6_10  and  C7_11 
REMARK    5  A    between atoms: C6_10  and  C8_13 
REMARK       I    between atoms: C7_11  and  N3_14 
REMARK    6  A    between atoms: N3_14  and  C9_15 
REMARK    7  A    between atoms: C9_15  and  C10_16 
REMARK    8  A    between atoms: C9_15  and  C11_18 
REMARK       I    between atoms: C10_16  and  N4_21 
REMARK    9  A    between atoms: C11_18  and  C12_19 
REMARK   10  A    between atoms: C11_18  and  C13_20 
REMARK   11  A    between atoms: N4_21  and  C14_22 
REMARK   12  A    between atoms: C14_22  and  C15_23 
REMARK   13  A    between atoms: C14_22  and  C16_25 
REMARK       I    between atoms: C15_23  and  N6_40 
REMARK   14  A    between atoms: C16_25  and  C17_26 
REMARK   15  A    between atoms: C17_26  and  C18_27 
REMARK   16  A    between atoms: C17_26  and  C19_28 
REMARK   17  A    between atoms: C20_29  and  C21_30 
REMARK   18  A    between atoms: C20_29  and  C24_33 
REMARK   19  A    between atoms: C20_29  and  N6_40 
REMARK   20  A    between atoms: C21_30  and  C22_31 
REMARK   21  A    between atoms: C22_31  and  C23_32 
REMARK   22  A    between atoms: C23_32  and  O8_43 
REMARK   23  A    between atoms: C24_33  and  C25_34 
REMARK   24  A    between atoms: C28_38  and  O6_39 
REMARK   25  A    between atoms: C29_42  and  O8_43 
REMARK   26  A    between atoms: C29_42  and  C35_49 
ROOT
ATOM      1  C14 non d ame     -34.838   8.434  31.220  0.00  0.00     0.089 C 
ATOM      2  H20 non d ame     -33.974   8.708  31.825  0.00  0.00     0.087 H 
ENDROOT
BRANCH   1   3
ATOM      3  N4  non d ame     -34.757   9.187  29.977  0.00  0.00    -0.346 N 
ATOM      4  C10 non d ame     -33.673  10.216  29.778  0.00  0.00     0.241 C 
ATOM      5  O4  non d ame     -32.879  10.424  30.634  0.00  0.00    -0.271 OA
ATOM      6  H19 non d ame     -35.445   8.996  29.261  0.00  0.00     0.163 HD
BRANCH   4   7
ATOM      7  C9  non d ame     -33.602  10.981  28.483  0.00  0.00     0.092 C 
ATOM      8  H11 non d ame     -34.374  11.752  28.478  0.00  0.00     0.088 H 
BRANCH   7   9
ATOM      9  N3  non d ame     -32.308  11.663  28.387  0.00  0.00    -0.346 N 
ATOM     10  C7  non d ame     -32.256  13.103  28.318  0.00  0.00     0.240 C 
ATOM     11  O3  non d ame     -33.245  13.728  28.336  0.00  0.00    -0.271 OA
ATOM     12  H10 non d ame     -31.447  11.137  28.369  0.00  0.00     0.163 HD
BRANCH  10  13
ATOM     13  C6  non d ame     -30.875  13.823  28.214  0.00  0.00     0.086 C 
ATOM     14  H6  non d ame     -30.037  13.127  28.200  0.00  0.00     0.086 H 
BRANCH  13  15
ATOM     15  N2  non d ame     -30.823  14.561  26.962  0.00  0.00    -0.343 N 
ATOM     16  C5  non d ame     -30.947  13.839  25.693  0.00  0.00     0.273 C 
ATOM     17  O2  non d ame     -31.086  12.666  25.691  0.00  0.00    -0.266 OA
ATOM     18  H5  non d ame     -30.699  15.563  26.974  0.00  0.00     0.163 HD
BRANCH  16  19
ATOM     19  C4  non d ame     -30.895  14.607  24.364  0.00  0.00     0.154 A 
ATOM     20  C1  non d ame     -30.691  14.060  23.057  0.00  0.00    -0.017 A 
ATOM     21  C2  non d ame     -30.728  15.173  22.187  0.00  0.00     0.077 A 
ATOM     22  H1  non d ame     -30.537  13.017  22.782  0.00  0.00     0.091 H 
ATOM     23  O1  non d ame     -30.933  16.230  22.919  0.00  0.00    -0.218 OA
ATOM     24  N1  non d ame     -31.033  15.924  24.192  0.00  0.00    -0.123 NA
BRANCH  21  25
ATOM     25  C3  non d ame     -30.561  15.141  20.674  0.00  0.00    -0.029 C 
ATOM     26  H2  non d ame     -30.052  16.047  20.345  0.00  0.00     0.036 H 
ATOM     27  H3  non d ame     -29.970  14.270  20.392  0.00  0.00     0.036 H 
ATOM     28  H4  non d ame     -31.541  15.083  20.201  0.00  0.00     0.036 H 
ENDBRANCH  21  25
ENDBRANCH  16  19
ENDBRANCH  13  15
BRANCH  13  29
ATOM     29  C8  non d ame     -30.709  14.767  29.377  0.00  0.00    -0.049 C 
ATOM     30  H7  non d ame     -31.607  15.375  29.484  0.00  0.00     0.030 H 
ATOM     31  H8  non d ame     -30.549  14.193  30.290  0.00  0.00     0.030 H 
ATOM     32  H9  non d ame     -29.850  15.415  29.200  0.00  0.00     0.030 H 
ENDBRANCH  13  29
ENDBRANCH  10  13
ENDBRANCH   7   9
BRANCH   7  33
ATOM     33  C11 non d ame     -33.755   9.994  27.289  0.00  0.00    -0.033 C 
ATOM     34  H12 non d ame     -34.417   9.190  27.611  0.00  0.00     0.042 H 
BRANCH  33  35
ATOM     35  C12 non d ame     -34.420  10.687  26.059  0.00  0.00    -0.071 C 
ATOM     36  H13 non d ame     -35.310  11.226  26.382  0.00  0.00     0.028 H 
ATOM     37  H14 non d ame     -33.714  11.386  25.611  0.00  0.00     0.028 H 
ATOM     38  H15 non d ame     -34.700   9.932  25.324  0.00  0.00     0.028 H 
ENDBRANCH  33  35
BRANCH  33  39
ATOM     39  C13 non d ame     -32.378   9.361  26.907  0.00  0.00    -0.071 C 
ATOM     40  H16 non d ame     -32.259   8.410  27.426  0.00  0.00     0.028 H 
ATOM     41  H17 non d ame     -32.340   9.195  25.830  0.00  0.00     0.028 H 
ATOM     42  H18 non d ame     -31.574  10.037  27.197  0.00  0.00     0.028 H 
ENDBRANCH  33  39
ENDBRANCH   7  33
ENDBRANCH   4   7
ENDBRANCH   1   3
BRANCH   1  43
ATOM     43  C15 non d ame     -34.860   6.917  30.880  0.00  0.00     0.240 C 
ATOM     44  O5  non d ame     -35.167   6.129  31.715  0.00  0.00    -0.271 OA
ATOM     45  N6  non d ame     -34.509   6.446  29.510  0.00  0.00    -0.355 N 
ATOM     46  H46 non d ame     -34.252   7.107  28.791  0.00  0.00     0.162 HD
BRANCH  45  47
ATOM     47  C20 non d ame     -34.537   5.000  29.201  0.00  0.00     0.013 C 
ATOM     48  H30 non d ame     -34.626   4.458  30.143  0.00  0.00     0.072 H 
BRANCH  47  49
ATOM     49  C21 non d ame     -33.253   4.613  28.502  0.00  0.00    -0.038 C 
ATOM     50  H31 non d ame     -32.500   4.541  29.289  0.00  0.00     0.036 H 
ATOM     51  H32 non d ame     -33.497   3.739  27.901  0.00  0.00     0.036 H 
BRANCH  49  52
ATOM     52  C22 non d ame     -32.756   5.695  27.520  0.00  0.00     0.018 C 
ATOM     53  H33 non d ame     -33.205   6.628  27.856  0.00  0.00     0.048 H 
ATOM     54  H34 non d ame     -31.670   5.592  27.493  0.00  0.00     0.048 H 
BRANCH  52  55
ATOM     55  C23 non d ame     -33.242   5.486  26.059  0.00  0.00     0.259 C 
ATOM     56  O7  non d ame     -33.075   4.446  25.510  0.00  0.00    -0.265 OA
BRANCH  55  57
ATOM     57  O8  non d ame     -33.879   6.560  25.376  0.00  0.00    -0.317 OA
BRANCH  57  58
ATOM     58  C29 non d ame     -33.797   6.472  23.951  0.00  0.00     0.052 C 
ATOM     59  H47 non d ame     -33.550   5.433  23.733  0.00  0.00     0.082 H 
ATOM     60  H48 non d ame     -34.724   6.903  23.574  0.00  0.00     0.082 H 
BRANCH  58  61
ATOM     61  C35 non d ame     -32.616   7.365  23.483  0.00  0.00    -0.034 A 
ATOM     62  C30 non d ame     -32.802   8.734  23.318  0.00  0.00    -0.075 A 
ATOM     63  C31 non d ame     -31.742   9.537  22.897  0.00  0.00    -0.082 A 
ATOM     64  H49 non d ame     -33.777   9.179  23.517  0.00  0.00     0.084 H 
ATOM     65  C32 non d ame     -30.493   8.965  22.639  0.00  0.00    -0.083 A 
ATOM     66  H50 non d ame     -31.890  10.610  22.770  0.00  0.00     0.083 H 
ATOM     67  C33 non d ame     -30.314   7.598  22.802  0.00  0.00    -0.082 A 
ATOM     68  H51 non d ame     -29.660   9.585  22.311  0.00  0.00     0.083 H 
ATOM     69  C34 non d ame     -31.370   6.793  23.224  0.00  0.00    -0.075 A 
ATOM     70  H52 non d ame     -29.339   7.154  22.598  0.00  0.00     0.083 H 
ATOM     71  H53 non d ame     -31.221   5.720  23.351  0.00  0.00     0.084 H 
ENDBRANCH  58  61
ENDBRANCH  57  58
ENDBRANCH  55  57
ENDBRANCH  52  55
ENDBRANCH  49  52
ENDBRANCH  47  49
BRANCH  47  72
ATOM     72  C24 non d ame     -35.726   4.687  28.295  0.00  0.00    -0.039 C 
ATOM     73  H35 non d ame     -35.349   4.796  27.277  0.00  0.00     0.036 H 
ATOM     74  H36 non d ame     -36.104   3.724  28.636  0.00  0.00     0.036 H 
BRANCH  72  75
ATOM     75  C25 non d ame     -36.908   5.752  28.479  0.00  0.00    -0.001 C 
ATOM     76  C26 non d ame     -38.132   5.084  29.348  0.00  0.00    -0.035 C 
ATOM     77  C27 non d ame     -39.295   5.267  28.677  0.00  0.00     0.085 C 
ATOM     78  H38 non d ame     -38.023   4.000  29.376  0.00  0.00     0.036 H 
ATOM     79  H39 non d ame     -38.282   5.641  30.273  0.00  0.00     0.036 H 
ATOM     80  N5  non d ame     -38.932   5.707  27.279  0.00  0.00    -0.049 N 
ATOM     81  H40 non d ame     -39.762   4.283  28.629  0.00  0.00     0.075 H 
ATOM     82  H41 non d ame     -39.800   6.086  29.187  0.00  0.00     0.075 H 
ATOM     83  C28 non d ame     -37.376   6.133  27.337  0.00  0.00     0.193 C 
ATOM     84  H42 non d ame     -39.021   4.892  26.689  0.00  0.00     0.280 HD
ATOM     85  H43 non d ame     -39.485   6.532  27.087  0.00  0.00     0.280 HD
ATOM     86  H44 non d ame     -37.089   7.184  27.346  0.00  0.00     0.129 H 
ATOM     87  H37 non d ame     -36.541   6.725  28.806  0.00  0.00     0.046 H 
BRANCH  83  88
ATOM     88  O6  non d ame     -36.665   5.552  26.242  0.00  0.00    -0.369 OA
ATOM     89  H45 non d ame     -37.259   4.994  25.734  0.00  0.00     0.212 HD
ENDBRANCH  83  88
ENDBRANCH  72  75
ENDBRANCH  47  72
ENDBRANCH  45  47
ENDBRANCH   1  43
BRANCH   1  90
ATOM     90  C16 non d ame     -36.118   8.814  31.947  0.00  0.00    -0.035 C 
ATOM     91  H21 non d ame     -36.385   7.939  32.538  0.00  0.00     0.037 H 
ATOM     92  H22 non d ame     -35.897   9.759  32.444  0.00  0.00     0.037 H 
BRANCH  90  93
ATOM     93  C17 non d ame     -37.324   9.087  30.994  0.00  0.00    -0.059 C 
ATOM     94  H23 non d ame     -36.996   8.876  29.976  0.00  0.00     0.038 H 
BRANCH  93  95
ATOM     95  C18 non d ame     -38.542   8.159  31.305  0.00  0.00    -0.073 C 
ATOM     96  H24 non d ame     -38.939   8.399  32.291  0.00  0.00     0.028 H 
ATOM     97  H25 non d ame     -39.318   8.314  30.555  0.00  0.00     0.028 H 
ATOM     98  H26 non d ame     -38.221   7.118  31.285  0.00  0.00     0.028 H 
ENDBRANCH  93  95
BRANCH  93  99
ATOM     99  C19 non d ame     -37.736  10.560  31.042  0.00  0.00    -0.073 C 
ATOM    100  H27 non d ame     -37.854  10.872  32.080  0.00  0.00     0.028 H 
ATOM    101  H28 non d ame     -36.967  11.169  30.566  0.00  0.00     0.028 H 
ATOM    102  H29 non d ame     -38.680  10.691  30.513  0.00  0.00     0.028 H 
ENDBRANCH  93  99
ENDBRANCH  90  93
ENDBRANCH   1  90
TORSDOF 26
ENDMDL
MODEL 19
REMARK VINA RESULT:      -6.3      2.503      7.789
REMARK  26 active torsions:
REMARK  status: ('A' for Active; 'I' for Inactive)
REMARK    1  A    between atoms: C2_2  and  C3_3 
REMARK    2  A    between atoms: C4_6  and  C5_7 
REMARK       I    between atoms: C5_7  and  N2_9 
REMARK    3  A    between atoms: N2_9  and  C6_10 
REMARK    4  A    between atoms: C6_10  and  C7_11 
REMARK    5  A    between atoms: C6_10  and  C8_13 
REMARK       I    between atoms: C7_11  and  N3_14 
REMARK    6  A    between atoms: N3_14  and  C9_15 
REMARK    7  A    between atoms: C9_15  and  C10_16 
REMARK    8  A    between atoms: C9_15  and  C11_18 
REMARK       I    between atoms: C10_16  and  N4_21 
REMARK    9  A    between atoms: C11_18  and  C12_19 
REMARK   10  A    between atoms: C11_18  and  C13_20 
REMARK   11  A    between atoms: N4_21  and  C14_22 
REMARK   12  A    between atoms: C14_22  and  C15_23 
REMARK   13  A    between atoms: C14_22  and  C16_25 
REMARK       I    between atoms: C15_23  and  N6_40 
REMARK   14  A    between atoms: C16_25  and  C17_26 
REMARK   15  A    between atoms: C17_26  and  C18_27 
REMARK   16  A    between atoms: C17_26  and  C19_28 
REMARK   17  A    between atoms: C20_29  and  C21_30 
REMARK   18  A    between atoms: C20_29  and  C24_33 
REMARK   19  A    between atoms: C20_29  and  N6_40 
REMARK   20  A    between atoms: C21_30  and  C22_31 
REMARK   21  A    between atoms: C22_31  and  C23_32 
REMARK   22  A    between atoms: C23_32  and  O8_43 
REMARK   23  A    between atoms: C24_33  and  C25_34 
REMARK   24  A    between atoms: C28_38  and  O6_39 
REMARK   25  A    between atoms: C29_42  and  O8_43 
REMARK   26  A    between atoms: C29_42  and  C35_49 
ROOT
ATOM      1  C14 non d ame     -33.282  11.735  28.539  0.00  0.00     0.089 C 
ATOM      2  H20 non d ame     -33.457  12.077  29.559  0.00  0.00     0.087 H 
ENDROOT
BRANCH   1   3
ATOM      3  N4  non d ame     -33.923  10.436  28.398  0.00  0.00    -0.346 N 
ATOM      4  C10 non d ame     -34.152   9.564  29.607  0.00  0.00     0.241 C 
ATOM      5  O4  non d ame     -33.808   9.927  30.682  0.00  0.00    -0.271 OA
ATOM      6  H19 non d ame     -34.207  10.145  27.473  0.00  0.00     0.163 HD
BRANCH   4   7
ATOM      7  C9  non d ame     -34.823   8.225  29.442  0.00  0.00     0.092 C 
ATOM      8  H11 non d ame     -35.745   8.354  28.874  0.00  0.00     0.088 H 
BRANCH   7   9
ATOM      9  N3  non d ame     -33.956   7.336  28.665  0.00  0.00    -0.346 N 
ATOM     10  C7  non d ame     -34.115   7.242  27.235  0.00  0.00     0.240 C 
ATOM     11  O3  non d ame     -34.937   7.875  26.693  0.00  0.00    -0.271 OA
ATOM     12  H10 non d ame     -33.243   6.782  29.118  0.00  0.00     0.163 HD
BRANCH  10  13
ATOM     13  C6  non d ame     -33.191   6.291  26.413  0.00  0.00     0.086 C 
ATOM     14  H6  non d ame     -33.740   5.697  25.682  0.00  0.00     0.086 H 
BRANCH  13  15
ATOM     15  N2  non d ame     -32.236   7.092  25.665  0.00  0.00    -0.343 N 
ATOM     16  C5  non d ame     -32.532   7.458  24.278  0.00  0.00     0.273 C 
ATOM     17  O2  non d ame     -33.538   7.101  23.773  0.00  0.00    -0.266 OA
ATOM     18  H5  non d ame     -31.376   7.389  26.104  0.00  0.00     0.163 HD
BRANCH  16  19
ATOM     19  C4  non d ame     -31.532   8.306  23.476  0.00  0.00     0.154 A 
ATOM     20  C1  non d ame     -31.348   9.723  23.546  0.00  0.00    -0.017 A 
ATOM     21  C2  non d ame     -30.320  10.003  22.619  0.00  0.00     0.077 A 
ATOM     22  H1  non d ame     -31.881  10.439  24.172  0.00  0.00     0.091 H 
ATOM     23  O1  non d ame     -29.960   8.871  22.087  0.00  0.00    -0.218 OA
ATOM     24  N1  non d ame     -30.654   7.867  22.571  0.00  0.00    -0.123 NA
BRANCH  21  25
ATOM     25  C3  non d ame     -29.739  11.375  22.303  0.00  0.00    -0.029 C 
ATOM     26  H2  non d ame     -28.706  11.265  21.971  0.00  0.00     0.036 H 
ATOM     27  H3  non d ame     -30.326  11.845  21.514  0.00  0.00     0.036 H 
ATOM     28  H4  non d ame     -29.768  11.996  23.197  0.00  0.00     0.036 H 
ENDBRANCH  21  25
ENDBRANCH  16  19
ENDBRANCH  13  15
BRANCH  13  29
ATOM     29  C8  non d ame     -32.462   5.360  27.350  0.00  0.00    -0.049 C 
ATOM     30  H7  non d ame     -32.829   4.344  27.211  0.00  0.00     0.030 H 
ATOM     31  H8  non d ame     -31.394   5.394  27.136  0.00  0.00     0.030 H 
ATOM     32  H9  non d ame     -32.637   5.672  28.380  0.00  0.00     0.030 H 
ENDBRANCH  13  29
ENDBRANCH  10  13
ENDBRANCH   7   9
BRANCH   7  33
ATOM     33  C11 non d ame     -35.082   7.600  30.844  0.00  0.00    -0.033 C 
ATOM     34  H12 non d ame     -34.360   8.035  31.536  0.00  0.00     0.042 H 
BRANCH  33  35
ATOM     35  C12 non d ame     -36.508   7.953  31.370  0.00  0.00    -0.071 C 
ATOM     36  H13 non d ame     -36.991   8.642  30.677  0.00  0.00     0.028 H 
ATOM     37  H14 non d ame     -37.102   7.042  31.448  0.00  0.00     0.028 H 
ATOM     38  H15 non d ame     -36.428   8.421  32.351  0.00  0.00     0.028 H 
ENDBRANCH  33  35
BRANCH  33  39
ATOM     39  C13 non d ame     -34.855   6.054  30.817  0.00  0.00    -0.071 C 
ATOM     40  H16 non d ame     -33.945   5.811  31.367  0.00  0.00     0.028 H 
ATOM     41  H17 non d ame     -35.705   5.553  31.280  0.00  0.00     0.028 H 
ATOM     42  H18 non d ame     -34.756   5.719  29.785  0.00  0.00     0.028 H 
ENDBRANCH  33  39
ENDBRANCH   7  33
ENDBRANCH   4   7
ENDBRANCH   1   3
BRANCH   1  43
ATOM     43  C15 non d ame     -33.885  12.703  27.482  0.00  0.00     0.240 C 
ATOM     44  O5  non d ame     -34.086  12.319  26.376  0.00  0.00    -0.271 OA
ATOM     45  N6  non d ame     -34.222  14.107  27.852  0.00  0.00    -0.355 N 
ATOM     46  H46 non d ame     -34.061  14.443  28.792  0.00  0.00     0.162 HD
BRANCH  45  47
ATOM     47  C20 non d ame     -34.798  15.016  26.837  0.00  0.00     0.013 C 
ATOM     48  H30 non d ame     -34.298  14.817  25.888  0.00  0.00     0.072 H 
BRANCH  47  49
ATOM     49  C21 non d ame     -34.560  16.449  27.256  0.00  0.00    -0.038 C 
ATOM     50  H31 non d ame     -34.774  17.054  26.374  0.00  0.00     0.036 H 
ATOM     51  H32 non d ame     -35.140  16.589  28.167  0.00  0.00     0.036 H 
BRANCH  49  52
ATOM     52  C22 non d ame     -33.088  16.728  27.629  0.00  0.00     0.018 C 
ATOM     53  H33 non d ame     -33.121  17.437  28.455  0.00  0.00     0.048 H 
ATOM     54  H34 non d ame     -32.629  15.748  27.770  0.00  0.00     0.048 H 
BRANCH  52  55
ATOM     55  C23 non d ame     -32.276  17.421  26.500  0.00  0.00     0.259 C 
ATOM     56  O7  non d ame     -32.325  18.600  26.359  0.00  0.00    -0.265 OA
BRANCH  55  57
ATOM     57  O8  non d ame     -31.482  16.629  25.625  0.00  0.00    -0.317 OA
BRANCH  57  58
ATOM     58  C29 non d ame     -32.148  16.257  24.414  0.00  0.00     0.052 C 
ATOM     59  H47 non d ame     -32.707  15.352  24.651  0.00  0.00     0.082 H 
ATOM     60  H48 non d ame     -32.673  17.151  24.078  0.00  0.00     0.082 H 
BRANCH  58  61
ATOM     61  C35 non d ame     -31.063  15.902  23.361  0.00  0.00    -0.034 A 
ATOM     62  C30 non d ame     -31.258  16.230  22.023  0.00  0.00    -0.075 A 
ATOM     63  C31 non d ame     -30.284  15.911  21.077  0.00  0.00    -0.082 A 
ATOM     64  H49 non d ame     -32.172  16.736  21.715  0.00  0.00     0.084 H 
ATOM     65  C32 non d ame     -29.113  15.258  21.474  0.00  0.00    -0.083 A 
ATOM     66  H50 non d ame     -30.438  16.171  20.030  0.00  0.00     0.083 H 
ATOM     67  C33 non d ame     -28.925  14.930  22.810  0.00  0.00    -0.082 A 
ATOM     68  H51 non d ame     -28.347  15.006  20.741  0.00  0.00     0.083 H 
ATOM     69  C34 non d ame     -29.895  15.249  23.758  0.00  0.00    -0.075 A 
ATOM     70  H52 non d ame     -28.012  14.419  23.116  0.00  0.00     0.083 H 
ATOM     71  H53 non d ame     -29.739  14.989  24.806  0.00  0.00     0.084 H 
ENDBRANCH  58  61
ENDBRANCH  57  58
ENDBRANCH  55  57
ENDBRANCH  52  55
ENDBRANCH  49  52
ENDBRANCH  47  49
BRANCH  47  72
ATOM     72  C24 non d ame     -36.299  14.764  26.709  0.00  0.00    -0.039 C 
ATOM     73  H35 non d ame     -36.470  13.793  27.175  0.00  0.00     0.036 H 
ATOM     74  H36 non d ame     -36.777  15.655  27.114  0.00  0.00     0.036 H 
BRANCH  72  75
ATOM     75  C25 non d ame     -36.750  14.640  25.177  0.00  0.00    -0.001 C 
ATOM     76  C26 non d ame     -37.925  15.742  24.849  0.00  0.00    -0.035 C 
ATOM     77  C27 non d ame     -38.969  15.107  24.264  0.00  0.00     0.085 C 
ATOM     78  H38 non d ame     -38.347  16.126  25.777  0.00  0.00     0.036 H 
ATOM     79  H39 non d ame     -37.584  16.433  24.078  0.00  0.00     0.036 H 
ATOM     80  N5  non d ame     -38.751  13.626  24.462  0.00  0.00    -0.049 N 
ATOM     81  H40 non d ame     -39.850  15.415  24.828  0.00  0.00     0.075 H 
ATOM     82  H41 non d ame     -38.893  15.338  23.202  0.00  0.00     0.075 H 
ATOM     83  C28 non d ame     -37.212  13.461  24.919  0.00  0.00     0.193 C 
ATOM     84  H42 non d ame     -39.346  13.348  25.229  0.00  0.00     0.280 HD
ATOM     85  H43 non d ame     -38.864  13.197  23.554  0.00  0.00     0.280 HD
ATOM     86  H44 non d ame     -36.460  13.103  24.217  0.00  0.00     0.129 H 
ATOM     87  H37 non d ame     -35.899  14.604  24.497  0.00  0.00     0.046 H 
BRANCH  83  88
ATOM     88  O6  non d ame     -37.124  12.589  26.049  0.00  0.00    -0.369 OA
ATOM     89  H45 non d ame     -36.731  11.756  25.780  0.00  0.00     0.212 HD
ENDBRANCH  83  88
ENDBRANCH  72  75
ENDBRANCH  47  72
ENDBRANCH  45  47
ENDBRANCH   1  43
BRANCH   1  90
ATOM     90  C16 non d ame     -31.789  11.579  28.297  0.00  0.00    -0.035 C 
ATOM     91  H21 non d ame     -31.562  10.543  28.546  0.00  0.00     0.037 H 
ATOM     92  H22 non d ame     -31.621  11.945  27.284  0.00  0.00     0.037 H 
BRANCH  90  93
ATOM     93  C17 non d ame     -30.906  12.461  29.237  0.00  0.00    -0.059 C 
ATOM     94  H23 non d ame     -29.955  11.948  29.374  0.00  0.00     0.038 H 
BRANCH  93  95
ATOM     95  C18 non d ame     -30.607  13.864  28.619  0.00  0.00    -0.073 C 
ATOM     96  H24 non d ame     -29.565  14.126  28.798  0.00  0.00     0.028 H 
ATOM     97  H25 non d ame     -30.794  13.836  27.545  0.00  0.00     0.028 H 
ATOM     98  H26 non d ame     -31.254  14.610  29.081  0.00  0.00     0.028 H 
ENDBRANCH  93  95
BRANCH  93  99
ATOM     99  C19 non d ame     -31.550  12.601  30.619  0.00  0.00    -0.073 C 
ATOM    100  H27 non d ame     -32.361  11.878  30.717  0.00  0.00     0.028 H 
ATOM    101  H28 non d ame     -30.803  12.412  31.389  0.00  0.00     0.028 H 
ATOM    102  H29 non d ame     -31.945  13.609  30.735  0.00  0.00     0.028 H 
ENDBRANCH  93  99
ENDBRANCH  90  93
ENDBRANCH   1  90
TORSDOF 26
ENDMDL
MODEL 20
REMARK VINA RESULT:      -6.3      2.515      7.691
REMARK  26 active torsions:
REMARK  status: ('A' for Active; 'I' for Inactive)
REMARK    1  A    between atoms: C2_2  and  C3_3 
REMARK    2  A    between atoms: C4_6  and  C5_7 
REMARK       I    between atoms: C5_7  and  N2_9 
REMARK    3  A    between atoms: N2_9  and  C6_10 
REMARK    4  A    between atoms: C6_10  and  C7_11 
REMARK    5  A    between atoms: C6_10  and  C8_13 
REMARK       I    between atoms: C7_11  and  N3_14 
REMARK    6  A    between atoms: N3_14  and  C9_15 
REMARK    7  A    between atoms: C9_15  and  C10_16 
REMARK    8  A    between atoms: C9_15  and  C11_18 
REMARK       I    between atoms: C10_16  and  N4_21 
REMARK    9  A    between atoms: C11_18  and  C12_19 
REMARK   10  A    between atoms: C11_18  and  C13_20 
REMARK   11  A    between atoms: N4_21  and  C14_22 
REMARK   12  A    between atoms: C14_22  and  C15_23 
REMARK   13  A    between atoms: C14_22  and  C16_25 
REMARK       I    between atoms: C15_23  and  N6_40 
REMARK   14  A    between atoms: C16_25  and  C17_26 
REMARK   15  A    between atoms: C17_26  and  C18_27 
REMARK   16  A    between atoms: C17_26  and  C19_28 
REMARK   17  A    between atoms: C20_29  and  C21_30 
REMARK   18  A    between atoms: C20_29  and  C24_33 
REMARK   19  A    between atoms: C20_29  and  N6_40 
REMARK   20  A    between atoms: C21_30  and  C22_31 
REMARK   21  A    between atoms: C22_31  and  C23_32 
REMARK   22  A    between atoms: C23_32  and  O8_43 
REMARK   23  A    between atoms: C24_33  and  C25_34 
REMARK   24  A    between atoms: C28_38  and  O6_39 
REMARK   25  A    between atoms: C29_42  and  O8_43 
REMARK   26  A    between atoms: C29_42  and  C35_49 
ROOT
ATOM      1  C14 non d ame     -33.465  11.704  29.021  0.00  0.00     0.089 C 
ATOM      2  H20 non d ame     -33.782  12.037  30.010  0.00  0.00     0.087 H 
ENDROOT
BRANCH   1   3
ATOM      3  N4  non d ame     -34.090  10.414  28.773  0.00  0.00    -0.346 N 
ATOM      4  C10 non d ame     -34.241   9.412  29.890  0.00  0.00     0.241 C 
ATOM      5  O4  non d ame     -33.849   9.666  30.981  0.00  0.00    -0.271 OA
ATOM      6  H19 non d ame     -34.415  10.216  27.837  0.00  0.00     0.163 HD
BRANCH   4   7
ATOM      7  C9  non d ame     -34.895   8.084  29.616  0.00  0.00     0.092 C 
ATOM      8  H11 non d ame     -35.793   8.243  29.017  0.00  0.00     0.088 H 
BRANCH   7   9
ATOM      9  N3  non d ame     -33.990   7.246  28.825  0.00  0.00    -0.346 N 
ATOM     10  C7  non d ame     -34.069   7.260  27.385  0.00  0.00     0.240 C 
ATOM     11  O3  non d ame     -34.857   7.938  26.846  0.00  0.00    -0.271 OA
ATOM     12  H10 non d ame     -33.306   6.655  29.275  0.00  0.00     0.163 HD
BRANCH  10  13
ATOM     13  C6  non d ame     -33.104   6.364  26.548  0.00  0.00     0.086 C 
ATOM     14  H6  non d ame     -33.626   5.761  25.805  0.00  0.00     0.086 H 
BRANCH  13  15
ATOM     15  N2  non d ame     -32.183   7.218  25.816  0.00  0.00    -0.343 N 
ATOM     16  C5  non d ame     -32.401   7.457  24.387  0.00  0.00     0.273 C 
ATOM     17  O2  non d ame     -33.318   6.955  23.836  0.00  0.00    -0.266 OA
ATOM     18  H5  non d ame     -31.400   7.640  26.294  0.00  0.00     0.163 HD
BRANCH  16  19
ATOM     19  C4  non d ame     -31.437   8.359  23.602  0.00  0.00     0.154 A 
ATOM     20  C1  non d ame     -31.393   9.789  23.607  0.00  0.00    -0.017 A 
ATOM     21  C2  non d ame     -30.338  10.124  22.728  0.00  0.00     0.077 A 
ATOM     22  H1  non d ame     -32.029  10.479  24.161  0.00  0.00     0.091 H 
ATOM     23  O1  non d ame     -29.840   9.009  22.280  0.00  0.00    -0.218 OA
ATOM     24  N1  non d ame     -30.465   7.966  22.774  0.00  0.00    -0.123 NA
BRANCH  21  25
ATOM     25  C3  non d ame     -29.871  11.530  22.375  0.00  0.00    -0.029 C 
ATOM     26  H2  non d ame     -28.942  11.747  22.902  0.00  0.00     0.036 H 
ATOM     27  H3  non d ame     -29.702  11.597  21.300  0.00  0.00     0.036 H 
ATOM     28  H4  non d ame     -30.632  12.251  22.669  0.00  0.00     0.036 H 
ENDBRANCH  21  25
ENDBRANCH  16  19
ENDBRANCH  13  15
BRANCH  13  29
ATOM     29  C8  non d ame     -32.337   5.449  27.469  0.00  0.00    -0.049 C 
ATOM     30  H7  non d ame     -32.960   5.188  28.324  0.00  0.00     0.030 H 
ATOM     31  H8  non d ame     -32.061   4.541  26.931  0.00  0.00     0.030 H 
ATOM     32  H9  non d ame     -31.436   5.954  27.816  0.00  0.00     0.030 H 
ENDBRANCH  13  29
ENDBRANCH  10  13
ENDBRANCH   7   9
BRANCH   7  33
ATOM     33  C11 non d ame     -35.211   7.373  30.964  0.00  0.00    -0.033 C 
ATOM     34  H12 non d ame     -34.569   7.816  31.726  0.00  0.00     0.042 H 
BRANCH  33  35
ATOM     35  C12 non d ame     -36.691   7.609  31.400  0.00  0.00    -0.071 C 
ATOM     36  H13 non d ame     -37.358   7.334  30.584  0.00  0.00     0.028 H 
ATOM     37  H14 non d ame     -36.913   6.998  32.274  0.00  0.00     0.028 H 
ATOM     38  H15 non d ame     -36.834   8.661  31.646  0.00  0.00     0.028 H 
ENDBRANCH  33  35
BRANCH  33  39
ATOM     39  C13 non d ame     -34.881   5.848  30.883  0.00  0.00    -0.071 C 
ATOM     40  H16 non d ame     -34.468   5.617  29.900  0.00  0.00     0.028 H 
ATOM     41  H17 non d ame     -34.152   5.592  31.653  0.00  0.00     0.028 H 
ATOM     42  H18 non d ame     -35.791   5.270  31.040  0.00  0.00     0.028 H 
ENDBRANCH  33  39
ENDBRANCH   7  33
ENDBRANCH   4   7
ENDBRANCH   1   3
BRANCH   1  43
ATOM     43  C15 non d ame     -33.902  12.690  27.901  0.00  0.00     0.240 C 
ATOM     44  O5  non d ame     -34.358  12.269  26.888  0.00  0.00    -0.271 OA
ATOM     45  N6  non d ame     -33.762  14.161  28.095  0.00  0.00    -0.355 N 
ATOM     46  H46 non d ame     -33.381  14.531  28.955  0.00  0.00     0.162 HD
BRANCH  45  47
ATOM     47  C20 non d ame     -34.184  15.087  27.021  0.00  0.00     0.013 C 
ATOM     48  H30 non d ame     -33.911  16.098  27.324  0.00  0.00     0.072 H 
BRANCH  47  49
ATOM     49  C21 non d ame     -35.682  14.989  26.837  0.00  0.00    -0.038 C 
ATOM     50  H31 non d ame     -35.932  13.942  27.014  0.00  0.00     0.036 H 
ATOM     51  H32 non d ame     -36.107  15.766  27.471  0.00  0.00     0.036 H 
BRANCH  49  52
ATOM     52  C22 non d ame     -36.131  15.308  25.395  0.00  0.00     0.018 C 
ATOM     53  H33 non d ame     -35.214  15.403  24.815  0.00  0.00     0.048 H 
ATOM     54  H34 non d ame     -36.861  14.539  25.138  0.00  0.00     0.048 H 
BRANCH  52  55
ATOM     55  C23 non d ame     -36.871  16.666  25.254  0.00  0.00     0.259 C 
ATOM     56  O7  non d ame     -37.201  17.066  24.185  0.00  0.00    -0.265 OA
BRANCH  55  57
ATOM     57  O8  non d ame     -37.138  17.438  26.419  0.00  0.00    -0.317 OA
BRANCH  57  58
ATOM     58  C29 non d ame     -36.772  18.816  26.300  0.00  0.00     0.052 C 
ATOM     59  H47 non d ame     -36.982  19.088  25.266  0.00  0.00     0.082 H 
ATOM     60  H48 non d ame     -37.283  19.329  27.114  0.00  0.00     0.082 H 
BRANCH  58  61
ATOM     61  C35 non d ame     -35.241  18.927  26.535  0.00  0.00    -0.034 A 
ATOM     62  C30 non d ame     -34.410  19.371  25.511  0.00  0.00    -0.075 A 
ATOM     63  C31 non d ame     -33.035  19.471  25.722  0.00  0.00    -0.082 A 
ATOM     64  H49 non d ame     -34.835  19.641  24.545  0.00  0.00     0.084 H 
ATOM     65  C32 non d ame     -32.492  19.121  26.962  0.00  0.00    -0.083 A 
ATOM     66  H50 non d ame     -32.386  19.820  24.918  0.00  0.00     0.083 H 
ATOM     67  C33 non d ame     -33.325  18.676  27.979  0.00  0.00    -0.082 A 
ATOM     68  H51 non d ame     -31.419  19.197  27.135  0.00  0.00     0.083 H 
ATOM     69  C34 non d ame     -34.700  18.577  27.773  0.00  0.00    -0.075 A 
ATOM     70  H52 non d ame     -32.899  18.402  28.944  0.00  0.00     0.083 H 
ATOM     71  H53 non d ame     -35.347  18.227  28.577  0.00  0.00     0.084 H 
ENDBRANCH  58  61
ENDBRANCH  57  58
ENDBRANCH  55  57
ENDBRANCH  52  55
ENDBRANCH  49  52
ENDBRANCH  47  49
BRANCH  47  72
ATOM     72  C24 non d ame     -33.484  14.718  25.715  0.00  0.00    -0.039 C 
ATOM     73  H35 non d ame     -33.327  13.639  25.766  0.00  0.00     0.036 H 
ATOM     74  H36 non d ame     -34.103  15.142  24.925  0.00  0.00     0.036 H 
BRANCH  72  75
ATOM     75  C25 non d ame     -32.040  15.401  25.603  0.00  0.00    -0.001 C 
ATOM     76  C26 non d ame     -31.931  16.251  24.200  0.00  0.00    -0.035 C 
ATOM     77  C27 non d ame     -30.803  15.876  23.549  0.00  0.00     0.085 C 
ATOM     78  H38 non d ame     -32.729  15.953  23.519  0.00  0.00     0.036 H 
ATOM     79  H39 non d ame     -31.762  17.306  24.414  0.00  0.00     0.036 H 
ATOM     80  N5  non d ame     -30.306  14.618  24.217  0.00  0.00    -0.049 N 
ATOM     81  H40 non d ame     -31.119  15.638  22.533  0.00  0.00     0.075 H 
ATOM     82  H41 non d ame     -30.086  16.678  23.723  0.00  0.00     0.075 H 
ATOM     83  C28 non d ame     -31.100  14.515  25.619  0.00  0.00     0.193 C 
ATOM     84  H42 non d ame     -30.591  13.848  23.629  0.00  0.00     0.280 HD
ATOM     85  H43 non d ame     -29.325  14.767  24.413  0.00  0.00     0.280 HD
ATOM     86  H44 non d ame     -30.606  14.767  26.556  0.00  0.00     0.129 H 
ATOM     87  H37 non d ame     -31.755  15.918  26.519  0.00  0.00     0.046 H 
BRANCH  83  88
ATOM     88  O6  non d ame     -31.610  13.192  25.801  0.00  0.00    -0.369 OA
ATOM     89  H45 non d ame     -32.535  13.238  26.054  0.00  0.00     0.212 HD
ENDBRANCH  83  88
ENDBRANCH  72  75
ENDBRANCH  47  72
ENDBRANCH  45  47
ENDBRANCH   1  43
BRANCH   1  90
ATOM     90  C16 non d ame     -31.954  11.537  28.995  0.00  0.00    -0.035 C 
ATOM     91  H21 non d ame     -31.766  10.548  29.410  0.00  0.00     0.037 H 
ATOM     92  H22 non d ame     -31.657  11.764  27.971  0.00  0.00     0.037 H 
BRANCH  90  93
ATOM     93  C17 non d ame     -31.195  12.550  29.910  0.00  0.00    -0.059 C 
ATOM     94  H23 non d ame     -31.941  13.153  30.426  0.00  0.00     0.038 H 
BRANCH  93  95
ATOM     95  C18 non d ame     -30.330  11.831  30.993  0.00  0.00    -0.073 C 
ATOM     96  H24 non d ame     -30.743  10.842  31.192  0.00  0.00     0.028 H 
ATOM     97  H25 non d ame     -29.306  11.729  30.632  0.00  0.00     0.028 H 
ATOM     98  H26 non d ame     -30.334  12.418  31.911  0.00  0.00     0.028 H 
ENDBRANCH  93  95
BRANCH  93  99
ATOM     99  C19 non d ame     -30.338  13.505  29.075  0.00  0.00    -0.073 C 
ATOM    100  H27 non d ame     -30.529  14.532  29.386  0.00  0.00     0.028 H 
ATOM    101  H28 non d ame     -29.284  13.272  29.223  0.00  0.00     0.028 H 
ATOM    102  H29 non d ame     -30.589  13.392  28.021  0.00  0.00     0.028 H 
ENDBRANCH  93  99
ENDBRANCH  90  93
ENDBRANCH   1  90
TORSDOF 26
ENDMDL
