MODEL 1
REMARK VINA RESULT:      -7.2      0.000      0.000
REMARK  26 active torsions:
REMARK  status: ('A' for Active; 'I' for Inactive)
REMARK    1  A    between atoms: C2_2  and  C3_3 
REMARK    2  A    between atoms: C4_6  and  C5_7 
REMARK       I    between atoms: C5_7  and  N2_9 
REMARK    3  A    between atoms: N2_9  and  C6_10 
REMARK    4  A    between atoms: C6_10  and  C7_11 
REMARK    5  A    between atoms: C6_10  and  C8_13 
REMARK       I    between atoms: C7_11  and  N3_14 
REMARK    6  A    between atoms: N3_14  and  C9_15 
REMARK    7  A    between atoms: C9_15  and  C10_16 
REMARK    8  A    between atoms: C9_15  and  C11_18 
REMARK       I    between atoms: C10_16  and  N4_21 
REMARK    9  A    between atoms: C11_18  and  C12_19 
REMARK   10  A    between atoms: C11_18  and  C13_20 
REMARK   11  A    between atoms: N4_21  and  C14_22 
REMARK   12  A    between atoms: C14_22  and  C15_23 
REMARK   13  A    between atoms: C14_22  and  C16_25 
REMARK       I    between atoms: C15_23  and  N6_40 
REMARK   14  A    between atoms: C16_25  and  C17_26 
REMARK   15  A    between atoms: C17_26  and  C18_27 
REMARK   16  A    between atoms: C17_26  and  C19_28 
REMARK   17  A    between atoms: C20_29  and  C21_30 
REMARK   18  A    between atoms: C20_29  and  C24_33 
REMARK   19  A    between atoms: C20_29  and  N6_40 
REMARK   20  A    between atoms: C21_30  and  C22_31 
REMARK   21  A    between atoms: C22_31  and  C23_32 
REMARK   22  A    between atoms: C23_32  and  O8_43 
REMARK   23  A    between atoms: C24_33  and  C25_34 
REMARK   24  A    between atoms: C28_38  and  O6_39 
REMARK   25  A    between atoms: C29_42  and  O8_43 
REMARK   26  A    between atoms: C29_42  and  C35_49 
ROOT
ATOM      1  C14 non d ame     -30.700  14.294  23.494  0.00  0.00     0.089 C 
ATOM      2  H20 non d ame     -29.610  14.334  23.468  0.00  0.00     0.087 H 
ENDROOT
BRANCH   1   3
ATOM      3  N4  non d ame     -31.081  12.919  23.777  0.00  0.00    -0.346 N 
ATOM      4  C10 non d ame     -30.372  11.775  23.095  0.00  0.00     0.241 C 
ATOM      5  O4  non d ame     -29.500  11.987  22.319  0.00  0.00    -0.271 OA
ATOM      6  H19 non d ame     -31.827  12.760  24.439  0.00  0.00     0.163 HD
BRANCH   4   7
ATOM      7  C9  non d ame     -30.776  10.358  23.405  0.00  0.00     0.092 C 
ATOM      8  H11 non d ame     -30.389  10.081  24.386  0.00  0.00     0.088 H 
BRANCH   7   9
ATOM      9  N3  non d ame     -32.237  10.270  23.475  0.00  0.00    -0.346 N 
ATOM     10  C7  non d ame     -32.870   9.714  24.645  0.00  0.00     0.240 C 
ATOM     11  O3  non d ame     -32.219   9.331  25.539  0.00  0.00    -0.271 OA
ATOM     12  H10 non d ame     -32.812  10.594  22.711  0.00  0.00     0.163 HD
BRANCH  10  13
ATOM     13  C6  non d ame     -34.427   9.619  24.713  0.00  0.00     0.086 C 
ATOM     14  H6  non d ame     -34.779   9.093  25.599  0.00  0.00     0.086 H 
BRANCH  13  15
ATOM     15  N2  non d ame     -34.977  10.963  24.781  0.00  0.00    -0.343 N 
ATOM     16  C5  non d ame     -36.008  11.270  25.775  0.00  0.00     0.273 C 
ATOM     17  O2  non d ame     -36.389  10.429  26.513  0.00  0.00    -0.266 OA
ATOM     18  H5  non d ame     -34.648  11.674  24.144  0.00  0.00     0.163 HD
BRANCH  16  19
ATOM     19  C4  non d ame     -36.598  12.686  25.860  0.00  0.00     0.154 A 
ATOM     20  C1  non d ame     -36.857  13.582  24.774  0.00  0.00    -0.017 A 
ATOM     21  C2  non d ame     -37.393  14.741  25.378  0.00  0.00     0.077 A 
ATOM     22  H1  non d ame     -36.682  13.416  23.711  0.00  0.00     0.091 H 
ATOM     23  O1  non d ame     -37.435  14.525  26.661  0.00  0.00    -0.218 OA
ATOM     24  N1  non d ame     -36.975  13.333  26.966  0.00  0.00    -0.123 NA
BRANCH  21  25
ATOM     25  C3  non d ame     -37.840  16.007  24.660  0.00  0.00    -0.029 C 
ATOM     26  H2  non d ame     -37.687  15.890  23.587  0.00  0.00     0.036 H 
ATOM     27  H3  non d ame     -38.898  16.183  24.858  0.00  0.00     0.036 H 
ATOM     28  H4  non d ame     -37.258  16.854  25.020  0.00  0.00     0.036 H 
ENDBRANCH  21  25
ENDBRANCH  16  19
ENDBRANCH  13  15
BRANCH  13  29
ATOM     29  C8  non d ame     -34.944   8.911  23.486  0.00  0.00    -0.049 C 
ATOM     30  H7  non d ame     -34.992   9.613  22.654  0.00  0.00     0.030 H 
ATOM     31  H8  non d ame     -34.272   8.091  23.230  0.00  0.00     0.030 H 
ATOM     32  H9  non d ame     -35.940   8.516  23.687  0.00  0.00     0.030 H 
ENDBRANCH  13  29
ENDBRANCH  10  13
ENDBRANCH   7   9
BRANCH   7  33
ATOM     33  C11 non d ame     -30.254   9.413  22.283  0.00  0.00    -0.033 C 
ATOM     34  H12 non d ame     -29.992  10.035  21.426  0.00  0.00     0.042 H 
BRANCH  33  35
ATOM     35  C12 non d ame     -28.963   8.659  22.729  0.00  0.00    -0.071 C 
ATOM     36  H13 non d ame     -28.380   9.298  23.392  0.00  0.00     0.028 H 
ATOM     37  H14 non d ame     -29.239   7.746  23.254  0.00  0.00     0.028 H 
ATOM     38  H15 non d ame     -28.368   8.408  21.851  0.00  0.00     0.028 H 
ENDBRANCH  33  35
BRANCH  33  39
ATOM     39  C13 non d ame     -31.367   8.414  21.832  0.00  0.00    -0.071 C 
ATOM     40  H16 non d ame     -32.272   8.966  21.579  0.00  0.00     0.028 H 
ATOM     41  H17 non d ame     -31.025   7.858  20.958  0.00  0.00     0.028 H 
ATOM     42  H18 non d ame     -31.580   7.717  22.642  0.00  0.00     0.028 H 
ENDBRANCH  33  39
ENDBRANCH   7  33
ENDBRANCH   4   7
ENDBRANCH   1   3
BRANCH   1  43
ATOM     43  C15 non d ame     -31.295  15.211  24.600  0.00  0.00     0.240 C 
ATOM     44  O5  non d ame     -30.641  16.096  25.049  0.00  0.00    -0.271 OA
ATOM     45  N6  non d ame     -32.685  14.993  25.092  0.00  0.00    -0.355 N 
ATOM     46  H46 non d ame     -33.252  14.248  24.713  0.00  0.00     0.162 HD
BRANCH  45  47
ATOM     47  C20 non d ame     -33.239  15.875  26.142  0.00  0.00     0.013 C 
ATOM     48  H30 non d ame     -32.424  16.488  26.529  0.00  0.00     0.072 H 
BRANCH  47  49
ATOM     49  C21 non d ame     -33.819  15.028  27.252  0.00  0.00    -0.038 C 
ATOM     50  H31 non d ame     -34.889  14.967  27.047  0.00  0.00     0.036 H 
ATOM     51  H32 non d ame     -33.216  14.120  27.274  0.00  0.00     0.036 H 
BRANCH  49  52
ATOM     52  C22 non d ame     -33.677  15.681  28.643  0.00  0.00     0.018 C 
ATOM     53  H33 non d ame     -34.027  16.706  28.525  0.00  0.00     0.048 H 
ATOM     54  H34 non d ame     -34.183  15.009  29.337  0.00  0.00     0.048 H 
BRANCH  52  55
ATOM     55  C23 non d ame     -32.209  15.784  29.140  0.00  0.00     0.259 C 
ATOM     56  O7  non d ame     -31.873  16.678  29.848  0.00  0.00    -0.265 OA
BRANCH  55  57
ATOM     57  O8  non d ame     -31.263  14.805  28.728  0.00  0.00    -0.317 OA
BRANCH  57  58
ATOM     58  C29 non d ame     -30.858  13.913  29.771  0.00  0.00     0.052 C 
ATOM     59  H47 non d ame     -29.835  13.625  29.531  0.00  0.00     0.082 H 
ATOM     60  H48 non d ame     -31.075  14.432  30.704  0.00  0.00     0.082 H 
BRANCH  58  61
ATOM     61  C35 non d ame     -31.754  12.647  29.694  0.00  0.00    -0.034 A 
ATOM     62  C30 non d ame     -32.240  12.066  30.861  0.00  0.00    -0.075 A 
ATOM     63  C31 non d ame     -33.045  10.929  30.791  0.00  0.00    -0.082 A 
ATOM     64  H49 non d ame     -31.989  12.499  31.829  0.00  0.00     0.084 H 
ATOM     65  C32 non d ame     -33.362  10.373  29.549  0.00  0.00    -0.083 A 
ATOM     66  H50 non d ame     -33.425  10.476  31.708  0.00  0.00     0.083 H 
ATOM     67  C33 non d ame     -32.872  10.955  28.388  0.00  0.00    -0.082 A 
ATOM     68  H51 non d ame     -33.991   9.485  29.486  0.00  0.00     0.083 H 
ATOM     69  C34 non d ame     -32.069  12.092  28.452  0.00  0.00    -0.075 A 
ATOM     70  H52 non d ame     -33.120  10.518  27.420  0.00  0.00     0.083 H 
ATOM     71  H53 non d ame     -31.690  12.544  27.535  0.00  0.00     0.084 H 
ENDBRANCH  58  61
ENDBRANCH  57  58
ENDBRANCH  55  57
ENDBRANCH  52  55
ENDBRANCH  49  52
ENDBRANCH  47  49
BRANCH  47  72
ATOM     72  C24 non d ame     -34.333  16.761  25.551  0.00  0.00    -0.039 C 
ATOM     73  H35 non d ame     -34.258  16.630  24.470  0.00  0.00     0.036 H 
ATOM     74  H36 non d ame     -35.248  16.478  26.071  0.00  0.00     0.036 H 
BRANCH  72  75
ATOM     75  C25 non d ame     -34.074  18.311  25.860  0.00  0.00    -0.001 C 
ATOM     76  C26 non d ame     -32.604  18.500  26.572  0.00  0.00    -0.035 C 
ATOM     77  C27 non d ame     -32.758  19.234  27.701  0.00  0.00     0.085 C 
ATOM     78  H38 non d ame     -32.240  17.541  26.939  0.00  0.00     0.036 H 
ATOM     79  H39 non d ame     -31.964  19.125  25.949  0.00  0.00     0.036 H 
ATOM     80  N5  non d ame     -34.237  19.282  27.998  0.00  0.00    -0.049 N 
ATOM     81  H40 non d ame     -32.256  18.668  28.487  0.00  0.00     0.075 H 
ATOM     82  H41 non d ame     -32.414  20.236  27.447  0.00  0.00     0.075 H 
ATOM     83  C28 non d ame     -34.977  18.788  26.651  0.00  0.00     0.193 C 
ATOM     84  H42 non d ame     -34.406  18.603  28.726  0.00  0.00     0.280 HD
ATOM     85  H43 non d ame     -34.466  20.255  28.152  0.00  0.00     0.280 HD
ATOM     86  H44 non d ame     -35.461  19.505  25.989  0.00  0.00     0.129 H 
ATOM     87  H37 non d ame     -34.295  18.946  25.002  0.00  0.00     0.046 H 
BRANCH  83  88
ATOM     88  O6  non d ame     -35.981  17.821  26.966  0.00  0.00    -0.369 OA
ATOM     89  H45 non d ame     -36.544  18.161  27.666  0.00  0.00     0.212 HD
ENDBRANCH  83  88
ENDBRANCH  72  75
ENDBRANCH  47  72
ENDBRANCH  45  47
ENDBRANCH   1  43
BRANCH   1  90
ATOM     90  C16 non d ame     -31.261  14.695  22.139  0.00  0.00    -0.035 C 
ATOM     91  H21 non d ame     -31.759  13.805  21.758  0.00  0.00     0.037 H 
ATOM     92  H22 non d ame     -31.835  15.603  22.322  0.00  0.00     0.037 H 
BRANCH  90  93
ATOM     93  C17 non d ame     -30.165  15.069  21.092  0.00  0.00    -0.059 C 
ATOM     94  H23 non d ame     -29.932  14.170  20.521  0.00  0.00     0.038 H 
BRANCH  93  95
ATOM     95  C18 non d ame     -30.657  16.158  20.086  0.00  0.00    -0.073 C 
ATOM     96  H24 non d ame     -31.211  15.682  19.277  0.00  0.00     0.028 H 
ATOM     97  H25 non d ame     -31.309  16.863  20.604  0.00  0.00     0.028 H 
ATOM     98  H26 non d ame     -29.799  16.690  19.677  0.00  0.00     0.028 H 
ENDBRANCH  93  95
BRANCH  93  99
ATOM     99  C19 non d ame     -28.874  15.513  21.786  0.00  0.00    -0.073 C 
ATOM    100  H27 non d ame     -28.014  15.147  21.224  0.00  0.00     0.028 H 
ATOM    101  H28 non d ame     -28.841  16.602  21.830  0.00  0.00     0.028 H 
ATOM    102  H29 non d ame     -28.848  15.108  22.797  0.00  0.00     0.028 H 
ENDBRANCH  93  99
ENDBRANCH  90  93
ENDBRANCH   1  90
TORSDOF 26
ENDMDL
MODEL 2
REMARK VINA RESULT:      -7.1      1.732      2.824
REMARK  26 active torsions:
REMARK  status: ('A' for Active; 'I' for Inactive)
REMARK    1  A    between atoms: C2_2  and  C3_3 
REMARK    2  A    between atoms: C4_6  and  C5_7 
REMARK       I    between atoms: C5_7  and  N2_9 
REMARK    3  A    between atoms: N2_9  and  C6_10 
REMARK    4  A    between atoms: C6_10  and  C7_11 
REMARK    5  A    between atoms: C6_10  and  C8_13 
REMARK       I    between atoms: C7_11  and  N3_14 
REMARK    6  A    between atoms: N3_14  and  C9_15 
REMARK    7  A    between atoms: C9_15  and  C10_16 
REMARK    8  A    between atoms: C9_15  and  C11_18 
REMARK       I    between atoms: C10_16  and  N4_21 
REMARK    9  A    between atoms: C11_18  and  C12_19 
REMARK   10  A    between atoms: C11_18  and  C13_20 
REMARK   11  A    between atoms: N4_21  and  C14_22 
REMARK   12  A    between atoms: C14_22  and  C15_23 
REMARK   13  A    between atoms: C14_22  and  C16_25 
REMARK       I    between atoms: C15_23  and  N6_40 
REMARK   14  A    between atoms: C16_25  and  C17_26 
REMARK   15  A    between atoms: C17_26  and  C18_27 
REMARK   16  A    between atoms: C17_26  and  C19_28 
REMARK   17  A    between atoms: C20_29  and  C21_30 
REMARK   18  A    between atoms: C20_29  and  C24_33 
REMARK   19  A    between atoms: C20_29  and  N6_40 
REMARK   20  A    between atoms: C21_30  and  C22_31 
REMARK   21  A    between atoms: C22_31  and  C23_32 
REMARK   22  A    between atoms: C23_32  and  O8_43 
REMARK   23  A    between atoms: C24_33  and  C25_34 
REMARK   24  A    between atoms: C28_38  and  O6_39 
REMARK   25  A    between atoms: C29_42  and  O8_43 
REMARK   26  A    between atoms: C29_42  and  C35_49 
ROOT
ATOM      1  C14 non d ame     -31.132  14.097  24.412  0.00  0.00     0.089 C 
ATOM      2  H20 non d ame     -30.148  13.674  24.616  0.00  0.00     0.087 H 
ENDROOT
BRANCH   1   3
ATOM      3  N4  non d ame     -32.113  13.045  24.630  0.00  0.00    -0.346 N 
ATOM      4  C10 non d ame     -31.866  11.975  25.664  0.00  0.00     0.241 C 
ATOM      5  O4  non d ame     -30.868  11.979  26.305  0.00  0.00    -0.271 OA
ATOM      6  H19 non d ame     -32.955  13.058  24.072  0.00  0.00     0.163 HD
BRANCH   4   7
ATOM      7  C9  non d ame     -32.896  10.897  25.880  0.00  0.00     0.092 C 
ATOM      8  H11 non d ame     -33.055  10.762  26.950  0.00  0.00     0.088 H 
BRANCH   7   9
ATOM      9  N3  non d ame     -34.175  11.319  25.302  0.00  0.00    -0.346 N 
ATOM     10  C7  non d ame     -35.196  11.887  26.147  0.00  0.00     0.240 C 
ATOM     11  O3  non d ame     -35.006  12.009  27.296  0.00  0.00    -0.271 OA
ATOM     12  H10 non d ame     -34.354  11.218  24.313  0.00  0.00     0.163 HD
BRANCH  10  13
ATOM     13  C6  non d ame     -36.557  12.331  25.526  0.00  0.00     0.086 C 
ATOM     14  H6  non d ame     -37.409  12.090  26.161  0.00  0.00     0.086 H 
BRANCH  13  15
ATOM     15  N2  non d ame     -36.552  13.777  25.368  0.00  0.00    -0.343 N 
ATOM     16  C5  non d ame     -37.519  14.587  26.114  0.00  0.00     0.273 C 
ATOM     17  O2  non d ame     -38.297  14.066  26.835  0.00  0.00    -0.266 OA
ATOM     18  H5  non d ame     -35.886  14.212  24.746  0.00  0.00     0.163 HD
BRANCH  16  19
ATOM     19  C4  non d ame     -37.524  16.115  25.957  0.00  0.00     0.154 A 
ATOM     20  C1  non d ame     -37.131  16.868  24.806  0.00  0.00    -0.017 A 
ATOM     21  C2  non d ame     -37.322  18.219  25.172  0.00  0.00     0.077 A 
ATOM     22  H1  non d ame     -36.763  16.493  23.851  0.00  0.00     0.091 H 
ATOM     23  O1  non d ame     -37.775  18.229  26.392  0.00  0.00    -0.218 OA
ATOM     24  N1  non d ame     -37.900  17.013  26.871  0.00  0.00    -0.123 NA
BRANCH  21  25
ATOM     25  C3  non d ame     -37.050  19.437  24.299  0.00  0.00    -0.029 C 
ATOM     26  H2  non d ame     -36.647  19.114  23.339  0.00  0.00     0.036 H 
ATOM     27  H3  non d ame     -37.979  19.983  24.137  0.00  0.00     0.036 H 
ATOM     28  H4  non d ame     -36.329  20.086  24.795  0.00  0.00     0.036 H 
ENDBRANCH  21  25
ENDBRANCH  16  19
ENDBRANCH  13  15
BRANCH  13  29
ATOM     29  C8  non d ame     -36.742  11.666  24.186  0.00  0.00    -0.049 C 
ATOM     30  H7  non d ame     -35.949  11.983  23.510  0.00  0.00     0.030 H 
ATOM     31  H8  non d ame     -36.703  10.583  24.310  0.00  0.00     0.030 H 
ATOM     32  H9  non d ame     -37.709  11.949  23.770  0.00  0.00     0.030 H 
ENDBRANCH  13  29
ENDBRANCH  10  13
ENDBRANCH   7   9
BRANCH   7  33
ATOM     33  C11 non d ame     -32.425   9.584  25.189  0.00  0.00    -0.033 C 
ATOM     34  H12 non d ame     -31.418   9.368  25.548  0.00  0.00     0.042 H 
BRANCH  33  35
ATOM     35  C12 non d ame     -33.333   8.377  25.582  0.00  0.00    -0.071 C 
ATOM     36  H13 non d ame     -34.185   8.327  24.904  0.00  0.00     0.028 H 
ATOM     37  H14 non d ame     -32.759   7.454  25.512  0.00  0.00     0.028 H 
ATOM     38  H15 non d ame     -33.690   8.507  26.604  0.00  0.00     0.028 H 
ENDBRANCH  33  35
BRANCH  33  39
ATOM     39  C13 non d ame     -32.358   9.761  23.638  0.00  0.00    -0.071 C 
ATOM     40  H16 non d ame     -33.298   9.435  23.194  0.00  0.00     0.028 H 
ATOM     41  H17 non d ame     -32.187  10.811  23.399  0.00  0.00     0.028 H 
ATOM     42  H18 non d ame     -31.539   9.162  23.240  0.00  0.00     0.028 H 
ENDBRANCH  33  39
ENDBRANCH   7  33
ENDBRANCH   4   7
ENDBRANCH   1   3
BRANCH   1  43
ATOM     43  C15 non d ame     -31.466  15.290  25.352  0.00  0.00     0.240 C 
ATOM     44  O5  non d ame     -31.064  16.377  25.092  0.00  0.00    -0.271 OA
ATOM     45  N6  non d ame     -32.296  15.078  26.571  0.00  0.00    -0.355 N 
ATOM     46  H46 non d ame     -32.647  14.159  26.800  0.00  0.00     0.162 HD
BRANCH  45  47
ATOM     47  C20 non d ame     -32.607  16.223  27.455  0.00  0.00     0.013 C 
ATOM     48  H30 non d ame     -31.882  17.011  27.250  0.00  0.00     0.072 H 
BRANCH  47  49
ATOM     49  C21 non d ame     -32.500  15.784  28.898  0.00  0.00    -0.038 C 
ATOM     50  H31 non d ame     -31.504  16.089  29.225  0.00  0.00     0.036 H 
ATOM     51  H32 non d ame     -33.383  16.185  29.394  0.00  0.00     0.036 H 
BRANCH  49  52
ATOM     52  C22 non d ame     -32.562  14.251  29.065  0.00  0.00     0.018 C 
ATOM     53  H33 non d ame     -33.060  14.078  30.018  0.00  0.00     0.048 H 
ATOM     54  H34 non d ame     -33.005  13.872  28.142  0.00  0.00     0.048 H 
BRANCH  52  55
ATOM     55  C23 non d ame     -31.168  13.576  29.180  0.00  0.00     0.259 C 
ATOM     56  O7  non d ame     -30.197  14.120  28.765  0.00  0.00    -0.265 OA
BRANCH  55  57
ATOM     57  O8  non d ame     -31.065  12.288  29.776  0.00  0.00    -0.317 OA
BRANCH  57  58
ATOM     58  C29 non d ame     -31.877  12.120  30.942  0.00  0.00     0.052 C 
ATOM     59  H47 non d ame     -31.215  11.716  31.707  0.00  0.00     0.082 H 
ATOM     60  H48 non d ame     -32.371  13.078  31.098  0.00  0.00     0.082 H 
BRANCH  58  61
ATOM     61  C35 non d ame     -32.961  11.056  30.621  0.00  0.00    -0.034 A 
ATOM     62  C30 non d ame     -32.849  10.271  29.478  0.00  0.00    -0.075 A 
ATOM     63  C31 non d ame     -33.823   9.315  29.189  0.00  0.00    -0.082 A 
ATOM     64  H49 non d ame     -32.000  10.404  28.808  0.00  0.00     0.084 H 
ATOM     65  C32 non d ame     -34.913   9.148  30.048  0.00  0.00    -0.083 A 
ATOM     66  H50 non d ame     -33.732   8.700  28.293  0.00  0.00     0.083 H 
ATOM     67  C33 non d ame     -35.022   9.936  31.185  0.00  0.00    -0.082 A 
ATOM     68  H51 non d ame     -35.678   8.403  29.830  0.00  0.00     0.083 H 
ATOM     69  C34 non d ame     -34.050  10.891  31.479  0.00  0.00    -0.075 A 
ATOM     70  H52 non d ame     -35.875   9.806  31.852  0.00  0.00     0.083 H 
ATOM     71  H53 non d ame     -34.143  11.505  32.375  0.00  0.00     0.084 H 
ENDBRANCH  58  61
ENDBRANCH  57  58
ENDBRANCH  55  57
ENDBRANCH  52  55
ENDBRANCH  49  52
ENDBRANCH  47  49
BRANCH  47  72
ATOM     72  C24 non d ame     -34.024  16.720  27.177  0.00  0.00    -0.039 C 
ATOM     73  H35 non d ame     -34.355  16.172  26.294  0.00  0.00     0.036 H 
ATOM     74  H36 non d ame     -34.560  16.609  28.119  0.00  0.00     0.036 H 
BRANCH  72  75
ATOM     75  C25 non d ame     -34.043  18.278  26.803  0.00  0.00    -0.001 C 
ATOM     76  C26 non d ame     -32.525  18.899  26.917  0.00  0.00    -0.035 C 
ATOM     77  C27 non d ame     -32.566  20.012  27.688  0.00  0.00     0.085 C 
ATOM     78  H38 non d ame     -31.885  18.221  27.481  0.00  0.00     0.036 H 
ATOM     79  H39 non d ame     -32.200  19.273  25.946  0.00  0.00     0.036 H 
ATOM     80  N5  non d ame     -33.908  20.022  28.377  0.00  0.00    -0.049 N 
ATOM     81  H40 non d ame     -31.783  19.877  28.436  0.00  0.00     0.075 H 
ATOM     82  H41 non d ame     -32.517  20.850  26.993  0.00  0.00     0.075 H 
ATOM     83  C28 non d ame     -34.817  18.940  27.596  0.00  0.00     0.193 C 
ATOM     84  H42 non d ame     -33.751  19.690  29.318  0.00  0.00     0.280 HD
ATOM     85  H43 non d ame     -34.301  20.941  28.226  0.00  0.00     0.280 HD
ATOM     86  H44 non d ame     -35.587  19.264  26.897  0.00  0.00     0.129 H 
ATOM     87  H37 non d ame     -34.591  18.475  25.882  0.00  0.00     0.046 H 
BRANCH  83  88
ATOM     88  O6  non d ame     -35.485  18.090  28.532  0.00  0.00    -0.369 OA
ATOM     89  H45 non d ame     -35.381  18.445  29.417  0.00  0.00     0.212 HD
ENDBRANCH  83  88
ENDBRANCH  72  75
ENDBRANCH  47  72
ENDBRANCH  45  47
ENDBRANCH   1  43
BRANCH   1  90
ATOM     90  C16 non d ame     -31.206  14.551  22.962  0.00  0.00    -0.035 C 
ATOM     91  H21 non d ame     -31.982  13.938  22.507  0.00  0.00     0.037 H 
ATOM     92  H22 non d ame     -31.323  15.634  23.005  0.00  0.00     0.037 H 
BRANCH  90  93
ATOM     93  C17 non d ame     -29.899  14.279  22.152  0.00  0.00    -0.059 C 
ATOM     94  H23 non d ame     -30.063  14.627  21.133  0.00  0.00     0.038 H 
BRANCH  93  95
ATOM     95  C18 non d ame     -28.675  15.058  22.731  0.00  0.00    -0.073 C 
ATOM     96  H24 non d ame     -28.840  15.263  23.788  0.00  0.00     0.028 H 
ATOM     97  H25 non d ame     -27.773  14.456  22.615  0.00  0.00     0.028 H 
ATOM     98  H26 non d ame     -28.554  15.998  22.193  0.00  0.00     0.028 H 
ENDBRANCH  93  95
BRANCH  93  99
ATOM     99  C19 non d ame     -29.603  12.779  22.079  0.00  0.00    -0.073 C 
ATOM    100  H27 non d ame     -30.515  12.241  21.814  0.00  0.00     0.028 H 
ATOM    101  H28 non d ame     -28.841  12.595  21.322  0.00  0.00     0.028 H 
ATOM    102  H29 non d ame     -29.244  12.431  23.047  0.00  0.00     0.028 H 
ENDBRANCH  93  99
ENDBRANCH  90  93
ENDBRANCH   1  90
TORSDOF 26
ENDMDL
MODEL 3
REMARK VINA RESULT:      -7.0      1.586      2.358
REMARK  26 active torsions:
REMARK  status: ('A' for Active; 'I' for Inactive)
REMARK    1  A    between atoms: C2_2  and  C3_3 
REMARK    2  A    between atoms: C4_6  and  C5_7 
REMARK       I    between atoms: C5_7  and  N2_9 
REMARK    3  A    between atoms: N2_9  and  C6_10 
REMARK    4  A    between atoms: C6_10  and  C7_11 
REMARK    5  A    between atoms: C6_10  and  C8_13 
REMARK       I    between atoms: C7_11  and  N3_14 
REMARK    6  A    between atoms: N3_14  and  C9_15 
REMARK    7  A    between atoms: C9_15  and  C10_16 
REMARK    8  A    between atoms: C9_15  and  C11_18 
REMARK       I    between atoms: C10_16  and  N4_21 
REMARK    9  A    between atoms: C11_18  and  C12_19 
REMARK   10  A    between atoms: C11_18  and  C13_20 
REMARK   11  A    between atoms: N4_21  and  C14_22 
REMARK   12  A    between atoms: C14_22  and  C15_23 
REMARK   13  A    between atoms: C14_22  and  C16_25 
REMARK       I    between atoms: C15_23  and  N6_40 
REMARK   14  A    between atoms: C16_25  and  C17_26 
REMARK   15  A    between atoms: C17_26  and  C18_27 
REMARK   16  A    between atoms: C17_26  and  C19_28 
REMARK   17  A    between atoms: C20_29  and  C21_30 
REMARK   18  A    between atoms: C20_29  and  C24_33 
REMARK   19  A    between atoms: C20_29  and  N6_40 
REMARK   20  A    between atoms: C21_30  and  C22_31 
REMARK   21  A    between atoms: C22_31  and  C23_32 
REMARK   22  A    between atoms: C23_32  and  O8_43 
REMARK   23  A    between atoms: C24_33  and  C25_34 
REMARK   24  A    between atoms: C28_38  and  O6_39 
REMARK   25  A    between atoms: C29_42  and  O8_43 
REMARK   26  A    between atoms: C29_42  and  C35_49 
ROOT
ATOM      1  C14 non d ame     -30.704  14.344  23.744  0.00  0.00     0.089 C 
ATOM      2  H20 non d ame     -29.624  14.371  23.595  0.00  0.00     0.087 H 
ENDROOT
BRANCH   1   3
ATOM      3  N4  non d ame     -31.071  12.964  24.028  0.00  0.00    -0.346 N 
ATOM      4  C10 non d ame     -30.469  11.836  23.229  0.00  0.00     0.241 C 
ATOM      5  O4  non d ame     -29.694  12.062  22.360  0.00  0.00    -0.271 OA
ATOM      6  H19 non d ame     -31.735  12.793  24.770  0.00  0.00     0.163 HD
BRANCH   4   7
ATOM      7  C9  non d ame     -30.856  10.414  23.541  0.00  0.00     0.092 C 
ATOM      8  H11 non d ame     -30.268  10.059  24.388  0.00  0.00     0.088 H 
BRANCH   7   9
ATOM      9  N3  non d ame     -32.265  10.367  23.942  0.00  0.00    -0.346 N 
ATOM     10  C7  non d ame     -32.614  10.247  25.336  0.00  0.00     0.240 C 
ATOM     11  O3  non d ame     -31.773  10.185  26.149  0.00  0.00    -0.271 OA
ATOM     12  H10 non d ame     -33.001  10.418  23.253  0.00  0.00     0.163 HD
BRANCH  10  13
ATOM     13  C6  non d ame     -34.116  10.195  25.757  0.00  0.00     0.086 C 
ATOM     14  H6  non d ame     -34.252  10.221  26.838  0.00  0.00     0.086 H 
BRANCH  13  15
ATOM     15  N2  non d ame     -34.795  11.364  25.224  0.00  0.00    -0.343 N 
ATOM     16  C5  non d ame     -35.738  12.099  26.071  0.00  0.00     0.273 C 
ATOM     17  O2  non d ame     -35.944  11.741  27.178  0.00  0.00    -0.266 OA
ATOM     18  H5  non d ame     -34.616  11.661  24.276  0.00  0.00     0.163 HD
BRANCH  16  19
ATOM     19  C4  non d ame     -36.461  13.338  25.521  0.00  0.00     0.154 A 
ATOM     20  C1  non d ame     -36.997  13.513  24.206  0.00  0.00    -0.017 A 
ATOM     21  C2  non d ame     -37.553  14.812  24.210  0.00  0.00     0.077 A 
ATOM     22  H1  non d ame     -36.984  12.808  23.375  0.00  0.00     0.091 H 
ATOM     23  O1  non d ame     -37.357  15.314  25.394  0.00  0.00    -0.218 OA
ATOM     24  N1  non d ame     -36.721  14.472  26.176  0.00  0.00    -0.123 NA
BRANCH  21  25
ATOM     25  C3  non d ame     -38.254  15.497  23.044  0.00  0.00    -0.029 C 
ATOM     26  H2  non d ame     -38.988  14.817  22.611  0.00  0.00     0.036 H 
ATOM     27  H3  non d ame     -38.757  16.396  23.399  0.00  0.00     0.036 H 
ATOM     28  H4  non d ame     -37.519  15.767  22.286  0.00  0.00     0.036 H 
ENDBRANCH  21  25
ENDBRANCH  16  19
ENDBRANCH  13  15
BRANCH  13  29
ATOM     29  C8  non d ame     -34.749   8.938  25.216  0.00  0.00    -0.049 C 
ATOM     30  H7  non d ame     -34.348   8.073  25.742  0.00  0.00     0.030 H 
ATOM     31  H8  non d ame     -35.828   8.984  25.362  0.00  0.00     0.030 H 
ATOM     32  H9  non d ame     -34.530   8.850  24.152  0.00  0.00     0.030 H 
ENDBRANCH  13  29
ENDBRANCH  10  13
ENDBRANCH   7   9
BRANCH   7  33
ATOM     33  C11 non d ame     -30.650   9.531  22.276  0.00  0.00    -0.033 C 
ATOM     34  H12 non d ame     -30.617  10.197  21.413  0.00  0.00     0.042 H 
BRANCH  33  35
ATOM     35  C12 non d ame     -29.291   8.766  22.331  0.00  0.00    -0.071 C 
ATOM     36  H13 non d ame     -29.261   8.022  21.534  0.00  0.00     0.028 H 
ATOM     37  H14 non d ame     -28.472   9.472  22.200  0.00  0.00     0.028 H 
ATOM     38  H15 non d ame     -29.193   8.268  23.295  0.00  0.00     0.028 H 
ENDBRANCH  33  35
BRANCH  33  39
ATOM     39  C13 non d ame     -31.847   8.547  22.079  0.00  0.00    -0.071 C 
ATOM     40  H16 non d ame     -31.957   7.925  22.968  0.00  0.00     0.028 H 
ATOM     41  H17 non d ame     -32.764   9.116  21.918  0.00  0.00     0.028 H 
ATOM     42  H18 non d ame     -31.658   7.913  21.213  0.00  0.00     0.028 H 
ENDBRANCH  33  39
ENDBRANCH   7  33
ENDBRANCH   4   7
ENDBRANCH   1   3
BRANCH   1  43
ATOM     43  C15 non d ame     -31.156  15.232  24.938  0.00  0.00     0.240 C 
ATOM     44  O5  non d ame     -31.146  16.416  24.830  0.00  0.00    -0.271 OA
ATOM     45  N6  non d ame     -31.611  14.608  26.212  0.00  0.00    -0.355 N 
ATOM     46  H46 non d ame     -31.629  13.603  26.313  0.00  0.00     0.162 HD
BRANCH  45  47
ATOM     47  C20 non d ame     -32.040  15.467  27.338  0.00  0.00     0.013 C 
ATOM     48  H30 non d ame     -31.568  16.442  27.214  0.00  0.00     0.072 H 
BRANCH  47  49
ATOM     49  C21 non d ame     -31.597  14.841  28.641  0.00  0.00    -0.038 C 
ATOM     50  H31 non d ame     -30.752  15.440  28.984  0.00  0.00     0.036 H 
ATOM     51  H32 non d ame     -32.496  14.766  29.252  0.00  0.00     0.036 H 
BRANCH  49  52
ATOM     52  C22 non d ame     -31.068  13.401  28.465  0.00  0.00     0.018 C 
ATOM     53  H33 non d ame     -31.475  13.050  27.518  0.00  0.00     0.048 H 
ATOM     54  H34 non d ame     -29.987  13.466  28.603  0.00  0.00     0.048 H 
BRANCH  52  55
ATOM     55  C23 non d ame     -31.578  12.409  29.546  0.00  0.00     0.259 C 
ATOM     56  O7  non d ame     -30.878  12.089  30.451  0.00  0.00    -0.265 OA
BRANCH  55  57
ATOM     57  O8  non d ame     -32.892  11.873  29.435  0.00  0.00    -0.317 OA
BRANCH  57  58
ATOM     58  C29 non d ame     -32.951  10.449  29.555  0.00  0.00     0.052 C 
ATOM     59  H47 non d ame     -33.410  10.095  28.632  0.00  0.00     0.082 H 
ATOM     60  H48 non d ame     -31.942  10.133  29.819  0.00  0.00     0.082 H 
BRANCH  58  61
ATOM     61  C35 non d ame     -33.897  10.105  30.736  0.00  0.00    -0.034 A 
ATOM     62  C30 non d ame     -34.377   8.809  30.890  0.00  0.00    -0.075 A 
ATOM     63  C31 non d ame     -35.228   8.500  31.951  0.00  0.00    -0.082 A 
ATOM     64  H49 non d ame     -34.089   8.035  30.179  0.00  0.00     0.084 H 
ATOM     65  C32 non d ame     -35.599   9.495  32.859  0.00  0.00    -0.083 A 
ATOM     66  H50 non d ame     -35.602   7.483  32.069  0.00  0.00     0.083 H 
ATOM     67  C33 non d ame     -35.120  10.788  32.700  0.00  0.00    -0.082 A 
ATOM     68  H51 non d ame     -36.263   9.262  33.692  0.00  0.00     0.083 H 
ATOM     69  C34 non d ame     -34.268  11.100  31.642  0.00  0.00    -0.075 A 
ATOM     70  H52 non d ame     -35.413  11.563  33.409  0.00  0.00     0.083 H 
ATOM     71  H53 non d ame     -33.895  12.118  31.525  0.00  0.00     0.084 H 
ENDBRANCH  58  61
ENDBRANCH  57  58
ENDBRANCH  55  57
ENDBRANCH  52  55
ENDBRANCH  49  52
ENDBRANCH  47  49
BRANCH  47  72
ATOM     72  C24 non d ame     -33.560  15.608  27.330  0.00  0.00    -0.039 C 
ATOM     73  H35 non d ame     -33.903  15.001  26.492  0.00  0.00     0.036 H 
ATOM     74  H36 non d ame     -33.879  15.367  28.344  0.00  0.00     0.036 H 
BRANCH  72  75
ATOM     75  C25 non d ame     -34.014  17.117  27.038  0.00  0.00    -0.001 C 
ATOM     76  C26 non d ame     -35.221  17.547  28.068  0.00  0.00    -0.035 C 
ATOM     77  C27 non d ame     -36.248  18.057  27.348  0.00  0.00     0.085 C 
ATOM     78  H38 non d ame     -35.651  16.659  28.532  0.00  0.00     0.036 H 
ATOM     79  H39 non d ame     -34.903  18.386  28.687  0.00  0.00     0.036 H 
ATOM     80  N5  non d ame     -35.987  17.712  25.902  0.00  0.00    -0.049 N 
ATOM     81  H40 non d ame     -37.136  17.521  27.686  0.00  0.00     0.075 H 
ATOM     82  H41 non d ame     -36.183  19.138  27.472  0.00  0.00     0.075 H 
ATOM     83  C28 non d ame     -34.442  17.250  25.827  0.00  0.00     0.193 C 
ATOM     84  H42 non d ame     -36.571  16.917  25.686  0.00  0.00     0.280 HD
ATOM     85  H43 non d ame     -36.092  18.571  25.380  0.00  0.00     0.280 HD
ATOM     86  H44 non d ame     -33.683  17.918  25.421  0.00  0.00     0.129 H 
ATOM     87  H37 non d ame     -33.165  17.795  26.958  0.00  0.00     0.046 H 
BRANCH  83  88
ATOM     88  O6  non d ame     -34.325  16.039  25.077  0.00  0.00    -0.369 OA
ATOM     89  H45 non d ame     -33.494  15.609  25.291  0.00  0.00     0.212 HD
ENDBRANCH  83  88
ENDBRANCH  72  75
ENDBRANCH  47  72
ENDBRANCH  45  47
ENDBRANCH   1  43
BRANCH   1  90
ATOM     90  C16 non d ame     -31.410  14.794  22.475  0.00  0.00    -0.035 C 
ATOM     91  H21 non d ame     -31.649  13.877  21.937  0.00  0.00     0.037 H 
ATOM     92  H22 non d ame     -32.211  15.453  22.809  0.00  0.00     0.037 H 
BRANCH  90  93
ATOM     93  C17 non d ame     -30.508  15.641  21.523  0.00  0.00    -0.059 C 
ATOM     94  H23 non d ame     -30.811  16.683  21.620  0.00  0.00     0.038 H 
BRANCH  93  95
ATOM     95  C18 non d ame     -28.996  15.546  21.903  0.00  0.00    -0.073 C 
ATOM     96  H24 non d ame     -28.791  16.206  22.746  0.00  0.00     0.028 H 
ATOM     97  H25 non d ame     -28.755  14.519  22.180  0.00  0.00     0.028 H 
ATOM     98  H26 non d ame     -28.387  15.845  21.051  0.00  0.00     0.028 H 
ENDBRANCH  93  95
BRANCH  93  99
ATOM     99  C19 non d ame     -30.728  15.239  20.061  0.00  0.00    -0.073 C 
ATOM    100  H27 non d ame     -30.663  16.124  19.427  0.00  0.00     0.028 H 
ATOM    101  H28 non d ame     -29.963  14.522  19.763  0.00  0.00     0.028 H 
ATOM    102  H29 non d ame     -31.712  14.785  19.953  0.00  0.00     0.028 H 
ENDBRANCH  93  99
ENDBRANCH  90  93
ENDBRANCH   1  90
TORSDOF 26
ENDMDL
MODEL 4
REMARK VINA RESULT:      -7.0      2.836      6.052
REMARK  26 active torsions:
REMARK  status: ('A' for Active; 'I' for Inactive)
REMARK    1  A    between atoms: C2_2  and  C3_3 
REMARK    2  A    between atoms: C4_6  and  C5_7 
REMARK       I    between atoms: C5_7  and  N2_9 
REMARK    3  A    between atoms: N2_9  and  C6_10 
REMARK    4  A    between atoms: C6_10  and  C7_11 
REMARK    5  A    between atoms: C6_10  and  C8_13 
REMARK       I    between atoms: C7_11  and  N3_14 
REMARK    6  A    between atoms: N3_14  and  C9_15 
REMARK    7  A    between atoms: C9_15  and  C10_16 
REMARK    8  A    between atoms: C9_15  and  C11_18 
REMARK       I    between atoms: C10_16  and  N4_21 
REMARK    9  A    between atoms: C11_18  and  C12_19 
REMARK   10  A    between atoms: C11_18  and  C13_20 
REMARK   11  A    between atoms: N4_21  and  C14_22 
REMARK   12  A    between atoms: C14_22  and  C15_23 
REMARK   13  A    between atoms: C14_22  and  C16_25 
REMARK       I    between atoms: C15_23  and  N6_40 
REMARK   14  A    between atoms: C16_25  and  C17_26 
REMARK   15  A    between atoms: C17_26  and  C18_27 
REMARK   16  A    between atoms: C17_26  and  C19_28 
REMARK   17  A    between atoms: C20_29  and  C21_30 
REMARK   18  A    between atoms: C20_29  and  C24_33 
REMARK   19  A    between atoms: C20_29  and  N6_40 
REMARK   20  A    between atoms: C21_30  and  C22_31 
REMARK   21  A    between atoms: C22_31  and  C23_32 
REMARK   22  A    between atoms: C23_32  and  O8_43 
REMARK   23  A    between atoms: C24_33  and  C25_34 
REMARK   24  A    between atoms: C28_38  and  O6_39 
REMARK   25  A    between atoms: C29_42  and  O8_43 
REMARK   26  A    between atoms: C29_42  and  C35_49 
ROOT
ATOM      1  C14 non d ame     -31.160  13.467  24.707  0.00  0.00     0.089 C 
ATOM      2  H20 non d ame     -30.161  13.347  25.125  0.00  0.00     0.087 H 
ENDROOT
BRANCH   1   3
ATOM      3  N4  non d ame     -31.602  12.159  24.247  0.00  0.00    -0.346 N 
ATOM      4  C10 non d ame     -31.377  10.935  25.099  0.00  0.00     0.241 C 
ATOM      5  O4  non d ame     -30.834  11.028  26.150  0.00  0.00    -0.271 OA
ATOM      6  H19 non d ame     -32.060  12.102  23.348  0.00  0.00     0.163 HD
BRANCH   4   7
ATOM      7  C9  non d ame     -31.847   9.591  24.610  0.00  0.00     0.092 C 
ATOM      8  H11 non d ame     -31.161   8.820  24.963  0.00  0.00     0.088 H 
BRANCH   7   9
ATOM      9  N3  non d ame     -33.164   9.295  25.181  0.00  0.00    -0.346 N 
ATOM     10  C7  non d ame     -33.309   8.232  26.145  0.00  0.00     0.240 C 
ATOM     11  O3  non d ame     -32.376   7.604  26.471  0.00  0.00    -0.271 OA
ATOM     12  H10 non d ame     -33.977   9.827  24.908  0.00  0.00     0.163 HD
BRANCH  10  13
ATOM     13  C6  non d ame     -34.714   7.919  26.747  0.00  0.00     0.086 C 
ATOM     14  H6  non d ame     -34.860   6.858  26.948  0.00  0.00     0.086 H 
BRANCH  13  15
ATOM     15  N2  non d ame     -34.843   8.605  28.022  0.00  0.00    -0.343 N 
ATOM     16  C5  non d ame     -34.904   7.823  29.259  0.00  0.00     0.273 C 
ATOM     17  O2  non d ame     -34.851   6.644  29.217  0.00  0.00    -0.266 OA
ATOM     18  H5  non d ame     -34.892   9.614  28.048  0.00  0.00     0.163 HD
BRANCH  16  19
ATOM     19  C4  non d ame     -35.039   8.536  30.614  0.00  0.00     0.154 A 
ATOM     20  C1  non d ame     -35.554   9.849  30.853  0.00  0.00    -0.017 A 
ATOM     21  C2  non d ame     -35.463  10.027  32.251  0.00  0.00     0.077 A 
ATOM     22  H1  non d ame     -35.935  10.564  30.124  0.00  0.00     0.091 H 
ATOM     23  O1  non d ame     -34.956   8.936  32.748  0.00  0.00    -0.218 OA
ATOM     24  N1  non d ame     -34.700   8.052  31.812  0.00  0.00    -0.123 NA
BRANCH  21  25
ATOM     25  C3  non d ame     -35.882  11.265  33.032  0.00  0.00    -0.029 C 
ATOM     26  H2  non d ame     -35.036  11.948  33.114  0.00  0.00     0.036 H 
ATOM     27  H3  non d ame     -36.700  11.763  32.511  0.00  0.00     0.036 H 
ATOM     28  H4  non d ame     -36.210  10.973  34.029  0.00  0.00     0.036 H 
ENDBRANCH  21  25
ENDBRANCH  16  19
ENDBRANCH  13  15
BRANCH  13  29
ATOM     29  C8  non d ame     -35.787   8.388  25.797  0.00  0.00    -0.049 C 
ATOM     30  H7  non d ame     -35.589   9.419  25.505  0.00  0.00     0.030 H 
ATOM     31  H8  non d ame     -35.788   7.754  24.910  0.00  0.00     0.030 H 
ATOM     32  H9  non d ame     -36.758   8.329  26.288  0.00  0.00     0.030 H 
ENDBRANCH  13  29
ENDBRANCH  10  13
ENDBRANCH   7   9
BRANCH   7  33
ATOM     33  C11 non d ame     -31.950   9.612  23.057  0.00  0.00    -0.033 C 
ATOM     34  H12 non d ame     -32.162  10.639  22.756  0.00  0.00     0.042 H 
BRANCH  33  35
ATOM     35  C12 non d ame     -30.602   9.196  22.390  0.00  0.00    -0.071 C 
ATOM     36  H13 non d ame     -30.657   8.154  22.078  0.00  0.00     0.028 H 
ATOM     37  H14 non d ame     -30.417   9.827  21.521  0.00  0.00     0.028 H 
ATOM     38  H15 non d ame     -29.789   9.318  23.107  0.00  0.00     0.028 H 
ENDBRANCH  33  35
BRANCH  33  39
ATOM     39  C13 non d ame     -33.128   8.712  22.562  0.00  0.00    -0.071 C 
ATOM     40  H16 non d ame     -32.916   8.358  21.553  0.00  0.00     0.028 H 
ATOM     41  H17 non d ame     -33.239   7.858  23.231  0.00  0.00     0.028 H 
ATOM     42  H18 non d ame     -34.051   9.291  22.558  0.00  0.00     0.028 H 
ENDBRANCH  33  39
ENDBRANCH   7  33
ENDBRANCH   4   7
ENDBRANCH   1   3
BRANCH   1  43
ATOM     43  C15 non d ame     -32.178  13.993  25.758  0.00  0.00     0.240 C 
ATOM     44  O5  non d ame     -33.337  14.019  25.497  0.00  0.00    -0.271 OA
ATOM     45  N6  non d ame     -31.710  14.455  27.095  0.00  0.00    -0.355 N 
ATOM     46  H46 non d ame     -30.728  14.432  27.331  0.00  0.00     0.162 HD
BRANCH  45  47
ATOM     47  C20 non d ame     -32.690  14.951  28.086  0.00  0.00     0.013 C 
ATOM     48  H30 non d ame     -33.686  14.676  27.737  0.00  0.00     0.072 H 
BRANCH  47  49
ATOM     49  C21 non d ame     -32.576  16.455  28.193  0.00  0.00    -0.038 C 
ATOM     50  H31 non d ame     -32.837  16.697  29.224  0.00  0.00     0.036 H 
ATOM     51  H32 non d ame     -31.588  16.703  27.807  0.00  0.00     0.036 H 
BRANCH  49  52
ATOM     52  C22 non d ame     -33.593  17.198  27.300  0.00  0.00     0.018 C 
ATOM     53  H33 non d ame     -34.269  16.432  26.921  0.00  0.00     0.048 H 
ATOM     54  H34 non d ame     -33.982  18.013  27.912  0.00  0.00     0.048 H 
BRANCH  52  55
ATOM     55  C23 non d ame     -32.958  17.867  26.050  0.00  0.00     0.259 C 
ATOM     56  O7  non d ame     -32.095  17.319  25.445  0.00  0.00    -0.265 OA
BRANCH  55  57
ATOM     57  O8  non d ame     -33.411  19.153  25.643  0.00  0.00    -0.317 OA
BRANCH  57  58
ATOM     58  C29 non d ame     -34.016  19.916  26.691  0.00  0.00     0.052 C 
ATOM     59  H47 non d ame     -34.016  19.266  27.566  0.00  0.00     0.082 H 
ATOM     60  H48 non d ame     -33.478  20.864  26.715  0.00  0.00     0.082 H 
BRANCH  58  61
ATOM     61  C35 non d ame     -35.489  20.198  26.290  0.00  0.00    -0.034 A 
ATOM     62  C30 non d ame     -36.300  20.969  27.117  0.00  0.00    -0.075 A 
ATOM     63  C31 non d ame     -37.623  21.222  26.756  0.00  0.00    -0.082 A 
ATOM     64  H49 non d ame     -35.900  21.374  28.046  0.00  0.00     0.084 H 
ATOM     65  C32 non d ame     -38.135  20.699  25.566  0.00  0.00    -0.083 A 
ATOM     66  H50 non d ame     -38.256  21.828  27.406  0.00  0.00     0.083 H 
ATOM     67  C33 non d ame     -37.322  19.927  24.746  0.00  0.00    -0.082 A 
ATOM     68  H51 non d ame     -39.168  20.893  25.277  0.00  0.00     0.083 H 
ATOM     69  C34 non d ame     -35.999  19.674  25.101  0.00  0.00    -0.075 A 
ATOM     70  H52 non d ame     -37.725  19.519  23.819  0.00  0.00     0.083 H 
ATOM     71  H53 non d ame     -35.367  19.068  24.451  0.00  0.00     0.084 H 
ENDBRANCH  58  61
ENDBRANCH  57  58
ENDBRANCH  55  57
ENDBRANCH  52  55
ENDBRANCH  49  52
ENDBRANCH  47  49
BRANCH  47  72
ATOM     72  C24 non d ame     -32.413  14.320  29.449  0.00  0.00    -0.039 C 
ATOM     73  H35 non d ame     -31.736  15.009  29.954  0.00  0.00     0.036 H 
ATOM     74  H36 non d ame     -33.393  14.108  29.875  0.00  0.00     0.036 H 
BRANCH  72  75
ATOM     75  C25 non d ame     -31.646  12.920  29.309  0.00  0.00    -0.001 C 
ATOM     76  C26 non d ame     -32.733  11.687  29.292  0.00  0.00    -0.035 C 
ATOM     77  C27 non d ame     -32.362  10.765  30.213  0.00  0.00     0.085 C 
ATOM     78  H38 non d ame     -33.700  12.035  29.654  0.00  0.00     0.036 H 
ATOM     79  H39 non d ame     -32.668  11.144  28.348  0.00  0.00     0.036 H 
ATOM     80  N5  non d ame     -31.310  11.409  31.083  0.00  0.00    -0.049 N 
ATOM     81  H40 non d ame     -33.253  10.578  30.813  0.00  0.00     0.075 H 
ATOM     82  H41 non d ame     -31.906   9.954  29.646  0.00  0.00     0.075 H 
ATOM     83  C28 non d ame     -30.831  12.733  30.293  0.00  0.00     0.193 C 
ATOM     84  H42 non d ame     -31.775  11.693  31.933  0.00  0.00     0.280 HD
ATOM     85  H43 non d ame     -30.536  10.761  31.123  0.00  0.00     0.280 HD
ATOM     86  H44 non d ame     -29.878  12.750  29.766  0.00  0.00     0.129 H 
ATOM     87  H37 non d ame     -30.900  12.935  28.515  0.00  0.00     0.046 H 
BRANCH  83  88
ATOM     88  O6  non d ame     -30.794  13.851  31.183  0.00  0.00    -0.369 OA
ATOM     89  H45 non d ame     -31.691  14.125  31.390  0.00  0.00     0.212 HD
ENDBRANCH  83  88
ENDBRANCH  72  75
ENDBRANCH  47  72
ENDBRANCH  45  47
ENDBRANCH   1  43
BRANCH   1  90
ATOM     90  C16 non d ame     -31.111  14.419  23.522  0.00  0.00    -0.035 C 
ATOM     91  H21 non d ame     -31.823  14.019  22.801  0.00  0.00     0.037 H 
ATOM     92  H22 non d ame     -31.263  15.412  23.943  0.00  0.00     0.037 H 
BRANCH  90  93
ATOM     93  C17 non d ame     -29.726  14.451  22.801  0.00  0.00    -0.059 C 
ATOM     94  H23 non d ame     -28.957  14.555  23.566  0.00  0.00     0.038 H 
BRANCH  93  95
ATOM     95  C18 non d ame     -29.440  13.133  22.013  0.00  0.00    -0.073 C 
ATOM     96  H24 non d ame     -30.227  12.408  22.221  0.00  0.00     0.028 H 
ATOM     97  H25 non d ame     -29.419  13.347  20.944  0.00  0.00     0.028 H 
ATOM     98  H26 non d ame     -28.478  12.726  22.322  0.00  0.00     0.028 H 
ENDBRANCH  93  95
BRANCH  93  99
ATOM     99  C19 non d ame     -29.618  15.670  21.880  0.00  0.00    -0.073 C 
ATOM    100  H27 non d ame     -29.541  15.337  20.844  0.00  0.00     0.028 H 
ATOM    101  H28 non d ame     -30.505  16.293  21.996  0.00  0.00     0.028 H 
ATOM    102  H29 non d ame     -28.733  16.248  22.144  0.00  0.00     0.028 H 
ENDBRANCH  93  99
ENDBRANCH  90  93
ENDBRANCH   1  90
TORSDOF 26
ENDMDL
MODEL 5
REMARK VINA RESULT:      -6.9      3.596      6.129
REMARK  26 active torsions:
REMARK  status: ('A' for Active; 'I' for Inactive)
REMARK    1  A    between atoms: C2_2  and  C3_3 
REMARK    2  A    between atoms: C4_6  and  C5_7 
REMARK       I    between atoms: C5_7  and  N2_9 
REMARK    3  A    between atoms: N2_9  and  C6_10 
REMARK    4  A    between atoms: C6_10  and  C7_11 
REMARK    5  A    between atoms: C6_10  and  C8_13 
REMARK       I    between atoms: C7_11  and  N3_14 
REMARK    6  A    between atoms: N3_14  and  C9_15 
REMARK    7  A    between atoms: C9_15  and  C10_16 
REMARK    8  A    between atoms: C9_15  and  C11_18 
REMARK       I    between atoms: C10_16  and  N4_21 
REMARK    9  A    between atoms: C11_18  and  C12_19 
REMARK   10  A    between atoms: C11_18  and  C13_20 
REMARK   11  A    between atoms: N4_21  and  C14_22 
REMARK   12  A    between atoms: C14_22  and  C15_23 
REMARK   13  A    between atoms: C14_22  and  C16_25 
REMARK       I    between atoms: C15_23  and  N6_40 
REMARK   14  A    between atoms: C16_25  and  C17_26 
REMARK   15  A    between atoms: C17_26  and  C18_27 
REMARK   16  A    between atoms: C17_26  and  C19_28 
REMARK   17  A    between atoms: C20_29  and  C21_30 
REMARK   18  A    between atoms: C20_29  and  C24_33 
REMARK   19  A    between atoms: C20_29  and  N6_40 
REMARK   20  A    between atoms: C21_30  and  C22_31 
REMARK   21  A    between atoms: C22_31  and  C23_32 
REMARK   22  A    between atoms: C23_32  and  O8_43 
REMARK   23  A    between atoms: C24_33  and  C25_34 
REMARK   24  A    between atoms: C28_38  and  O6_39 
REMARK   25  A    between atoms: C29_42  and  O8_43 
REMARK   26  A    between atoms: C29_42  and  C35_49 
ROOT
ATOM      1  C14 non d ame     -32.909  10.387  25.564  0.00  0.00     0.089 C 
ATOM      2  H20 non d ame     -33.621  10.468  24.743  0.00  0.00     0.087 H 
ENDROOT
BRANCH   1   3
ATOM      3  N4  non d ame     -32.338   9.049  25.517  0.00  0.00    -0.346 N 
ATOM      4  C10 non d ame     -33.078   7.928  24.831  0.00  0.00     0.241 C 
ATOM      5  O4  non d ame     -34.134   8.126  24.329  0.00  0.00    -0.271 OA
ATOM      6  H19 non d ame     -31.438   8.902  25.953  0.00  0.00     0.163 HD
BRANCH   4   7
ATOM      7  C9  non d ame     -32.468   6.552  24.787  0.00  0.00     0.092 C 
ATOM      8  H11 non d ame     -31.406   6.622  25.023  0.00  0.00     0.088 H 
BRANCH   7   9
ATOM      9  N3  non d ame     -33.087   5.709  25.814  0.00  0.00    -0.346 N 
ATOM     10  C7  non d ame     -32.680   5.837  27.192  0.00  0.00     0.240 C 
ATOM     11  O3  non d ame     -31.856   6.612  27.491  0.00  0.00    -0.271 OA
ATOM     12  H10 non d ame     -33.798   5.035  25.571  0.00  0.00     0.163 HD
BRANCH  10  13
ATOM     13  C6  non d ame     -33.340   4.934  28.280  0.00  0.00     0.086 C 
ATOM     14  H6  non d ame     -32.709   4.805  29.160  0.00  0.00     0.086 H 
BRANCH  13  15
ATOM     15  N2  non d ame     -34.566   5.568  28.737  0.00  0.00    -0.343 N 
ATOM     16  C5  non d ame     -34.913   5.525  30.160  0.00  0.00     0.273 C 
ATOM     17  O2  non d ame     -34.201   4.977  30.927  0.00  0.00    -0.266 OA
ATOM     18  H5  non d ame     -35.171   6.031  28.074  0.00  0.00     0.163 HD
BRANCH  16  19
ATOM     19  C4  non d ame     -36.205   6.192  30.657  0.00  0.00     0.154 A 
ATOM     20  C1  non d ame     -36.503   7.591  30.679  0.00  0.00    -0.017 A 
ATOM     21  C2  non d ame     -37.804   7.678  31.223  0.00  0.00     0.077 A 
ATOM     22  H1  non d ame     -35.872   8.418  30.352  0.00  0.00     0.091 H 
ATOM     23  O1  non d ame     -38.199   6.464  31.477  0.00  0.00    -0.218 OA
ATOM     24  N1  non d ame     -37.282   5.580  31.156  0.00  0.00    -0.123 NA
BRANCH  21  25
ATOM     25  C3  non d ame     -38.597   8.955  31.464  0.00  0.00    -0.029 C 
ATOM     26  H2  non d ame     -38.239   9.439  32.373  0.00  0.00     0.036 H 
ATOM     27  H3  non d ame     -38.465   9.630  30.619  0.00  0.00     0.036 H 
ATOM     28  H4  non d ame     -39.653   8.712  31.574  0.00  0.00     0.036 H 
ENDBRANCH  21  25
ENDBRANCH  16  19
ENDBRANCH  13  15
BRANCH  13  29
ATOM     29  C8  non d ame     -33.646   3.579  27.696  0.00  0.00    -0.049 C 
ATOM     30  H7  non d ame     -32.888   3.321  26.957  0.00  0.00     0.030 H 
ATOM     31  H8  non d ame     -33.646   2.832  28.491  0.00  0.00     0.030 H 
ATOM     32  H9  non d ame     -34.626   3.601  27.218  0.00  0.00     0.030 H 
ENDBRANCH  13  29
ENDBRANCH  10  13
ENDBRANCH   7   9
BRANCH   7  33
ATOM     33  C11 non d ame     -32.714   5.922  23.385  0.00  0.00    -0.033 C 
ATOM     34  H12 non d ame     -33.560   6.442  22.935  0.00  0.00     0.042 H 
BRANCH  33  35
ATOM     35  C12 non d ame     -31.484   6.125  22.446  0.00  0.00    -0.071 C 
ATOM     36  H13 non d ame     -31.743   6.829  21.655  0.00  0.00     0.028 H 
ATOM     37  H14 non d ame     -30.648   6.519  23.023  0.00  0.00     0.028 H 
ATOM     38  H15 non d ame     -31.203   5.169  22.003  0.00  0.00     0.028 H 
ENDBRANCH  33  35
BRANCH  33  39
ATOM     39  C13 non d ame     -33.088   4.410  23.509  0.00  0.00    -0.071 C 
ATOM     40  H16 non d ame     -32.975   4.091  24.545  0.00  0.00     0.028 H 
ATOM     41  H17 non d ame     -34.122   4.264  23.194  0.00  0.00     0.028 H 
ATOM     42  H18 non d ame     -32.430   3.819  22.872  0.00  0.00     0.028 H 
ENDBRANCH  33  39
ENDBRANCH   7  33
ENDBRANCH   4   7
ENDBRANCH   1   3
BRANCH   1  43
ATOM     43  C15 non d ame     -31.756  11.423  25.447  0.00  0.00     0.240 C 
ATOM     44  O5  non d ame     -30.674  11.152  25.858  0.00  0.00    -0.271 OA
ATOM     45  N6  non d ame     -31.996  12.750  24.814  0.00  0.00    -0.355 N 
ATOM     46  H46 non d ame     -32.910  12.990  24.456  0.00  0.00     0.162 HD
BRANCH  45  47
ATOM     47  C20 non d ame     -30.889  13.725  24.708  0.00  0.00     0.013 C 
ATOM     48  H30 non d ame     -30.077  13.381  25.350  0.00  0.00     0.072 H 
BRANCH  47  49
ATOM     49  C21 non d ame     -31.371  15.082  25.168  0.00  0.00    -0.038 C 
ATOM     50  H31 non d ame     -30.980  15.207  26.179  0.00  0.00     0.036 H 
ATOM     51  H32 non d ame     -31.082  15.779  24.383  0.00  0.00     0.036 H 
BRANCH  49  52
ATOM     52  C22 non d ame     -32.908  15.165  25.283  0.00  0.00     0.018 C 
ATOM     53  H33 non d ame     -33.241  15.708  24.399  0.00  0.00     0.048 H 
ATOM     54  H34 non d ame     -33.247  14.142  25.453  0.00  0.00     0.048 H 
BRANCH  52  55
ATOM     55  C23 non d ame     -33.403  15.988  26.504  0.00  0.00     0.259 C 
ATOM     56  O7  non d ame     -33.935  17.039  26.348  0.00  0.00    -0.265 OA
BRANCH  55  57
ATOM     57  O8  non d ame     -33.198  15.478  27.817  0.00  0.00    -0.317 OA
BRANCH  57  58
ATOM     58  C29 non d ame     -33.667  14.139  28.000  0.00  0.00     0.052 C 
ATOM     59  H47 non d ame     -34.595  14.227  28.566  0.00  0.00     0.082 H 
ATOM     60  H48 non d ame     -33.674  13.690  27.007  0.00  0.00     0.082 H 
BRANCH  58  61
ATOM     61  C35 non d ame     -32.630  13.383  28.873  0.00  0.00    -0.034 A 
ATOM     62  C30 non d ame     -33.050  12.657  29.982  0.00  0.00    -0.075 A 
ATOM     63  C31 non d ame     -32.118  11.978  30.766  0.00  0.00    -0.082 A 
ATOM     64  H49 non d ame     -34.109  12.620  30.238  0.00  0.00     0.084 H 
ATOM     65  C32 non d ame     -30.761  12.030  30.438  0.00  0.00    -0.083 A 
ATOM     66  H50 non d ame     -32.451  11.408  31.635  0.00  0.00     0.083 H 
ATOM     67  C33 non d ame     -30.346  12.759  29.332  0.00  0.00    -0.082 A 
ATOM     68  H51 non d ame     -30.026  11.501  31.046  0.00  0.00     0.083 H 
ATOM     69  C34 non d ame     -31.274  13.437  28.545  0.00  0.00    -0.075 A 
ATOM     70  H52 non d ame     -29.285  12.799  29.080  0.00  0.00     0.083 H 
ATOM     71  H53 non d ame     -30.940  14.006  27.677  0.00  0.00     0.084 H 
ENDBRANCH  58  61
ENDBRANCH  57  58
ENDBRANCH  55  57
ENDBRANCH  52  55
ENDBRANCH  49  52
ENDBRANCH  47  49
BRANCH  47  72
ATOM     72  C24 non d ame     -30.417  13.816  23.259  0.00  0.00    -0.039 C 
ATOM     73  H35 non d ame     -29.454  13.304  23.235  0.00  0.00     0.036 H 
ATOM     74  H36 non d ame     -31.247  13.442  22.660  0.00  0.00     0.036 H 
BRANCH  72  75
ATOM     75  C25 non d ame     -30.158  15.333  22.813  0.00  0.00    -0.001 C 
ATOM     76  C26 non d ame     -31.259  15.777  21.677  0.00  0.00    -0.035 C 
ATOM     77  C27 non d ame     -30.603  16.307  20.617  0.00  0.00     0.085 C 
ATOM     78  H38 non d ame     -31.745  14.895  21.261  0.00  0.00     0.036 H 
ATOM     79  H39 non d ame     -31.861  16.609  22.045  0.00  0.00     0.036 H 
ATOM     80  N5  non d ame     -29.143  15.965  20.785  0.00  0.00    -0.049 N 
ATOM     81  H40 non d ame     -30.992  15.784  19.742  0.00  0.00     0.075 H 
ATOM     82  H41 non d ame     -30.727  17.386  20.706  0.00  0.00     0.075 H 
ATOM     83  C28 non d ame     -28.974  15.479  22.316  0.00  0.00     0.193 C 
ATOM     84  H42 non d ame     -28.960  15.180  20.177  0.00  0.00     0.280 HD
ATOM     85  H43 non d ame     -28.631  16.828  20.664  0.00  0.00     0.280 HD
ATOM     86  H44 non d ame     -28.527  16.136  23.060  0.00  0.00     0.129 H 
ATOM     87  H37 non d ame     -30.029  15.998  23.667  0.00  0.00     0.046 H 
BRANCH  83  88
ATOM     88  O6  non d ame     -28.215  14.269  22.368  0.00  0.00    -0.369 OA
ATOM     89  H45 non d ame     -28.294  13.879  23.241  0.00  0.00     0.212 HD
ENDBRANCH  83  88
ENDBRANCH  72  75
ENDBRANCH  47  72
ENDBRANCH  45  47
ENDBRANCH   1  43
BRANCH   1  90
ATOM     90  C16 non d ame     -33.630  10.571  26.890  0.00  0.00    -0.035 C 
ATOM     91  H21 non d ame     -33.416   9.669  27.463  0.00  0.00     0.037 H 
ATOM     92  H22 non d ame     -33.305  11.542  27.263  0.00  0.00     0.037 H 
BRANCH  90  93
ATOM     93  C17 non d ame     -35.184  10.647  26.754  0.00  0.00    -0.059 C 
ATOM     94  H23 non d ame     -35.520   9.727  26.277  0.00  0.00     0.038 H 
BRANCH  93  95
ATOM     95  C18 non d ame     -35.892  10.751  28.143  0.00  0.00    -0.073 C 
ATOM     96  H24 non d ame     -36.144   9.751  28.498  0.00  0.00     0.028 H 
ATOM     97  H25 non d ame     -35.223  11.231  28.857  0.00  0.00     0.028 H 
ATOM     98  H26 non d ame     -36.802  11.341  28.044  0.00  0.00     0.028 H 
ENDBRANCH  93  95
BRANCH  93  99
ATOM     99  C19 non d ame     -35.596  11.808  25.845  0.00  0.00    -0.073 C 
ATOM    100  H27 non d ame     -35.927  12.649  26.456  0.00  0.00     0.028 H 
ATOM    101  H28 non d ame     -34.745  12.115  25.238  0.00  0.00     0.028 H 
ATOM    102  H29 non d ame     -36.409  11.489  25.194  0.00  0.00     0.028 H 
ENDBRANCH  93  99
ENDBRANCH  90  93
ENDBRANCH   1  90
TORSDOF 26
ENDMDL
MODEL 6
REMARK VINA RESULT:      -6.8      2.074      5.223
REMARK  26 active torsions:
REMARK  status: ('A' for Active; 'I' for Inactive)
REMARK    1  A    between atoms: C2_2  and  C3_3 
REMARK    2  A    between atoms: C4_6  and  C5_7 
REMARK       I    between atoms: C5_7  and  N2_9 
REMARK    3  A    between atoms: N2_9  and  C6_10 
REMARK    4  A    between atoms: C6_10  and  C7_11 
REMARK    5  A    between atoms: C6_10  and  C8_13 
REMARK       I    between atoms: C7_11  and  N3_14 
REMARK    6  A    between atoms: N3_14  and  C9_15 
REMARK    7  A    between atoms: C9_15  and  C10_16 
REMARK    8  A    between atoms: C9_15  and  C11_18 
REMARK       I    between atoms: C10_16  and  N4_21 
REMARK    9  A    between atoms: C11_18  and  C12_19 
REMARK   10  A    between atoms: C11_18  and  C13_20 
REMARK   11  A    between atoms: N4_21  and  C14_22 
REMARK   12  A    between atoms: C14_22  and  C15_23 
REMARK   13  A    between atoms: C14_22  and  C16_25 
REMARK       I    between atoms: C15_23  and  N6_40 
REMARK   14  A    between atoms: C16_25  and  C17_26 
REMARK   15  A    between atoms: C17_26  and  C18_27 
REMARK   16  A    between atoms: C17_26  and  C19_28 
REMARK   17  A    between atoms: C20_29  and  C21_30 
REMARK   18  A    between atoms: C20_29  and  C24_33 
REMARK   19  A    between atoms: C20_29  and  N6_40 
REMARK   20  A    between atoms: C21_30  and  C22_31 
REMARK   21  A    between atoms: C22_31  and  C23_32 
REMARK   22  A    between atoms: C23_32  and  O8_43 
REMARK   23  A    between atoms: C24_33  and  C25_34 
REMARK   24  A    between atoms: C28_38  and  O6_39 
REMARK   25  A    between atoms: C29_42  and  O8_43 
REMARK   26  A    between atoms: C29_42  and  C35_49 
ROOT
ATOM      1  C14 non d ame     -31.025  13.746  24.661  0.00  0.00     0.089 C 
ATOM      2  H20 non d ame     -30.050  13.576  25.118  0.00  0.00     0.087 H 
ENDROOT
BRANCH   1   3
ATOM      3  N4  non d ame     -31.524  12.459  24.202  0.00  0.00    -0.346 N 
ATOM      4  C10 non d ame     -31.383  11.233  25.070  0.00  0.00     0.241 C 
ATOM      5  O4  non d ame     -30.861  11.307  26.132  0.00  0.00    -0.271 OA
ATOM      6  H19 non d ame     -31.963  12.416  23.293  0.00  0.00     0.163 HD
BRANCH   4   7
ATOM      7  C9  non d ame     -31.910   9.910  24.580  0.00  0.00     0.092 C 
ATOM      8  H11 non d ame     -31.488   9.109  25.187  0.00  0.00     0.088 H 
BRANCH   7   9
ATOM      9  N3  non d ame     -33.364   9.867  24.757  0.00  0.00    -0.346 N 
ATOM     10  C7  non d ame     -33.934   9.158  25.876  0.00  0.00     0.240 C 
ATOM     11  O3  non d ame     -33.236   8.614  26.643  0.00  0.00    -0.271 OA
ATOM     12  H10 non d ame     -33.979  10.330  24.103  0.00  0.00     0.163 HD
BRANCH  10  13
ATOM     13  C6  non d ame     -35.483   9.113  26.058  0.00  0.00     0.086 C 
ATOM     14  H6  non d ame     -35.781   8.797  27.058  0.00  0.00     0.086 H 
BRANCH  13  15
ATOM     15  N2  non d ame     -36.018  10.451  25.868  0.00  0.00    -0.343 N 
ATOM     16  C5  non d ame     -36.405  11.245  27.037  0.00  0.00     0.273 C 
ATOM     17  O2  non d ame     -36.283  10.798  28.124  0.00  0.00    -0.266 OA
ATOM     18  H5  non d ame     -36.122  10.824  24.936  0.00  0.00     0.163 HD
BRANCH  16  19
ATOM     19  C4  non d ame     -36.970  12.662  26.851  0.00  0.00     0.154 A 
ATOM     20  C1  non d ame     -36.248  13.839  26.478  0.00  0.00    -0.017 A 
ATOM     21  C2  non d ame     -37.218  14.866  26.446  0.00  0.00     0.077 A 
ATOM     22  H1  non d ame     -35.184  13.935  26.265  0.00  0.00     0.091 H 
ATOM     23  O1  non d ame     -38.361  14.329  26.763  0.00  0.00    -0.218 OA
ATOM     24  N1  non d ame     -38.241  13.044  27.004  0.00  0.00    -0.123 NA
BRANCH  21  25
ATOM     25  C3  non d ame     -36.972  16.329  26.103  0.00  0.00    -0.029 C 
ATOM     26  H2  non d ame     -37.398  16.550  25.124  0.00  0.00     0.036 H 
ATOM     27  H3  non d ame     -37.443  16.963  26.854  0.00  0.00     0.036 H 
ATOM     28  H4  non d ame     -35.900  16.523  26.084  0.00  0.00     0.036 H 
ENDBRANCH  21  25
ENDBRANCH  16  19
ENDBRANCH  13  15
BRANCH  13  29
ATOM     29  C8  non d ame     -36.083   8.169  25.047  0.00  0.00    -0.049 C 
ATOM     30  H7  non d ame     -36.390   7.250  25.546  0.00  0.00     0.030 H 
ATOM     31  H8  non d ame     -36.951   8.638  24.584  0.00  0.00     0.030 H 
ATOM     32  H9  non d ame     -35.343   7.938  24.281  0.00  0.00     0.030 H 
ENDBRANCH  13  29
ENDBRANCH  10  13
ENDBRANCH   7   9
BRANCH   7  33
ATOM     33  C11 non d ame     -31.568   9.742  23.071  0.00  0.00    -0.033 C 
ATOM     34  H12 non d ame     -31.768  10.696  22.581  0.00  0.00     0.042 H 
BRANCH  33  35
ATOM     35  C12 non d ame     -30.057   9.414  22.862  0.00  0.00    -0.071 C 
ATOM     36  H13 non d ame     -29.471  10.328  22.955  0.00  0.00     0.028 H 
ATOM     37  H14 non d ame     -29.734   8.697  23.616  0.00  0.00     0.028 H 
ATOM     38  H15 non d ame     -29.911   8.988  21.869  0.00  0.00     0.028 H 
ENDBRANCH  33  35
BRANCH  33  39
ATOM     39  C13 non d ame     -32.480   8.660  22.408  0.00  0.00    -0.071 C 
ATOM     40  H16 non d ame     -31.974   8.242  21.537  0.00  0.00     0.028 H 
ATOM     41  H17 non d ame     -32.684   7.866  23.127  0.00  0.00     0.028 H 
ATOM     42  H18 non d ame     -33.419   9.117  22.098  0.00  0.00     0.028 H 
ENDBRANCH  33  39
ENDBRANCH   7  33
ENDBRANCH   4   7
ENDBRANCH   1   3
BRANCH   1  43
ATOM     43  C15 non d ame     -32.049  14.344  25.668  0.00  0.00     0.240 C 
ATOM     44  O5  non d ame     -33.069  14.806  25.269  0.00  0.00    -0.271 OA
ATOM     45  N6  non d ame     -31.763  14.331  27.131  0.00  0.00    -0.355 N 
ATOM     46  H46 non d ame     -30.902  13.936  27.481  0.00  0.00     0.162 HD
BRANCH  45  47
ATOM     47  C20 non d ame     -32.748  14.901  28.076  0.00  0.00     0.013 C 
ATOM     48  H30 non d ame     -33.737  14.806  27.627  0.00  0.00     0.072 H 
BRANCH  47  49
ATOM     49  C21 non d ame     -32.426  16.359  28.314  0.00  0.00    -0.038 C 
ATOM     50  H31 non d ame     -32.516  16.509  29.391  0.00  0.00     0.036 H 
ATOM     51  H32 non d ame     -31.472  16.535  27.817  0.00  0.00     0.036 H 
BRANCH  49  52
ATOM     52  C22 non d ame     -33.444  17.313  27.654  0.00  0.00     0.018 C 
ATOM     53  H33 non d ame     -34.173  16.672  27.161  0.00  0.00     0.048 H 
ATOM     54  H34 non d ame     -33.765  17.994  28.445  0.00  0.00     0.048 H 
BRANCH  52  55
ATOM     55  C23 non d ame     -32.835  18.208  26.540  0.00  0.00     0.259 C 
ATOM     56  O7  non d ame     -31.927  17.816  25.881  0.00  0.00    -0.265 OA
BRANCH  55  57
ATOM     57  O8  non d ame     -33.366  19.510  26.323  0.00  0.00    -0.317 OA
BRANCH  57  58
ATOM     58  C29 non d ame     -34.324  19.918  27.304  0.00  0.00     0.052 C 
ATOM     59  H47 non d ame     -34.478  19.050  27.945  0.00  0.00     0.082 H 
ATOM     60  H48 non d ame     -33.938  20.846  27.726  0.00  0.00     0.082 H 
BRANCH  58  61
ATOM     61  C35 non d ame     -35.657  20.230  26.572  0.00  0.00    -0.034 A 
ATOM     62  C30 non d ame     -36.652  20.958  27.217  0.00  0.00    -0.075 A 
ATOM     63  C31 non d ame     -37.850  21.237  26.559  0.00  0.00    -0.082 A 
ATOM     64  H49 non d ame     -36.495  21.307  28.237  0.00  0.00     0.084 H 
ATOM     65  C32 non d ame     -38.050  20.785  25.253  0.00  0.00    -0.083 A 
ATOM     66  H50 non d ame     -38.627  21.809  27.067  0.00  0.00     0.083 H 
ATOM     67  C33 non d ame     -37.056  20.057  24.614  0.00  0.00    -0.082 A 
ATOM     68  H51 non d ame     -38.983  21.000  24.732  0.00  0.00     0.083 H 
ATOM     69  C34 non d ame     -35.857  19.776  25.267  0.00  0.00    -0.075 A 
ATOM     70  H52 non d ame     -37.216  19.703  23.595  0.00  0.00     0.083 H 
ATOM     71  H53 non d ame     -35.080  19.205  24.758  0.00  0.00     0.084 H 
ENDBRANCH  58  61
ENDBRANCH  57  58
ENDBRANCH  55  57
ENDBRANCH  52  55
ENDBRANCH  49  52
ENDBRANCH  47  49
BRANCH  47  72
ATOM     72  C24 non d ame     -32.691  14.144  29.401  0.00  0.00    -0.039 C 
ATOM     73  H35 non d ame     -32.076  14.758  30.059  0.00  0.00     0.036 H 
ATOM     74  H36 non d ame     -33.729  13.938  29.661  0.00  0.00     0.036 H 
BRANCH  72  75
ATOM     75  C25 non d ame     -31.954  12.730  29.245  0.00  0.00    -0.001 C 
ATOM     76  C26 non d ame     -33.057  11.513  29.310  0.00  0.00    -0.035 C 
ATOM     77  C27 non d ame     -32.648  10.602  30.226  0.00  0.00     0.085 C 
ATOM     78  H38 non d ame     -33.997  11.882  29.719  0.00  0.00     0.036 H 
ATOM     79  H39 non d ame     -33.052  10.954  28.375  0.00  0.00     0.036 H 
ATOM     80  N5  non d ame     -31.541  11.246  31.024  0.00  0.00    -0.049 N 
ATOM     81  H40 non d ame     -33.507  10.439  30.878  0.00  0.00     0.075 H 
ATOM     82  H41 non d ame     -32.236   9.775  29.650  0.00  0.00     0.075 H 
ATOM     83  C28 non d ame     -31.087  12.549  30.185  0.00  0.00     0.193 C 
ATOM     84  H42 non d ame     -31.953  11.551  31.894  0.00  0.00     0.280 HD
ATOM     85  H43 non d ame     -30.775  10.587  31.033  0.00  0.00     0.280 HD
ATOM     86  H44 non d ame     -30.165  12.541  29.606  0.00  0.00     0.129 H 
ATOM     87  H37 non d ame     -31.253  12.720  28.410  0.00  0.00     0.046 H 
BRANCH  83  88
ATOM     88  O6  non d ame     -30.985  13.681  31.051  0.00  0.00    -0.369 OA
ATOM     89  H45 non d ame     -30.901  13.384  31.959  0.00  0.00     0.212 HD
ENDBRANCH  83  88
ENDBRANCH  72  75
ENDBRANCH  47  72
ENDBRANCH  45  47
ENDBRANCH   1  43
BRANCH   1  90
ATOM     90  C16 non d ame     -30.880  14.676  23.467  0.00  0.00    -0.035 C 
ATOM     91  H21 non d ame     -31.659  14.373  22.769  0.00  0.00     0.037 H 
ATOM     92  H22 non d ame     -30.883  15.683  23.884  0.00  0.00     0.037 H 
BRANCH  90  93
ATOM     93  C17 non d ame     -29.523  14.516  22.710  0.00  0.00    -0.059 C 
ATOM     94  H23 non d ame     -28.724  14.559  23.449  0.00  0.00     0.038 H 
BRANCH  93  95
ATOM     95  C18 non d ame     -29.419  13.143  21.973  0.00  0.00    -0.073 C 
ATOM     96  H24 non d ame     -28.377  12.822  21.947  0.00  0.00     0.028 H 
ATOM     97  H25 non d ame     -30.013  12.399  22.504  0.00  0.00     0.028 H 
ATOM     98  H26 non d ame     -29.792  13.246  20.955  0.00  0.00     0.028 H 
ENDBRANCH  93  95
BRANCH  93  99
ATOM     99  C19 non d ame     -29.303  15.675  21.734  0.00  0.00    -0.073 C 
ATOM    100  H27 non d ame     -29.804  15.457  20.790  0.00  0.00     0.028 H 
ATOM    101  H28 non d ame     -29.713  16.591  22.158  0.00  0.00     0.028 H 
ATOM    102  H29 non d ame     -28.235  15.804  21.558  0.00  0.00     0.028 H 
ENDBRANCH  93  99
ENDBRANCH  90  93
ENDBRANCH   1  90
TORSDOF 26
ENDMDL
MODEL 7
REMARK VINA RESULT:      -6.8      3.625      6.865
REMARK  26 active torsions:
REMARK  status: ('A' for Active; 'I' for Inactive)
REMARK    1  A    between atoms: C2_2  and  C3_3 
REMARK    2  A    between atoms: C4_6  and  C5_7 
REMARK       I    between atoms: C5_7  and  N2_9 
REMARK    3  A    between atoms: N2_9  and  C6_10 
REMARK    4  A    between atoms: C6_10  and  C7_11 
REMARK    5  A    between atoms: C6_10  and  C8_13 
REMARK       I    between atoms: C7_11  and  N3_14 
REMARK    6  A    between atoms: N3_14  and  C9_15 
REMARK    7  A    between atoms: C9_15  and  C10_16 
REMARK    8  A    between atoms: C9_15  and  C11_18 
REMARK       I    between atoms: C10_16  and  N4_21 
REMARK    9  A    between atoms: C11_18  and  C12_19 
REMARK   10  A    between atoms: C11_18  and  C13_20 
REMARK   11  A    between atoms: N4_21  and  C14_22 
REMARK   12  A    between atoms: C14_22  and  C15_23 
REMARK   13  A    between atoms: C14_22  and  C16_25 
REMARK       I    between atoms: C15_23  and  N6_40 
REMARK   14  A    between atoms: C16_25  and  C17_26 
REMARK   15  A    between atoms: C17_26  and  C18_27 
REMARK   16  A    between atoms: C17_26  and  C19_28 
REMARK   17  A    between atoms: C20_29  and  C21_30 
REMARK   18  A    between atoms: C20_29  and  C24_33 
REMARK   19  A    between atoms: C20_29  and  N6_40 
REMARK   20  A    between atoms: C21_30  and  C22_31 
REMARK   21  A    between atoms: C22_31  and  C23_32 
REMARK   22  A    between atoms: C23_32  and  O8_43 
REMARK   23  A    between atoms: C24_33  and  C25_34 
REMARK   24  A    between atoms: C28_38  and  O6_39 
REMARK   25  A    between atoms: C29_42  and  O8_43 
REMARK   26  A    between atoms: C29_42  and  C35_49 
ROOT
ATOM      1  C14 non d ame     -33.033  10.290  25.561  0.00  0.00     0.089 C 
ATOM      2  H20 non d ame     -33.687  10.368  24.692  0.00  0.00     0.087 H 
ENDROOT
BRANCH   1   3
ATOM      3  N4  non d ame     -32.464   8.950  25.561  0.00  0.00    -0.346 N 
ATOM      4  C10 non d ame     -33.139   7.836  24.801  0.00  0.00     0.241 C 
ATOM      5  O4  non d ame     -34.141   8.040  24.200  0.00  0.00    -0.271 OA
ATOM      6  H19 non d ame     -31.612   8.797  26.081  0.00  0.00     0.163 HD
BRANCH   4   7
ATOM      7  C9  non d ame     -32.533   6.457  24.807  0.00  0.00     0.092 C 
ATOM      8  H11 non d ame     -31.469   6.534  25.037  0.00  0.00     0.088 H 
BRANCH   7   9
ATOM      9  N3  non d ame     -33.148   5.656  25.869  0.00  0.00    -0.346 N 
ATOM     10  C7  non d ame     -32.671   5.768  27.225  0.00  0.00     0.240 C 
ATOM     11  O3  non d ame     -31.790   6.496  27.480  0.00  0.00    -0.271 OA
ATOM     12  H10 non d ame     -33.907   5.023  25.665  0.00  0.00     0.163 HD
BRANCH  10  13
ATOM     13  C6  non d ame     -33.328   4.910  28.351  0.00  0.00     0.086 C 
ATOM     14  H6  non d ame     -32.696   4.816  29.233  0.00  0.00     0.086 H 
BRANCH  13  15
ATOM     15  N2  non d ame     -34.553   5.563  28.785  0.00  0.00    -0.343 N 
ATOM     16  C5  non d ame     -34.927   5.525  30.201  0.00  0.00     0.273 C 
ATOM     17  O2  non d ame     -34.238   4.965  30.981  0.00  0.00    -0.266 OA
ATOM     18  H5  non d ame     -35.137   6.036  28.111  0.00  0.00     0.163 HD
BRANCH  16  19
ATOM     19  C4  non d ame     -36.217   6.211  30.674  0.00  0.00     0.154 A 
ATOM     20  C1  non d ame     -36.467   7.617  30.761  0.00  0.00    -0.017 A 
ATOM     21  C2  non d ame     -37.789   7.723  31.248  0.00  0.00     0.077 A 
ATOM     22  H1  non d ame     -35.793   8.436  30.512  0.00  0.00     0.091 H 
ATOM     23  O1  non d ame     -38.238   6.513  31.415  0.00  0.00    -0.218 OA
ATOM     24  N1  non d ame     -37.339   5.614  31.087  0.00  0.00    -0.123 NA
BRANCH  21  25
ATOM     25  C3  non d ame     -38.548   9.014  31.525  0.00  0.00    -0.029 C 
ATOM     26  H2  non d ame     -39.028   9.357  30.608  0.00  0.00     0.036 H 
ATOM     27  H3  non d ame     -39.307   8.834  32.286  0.00  0.00     0.036 H 
ATOM     28  H4  non d ame     -37.854   9.776  31.877  0.00  0.00     0.036 H 
ENDBRANCH  21  25
ENDBRANCH  16  19
ENDBRANCH  13  15
BRANCH  13  29
ATOM     29  C8  non d ame     -33.637   3.533  27.822  0.00  0.00    -0.049 C 
ATOM     30  H7  non d ame     -33.760   2.842  28.655  0.00  0.00     0.030 H 
ATOM     31  H8  non d ame     -34.558   3.566  27.239  0.00  0.00     0.030 H 
ATOM     32  H9  non d ame     -32.818   3.195  27.187  0.00  0.00     0.030 H 
ENDBRANCH  13  29
ENDBRANCH  10  13
ENDBRANCH   7   9
BRANCH   7  33
ATOM     33  C11 non d ame     -32.785   5.773  23.432  0.00  0.00    -0.033 C 
ATOM     34  H12 non d ame     -33.660   6.247  22.986  0.00  0.00     0.042 H 
BRANCH  33  35
ATOM     35  C12 non d ame     -31.585   5.992  22.458  0.00  0.00    -0.071 C 
ATOM     36  H13 non d ame     -31.782   5.477  21.518  0.00  0.00     0.028 H 
ATOM     37  H14 non d ame     -31.461   7.058  22.270  0.00  0.00     0.028 H 
ATOM     38  H15 non d ame     -30.676   5.593  22.907  0.00  0.00     0.028 H 
ENDBRANCH  33  35
BRANCH  33  39
ATOM     39  C13 non d ame     -33.099   4.253  23.612  0.00  0.00    -0.071 C 
ATOM     40  H16 non d ame     -32.848   3.719  22.696  0.00  0.00     0.028 H 
ATOM     41  H17 non d ame     -32.509   3.855  24.439  0.00  0.00     0.028 H 
ATOM     42  H18 non d ame     -34.159   4.125  23.829  0.00  0.00     0.028 H 
ENDBRANCH  33  39
ENDBRANCH   7  33
ENDBRANCH   4   7
ENDBRANCH   1   3
BRANCH   1  43
ATOM     43  C15 non d ame     -31.871  11.322  25.517  0.00  0.00     0.240 C 
ATOM     44  O5  non d ame     -30.915  11.165  26.207  0.00  0.00    -0.271 OA
ATOM     45  N6  non d ame     -31.944  12.501  24.609  0.00  0.00    -0.355 N 
ATOM     46  H46 non d ame     -32.749  12.642  24.015  0.00  0.00     0.162 HD
BRANCH  45  47
ATOM     47  C20 non d ame     -30.830  13.473  24.577  0.00  0.00     0.013 C 
ATOM     48  H30 non d ame     -30.021  13.076  25.190  0.00  0.00     0.072 H 
BRANCH  47  49
ATOM     49  C21 non d ame     -31.303  14.795  25.140  0.00  0.00    -0.038 C 
ATOM     50  H31 non d ame     -30.425  15.250  25.601  0.00  0.00     0.036 H 
ATOM     51  H32 non d ame     -31.811  15.299  24.319  0.00  0.00     0.036 H 
BRANCH  49  52
ATOM     52  C22 non d ame     -32.348  14.628  26.264  0.00  0.00     0.018 C 
ATOM     53  H33 non d ame     -33.060  15.440  26.128  0.00  0.00     0.048 H 
ATOM     54  H34 non d ame     -32.684  13.592  26.202  0.00  0.00     0.048 H 
BRANCH  52  55
ATOM     55  C23 non d ame     -31.764  14.804  27.693  0.00  0.00     0.259 C 
ATOM     56  O7  non d ame     -30.798  14.199  28.029  0.00  0.00    -0.265 OA
BRANCH  55  57
ATOM     57  O8  non d ame     -32.407  15.688  28.605  0.00  0.00    -0.317 OA
BRANCH  57  58
ATOM     58  C29 non d ame     -33.680  16.162  28.155  0.00  0.00     0.052 C 
ATOM     59  H47 non d ame     -33.983  15.483  27.359  0.00  0.00     0.082 H 
ATOM     60  H48 non d ame     -34.292  16.260  29.051  0.00  0.00     0.082 H 
BRANCH  58  61
ATOM     61  C35 non d ame     -33.476  17.574  27.543  0.00  0.00    -0.034 A 
ATOM     62  C30 non d ame     -34.105  17.914  26.350  0.00  0.00    -0.075 A 
ATOM     63  C31 non d ame     -33.922  19.183  25.800  0.00  0.00    -0.082 A 
ATOM     64  H49 non d ame     -34.741  17.187  25.845  0.00  0.00     0.084 H 
ATOM     65  C32 non d ame     -33.104  20.112  26.448  0.00  0.00    -0.083 A 
ATOM     66  H50 non d ame     -34.418  19.446  24.866  0.00  0.00     0.083 H 
ATOM     67  C33 non d ame     -32.475  19.767  27.637  0.00  0.00    -0.082 A 
ATOM     68  H51 non d ame     -32.956  21.106  26.026  0.00  0.00     0.083 H 
ATOM     69  C34 non d ame     -32.657  18.501  28.191  0.00  0.00    -0.075 A 
ATOM     70  H52 non d ame     -31.836  20.494  28.139  0.00  0.00     0.083 H 
ATOM     71  H53 non d ame     -32.161  18.239  29.125  0.00  0.00     0.084 H 
ENDBRANCH  58  61
ENDBRANCH  57  58
ENDBRANCH  55  57
ENDBRANCH  52  55
ENDBRANCH  49  52
ENDBRANCH  47  49
BRANCH  47  72
ATOM     72  C24 non d ame     -30.357  13.671  23.139  0.00  0.00    -0.039 C 
ATOM     73  H35 non d ame     -29.357  13.237  23.101  0.00  0.00     0.036 H 
ATOM     74  H36 non d ame     -31.151  13.263  22.514  0.00  0.00     0.036 H 
BRANCH  72  75
ATOM     75  C25 non d ame     -30.214  15.223  22.770  0.00  0.00    -0.001 C 
ATOM     76  C26 non d ame     -31.272  15.612  21.573  0.00  0.00    -0.035 C 
ATOM     77  C27 non d ame     -30.598  16.247  20.584  0.00  0.00     0.085 C 
ATOM     78  H38 non d ame     -31.641  14.708  21.090  0.00  0.00     0.036 H 
ATOM     79  H39 non d ame     -31.975  16.367  21.926  0.00  0.00     0.036 H 
ATOM     80  N5  non d ame     -29.127  16.034  20.846  0.00  0.00    -0.049 N 
ATOM     81  H40 non d ame     -30.873  15.728  19.664  0.00  0.00     0.075 H 
ATOM     82  H41 non d ame     -30.831  17.304  20.704  0.00  0.00     0.075 H 
ATOM     83  C28 non d ame     -29.019  15.500  22.366  0.00  0.00     0.193 C 
ATOM     84  H42 non d ame     -28.827  15.297  20.224  0.00  0.00     0.280 HD
ATOM     85  H43 non d ame     -28.693  16.946  20.794  0.00  0.00     0.280 HD
ATOM     86  H44 non d ame     -28.689  16.163  23.164  0.00  0.00     0.129 H 
ATOM     87  H37 non d ame     -30.210  15.860  23.654  0.00  0.00     0.046 H 
BRANCH  83  88
ATOM     88  O6  non d ame     -28.152  14.365  22.429  0.00  0.00    -0.369 OA
ATOM     89  H45 non d ame     -27.581  14.441  23.196  0.00  0.00     0.212 HD
ENDBRANCH  83  88
ENDBRANCH  72  75
ENDBRANCH  47  72
ENDBRANCH  45  47
ENDBRANCH   1  43
BRANCH   1  90
ATOM     90  C16 non d ame     -33.843  10.484  26.833  0.00  0.00    -0.035 C 
ATOM     91  H21 non d ame     -33.220  11.101  27.481  0.00  0.00     0.037 H 
ATOM     92  H22 non d ame     -34.815  10.851  26.503  0.00  0.00     0.037 H 
BRANCH  90  93
ATOM     93  C17 non d ame     -34.112   9.159  27.614  0.00  0.00    -0.059 C 
ATOM     94  H23 non d ame     -33.520   8.373  27.147  0.00  0.00     0.038 H 
BRANCH  93  95
ATOM     95  C18 non d ame     -33.677   9.258  29.111  0.00  0.00    -0.073 C 
ATOM     96  H24 non d ame     -33.490   8.259  29.503  0.00  0.00     0.028 H 
ATOM     97  H25 non d ame     -32.766   9.853  29.186  0.00  0.00     0.028 H 
ATOM     98  H26 non d ame     -34.469   9.733  29.689  0.00  0.00     0.028 H 
ENDBRANCH  93  95
BRANCH  93  99
ATOM     99  C19 non d ame     -35.583   8.747  27.502  0.00  0.00    -0.073 C 
ATOM    100  H27 non d ame     -35.798   7.964  28.229  0.00  0.00     0.028 H 
ATOM    101  H28 non d ame     -36.218   9.611  27.700  0.00  0.00     0.028 H 
ATOM    102  H29 non d ame     -35.780   8.375  26.497  0.00  0.00     0.028 H 
ENDBRANCH  93  99
ENDBRANCH  90  93
ENDBRANCH   1  90
TORSDOF 26
ENDMDL
MODEL 8
REMARK VINA RESULT:      -6.8      1.864      4.180
REMARK  26 active torsions:
REMARK  status: ('A' for Active; 'I' for Inactive)
REMARK    1  A    between atoms: C2_2  and  C3_3 
REMARK    2  A    between atoms: C4_6  and  C5_7 
REMARK       I    between atoms: C5_7  and  N2_9 
REMARK    3  A    between atoms: N2_9  and  C6_10 
REMARK    4  A    between atoms: C6_10  and  C7_11 
REMARK    5  A    between atoms: C6_10  and  C8_13 
REMARK       I    between atoms: C7_11  and  N3_14 
REMARK    6  A    between atoms: N3_14  and  C9_15 
REMARK    7  A    between atoms: C9_15  and  C10_16 
REMARK    8  A    between atoms: C9_15  and  C11_18 
REMARK       I    between atoms: C10_16  and  N4_21 
REMARK    9  A    between atoms: C11_18  and  C12_19 
REMARK   10  A    between atoms: C11_18  and  C13_20 
REMARK   11  A    between atoms: N4_21  and  C14_22 
REMARK   12  A    between atoms: C14_22  and  C15_23 
REMARK   13  A    between atoms: C14_22  and  C16_25 
REMARK       I    between atoms: C15_23  and  N6_40 
REMARK   14  A    between atoms: C16_25  and  C17_26 
REMARK   15  A    between atoms: C17_26  and  C18_27 
REMARK   16  A    between atoms: C17_26  and  C19_28 
REMARK   17  A    between atoms: C20_29  and  C21_30 
REMARK   18  A    between atoms: C20_29  and  C24_33 
REMARK   19  A    between atoms: C20_29  and  N6_40 
REMARK   20  A    between atoms: C21_30  and  C22_31 
REMARK   21  A    between atoms: C22_31  and  C23_32 
REMARK   22  A    between atoms: C23_32  and  O8_43 
REMARK   23  A    between atoms: C24_33  and  C25_34 
REMARK   24  A    between atoms: C28_38  and  O6_39 
REMARK   25  A    between atoms: C29_42  and  O8_43 
REMARK   26  A    between atoms: C29_42  and  C35_49 
ROOT
ATOM      1  C14 non d ame     -30.945  14.337  23.869  0.00  0.00     0.089 C 
ATOM      2  H20 non d ame     -29.918  14.585  24.141  0.00  0.00     0.087 H 
ENDROOT
BRANCH   1   3
ATOM      3  N4  non d ame     -31.148  12.927  24.167  0.00  0.00    -0.346 N 
ATOM      4  C10 non d ame     -30.439  11.868  23.360  0.00  0.00     0.241 C 
ATOM      5  O4  non d ame     -29.713  12.175  22.474  0.00  0.00    -0.271 OA
ATOM      6  H19 non d ame     -31.772  12.687  24.924  0.00  0.00     0.163 HD
BRANCH   4   7
ATOM      7  C9  non d ame     -30.656  10.414  23.686  0.00  0.00     0.092 C 
ATOM      8  H11 non d ame     -30.016  10.134  24.523  0.00  0.00     0.088 H 
BRANCH   7   9
ATOM      9  N3  non d ame     -32.043  10.210  24.115  0.00  0.00    -0.346 N 
ATOM     10  C7  non d ame     -32.380  10.267  25.516  0.00  0.00     0.240 C 
ATOM     11  O3  non d ame     -31.547  10.474  26.312  0.00  0.00    -0.271 OA
ATOM     12  H10 non d ame     -32.772  10.029  23.440  0.00  0.00     0.163 HD
BRANCH  10  13
ATOM     13  C6  non d ame     -33.857  10.047  25.967  0.00  0.00     0.086 C 
ATOM     14  H6  non d ame     -34.129  10.651  26.832  0.00  0.00     0.086 H 
BRANCH  13  15
ATOM     15  N2  non d ame     -34.744  10.447  24.886  0.00  0.00    -0.343 N 
ATOM     16  C5  non d ame     -35.937  11.242  25.189  0.00  0.00     0.273 C 
ATOM     17  O2  non d ame     -36.175  11.551  26.304  0.00  0.00    -0.266 OA
ATOM     18  H5  non d ame     -34.534  10.175  23.937  0.00  0.00     0.163 HD
BRANCH  16  19
ATOM     19  C4  non d ame     -36.881  11.673  24.057  0.00  0.00     0.154 A 
ATOM     20  C1  non d ame     -37.596  12.908  23.950  0.00  0.00    -0.017 A 
ATOM     21  C2  non d ame     -38.314  12.809  22.737  0.00  0.00     0.077 A 
ATOM     22  H1  non d ame     -37.595  13.747  24.645  0.00  0.00     0.091 H 
ATOM     23  O1  non d ame     -38.035  11.650  22.215  0.00  0.00    -0.218 OA
ATOM     24  N1  non d ame     -37.202  10.969  22.968  0.00  0.00    -0.123 NA
BRANCH  21  25
ATOM     25  C3  non d ame     -39.241  13.865  22.150  0.00  0.00    -0.029 C 
ATOM     26  H2  non d ame     -38.664  14.552  21.531  0.00  0.00     0.036 H 
ATOM     27  H3  non d ame     -40.003  13.380  21.539  0.00  0.00     0.036 H 
ATOM     28  H4  non d ame     -39.720  14.419  22.956  0.00  0.00     0.036 H 
ENDBRANCH  21  25
ENDBRANCH  16  19
ENDBRANCH  13  15
BRANCH  13  29
ATOM     29  C8  non d ame     -34.073   8.592  26.299  0.00  0.00    -0.049 C 
ATOM     30  H7  non d ame     -34.160   8.475  27.379  0.00  0.00     0.030 H 
ATOM     31  H8  non d ame     -34.988   8.242  25.821  0.00  0.00     0.030 H 
ATOM     32  H9  non d ame     -33.227   8.007  25.936  0.00  0.00     0.030 H 
ENDBRANCH  13  29
ENDBRANCH  10  13
ENDBRANCH   7   9
BRANCH   7  33
ATOM     33  C11 non d ame     -30.375   9.551  22.422  0.00  0.00    -0.033 C 
ATOM     34  H12 non d ame     -30.250  10.233  21.580  0.00  0.00     0.042 H 
BRANCH  33  35
ATOM     35  C12 non d ame     -29.049   8.741  22.569  0.00  0.00    -0.071 C 
ATOM     36  H13 non d ame     -28.852   8.196  21.645  0.00  0.00     0.028 H 
ATOM     37  H14 non d ame     -28.226   9.425  22.770  0.00  0.00     0.028 H 
ATOM     38  H15 non d ame     -29.145   8.034  23.393  0.00  0.00     0.028 H 
ENDBRANCH  33  35
BRANCH  33  39
ATOM     39  C13 non d ame     -31.582   8.611  22.106  0.00  0.00    -0.071 C 
ATOM     40  H16 non d ame     -32.069   8.940  21.188  0.00  0.00     0.028 H 
ATOM     41  H17 non d ame     -31.223   7.588  21.981  0.00  0.00     0.028 H 
ATOM     42  H18 non d ame     -32.295   8.645  22.929  0.00  0.00     0.028 H 
ENDBRANCH  33  39
ENDBRANCH   7  33
ENDBRANCH   4   7
ENDBRANCH   1   3
BRANCH   1  43
ATOM     43  C15 non d ame     -31.983  15.168  24.675  0.00  0.00     0.240 C 
ATOM     44  O5  non d ame     -32.989  15.524  24.152  0.00  0.00    -0.271 OA
ATOM     45  N6  non d ame     -31.728  15.512  26.103  0.00  0.00    -0.355 N 
ATOM     46  H46 non d ame     -30.879  15.210  26.559  0.00  0.00     0.162 HD
BRANCH  45  47
ATOM     47  C20 non d ame     -32.726  16.302  26.857  0.00  0.00     0.013 C 
ATOM     48  H30 non d ame     -33.712  16.069  26.453  0.00  0.00     0.072 H 
BRANCH  47  49
ATOM     49  C21 non d ame     -32.432  17.775  26.685  0.00  0.00    -0.038 C 
ATOM     50  H31 non d ame     -31.368  17.837  26.448  0.00  0.00     0.036 H 
ATOM     51  H32 non d ame     -33.171  18.142  25.974  0.00  0.00     0.036 H 
BRANCH  49  52
ATOM     52  C22 non d ame     -32.636  18.583  27.985  0.00  0.00     0.018 C 
ATOM     53  H33 non d ame     -33.036  17.877  28.711  0.00  0.00     0.048 H 
ATOM     54  H34 non d ame     -31.683  19.079  28.176  0.00  0.00     0.048 H 
BRANCH  52  55
ATOM     55  C23 non d ame     -33.691  19.715  27.859  0.00  0.00     0.259 C 
ATOM     56  O7  non d ame     -33.483  20.660  27.169  0.00  0.00    -0.265 OA
BRANCH  55  57
ATOM     57  O8  non d ame     -34.907  19.620  28.592  0.00  0.00    -0.317 OA
BRANCH  57  58
ATOM     58  C29 non d ame     -36.080  19.615  27.772  0.00  0.00     0.052 C 
ATOM     59  H47 non d ame     -36.921  19.678  28.462  0.00  0.00     0.082 H 
ATOM     60  H48 non d ame     -35.924  20.397  27.030  0.00  0.00     0.082 H 
BRANCH  58  61
ATOM     61  C35 non d ame     -36.147  18.249  27.039  0.00  0.00    -0.034 A 
ATOM     62  C30 non d ame     -36.253  17.070  27.771  0.00  0.00    -0.075 A 
ATOM     63  C31 non d ame     -36.313  15.842  27.112  0.00  0.00    -0.082 A 
ATOM     64  H49 non d ame     -36.288  17.108  28.859  0.00  0.00     0.084 H 
ATOM     65  C32 non d ame     -36.264  15.796  25.716  0.00  0.00    -0.083 A 
ATOM     66  H50 non d ame     -36.397  14.921  27.689  0.00  0.00     0.083 H 
ATOM     67  C33 non d ame     -36.156  16.975  24.991  0.00  0.00    -0.082 A 
ATOM     68  H51 non d ame     -36.311  14.841  25.194  0.00  0.00     0.083 H 
ATOM     69  C34 non d ame     -36.098  18.204  25.645  0.00  0.00    -0.075 A 
ATOM     70  H52 non d ame     -36.116  16.936  23.902  0.00  0.00     0.083 H 
ATOM     71  H53 non d ame     -36.014  19.125  25.067  0.00  0.00     0.084 H 
ENDBRANCH  58  61
ENDBRANCH  57  58
ENDBRANCH  55  57
ENDBRANCH  52  55
ENDBRANCH  49  52
ENDBRANCH  47  49
BRANCH  47  72
ATOM     72  C24 non d ame     -32.661  15.937  28.339  0.00  0.00    -0.039 C 
ATOM     73  H35 non d ame     -32.314  16.840  28.844  0.00  0.00     0.036 H 
ATOM     74  H36 non d ame     -33.640  15.522  28.578  0.00  0.00     0.036 H 
BRANCH  72  75
ATOM     75  C25 non d ame     -31.579  14.791  28.620  0.00  0.00    -0.001 C 
ATOM     76  C26 non d ame     -32.320  13.325  28.685  0.00  0.00    -0.035 C 
ATOM     77  C27 non d ame     -31.947  12.697  29.825  0.00  0.00     0.085 C 
ATOM     78  H38 non d ame     -33.396  13.455  28.805  0.00  0.00     0.036 H 
ATOM     79  H39 non d ame     -31.934  12.676  27.899  0.00  0.00     0.036 H 
ATOM     80  N5  non d ame     -31.280  13.730  30.701  0.00  0.00    -0.049 N 
ATOM     81  H40 non d ame     -32.876  12.376  30.299  0.00  0.00     0.075 H 
ATOM     82  H41 non d ame     -31.206  11.957  29.522  0.00  0.00     0.075 H 
ATOM     83  C28 non d ame     -30.967  14.990  29.741  0.00  0.00     0.193 C 
ATOM     84  H42 non d ame     -31.966  14.011  31.386  0.00  0.00     0.280 HD
ATOM     85  H43 non d ame     -30.403  13.328  31.000  0.00  0.00     0.280 HD
ATOM     86  H44 non d ame     -29.955  15.176  29.383  0.00  0.00     0.129 H 
ATOM     87  H37 non d ame     -30.707  14.878  27.972  0.00  0.00     0.046 H 
BRANCH  83  88
ATOM     88  O6  non d ame     -31.379  16.204  30.371  0.00  0.00    -0.369 OA
ATOM     89  H45 non d ame     -31.592  16.031  31.291  0.00  0.00     0.212 HD
ENDBRANCH  83  88
ENDBRANCH  72  75
ENDBRANCH  47  72
ENDBRANCH  45  47
ENDBRANCH   1  43
BRANCH   1  90
ATOM     90  C16 non d ame     -31.153  14.564  22.380  0.00  0.00    -0.035 C 
ATOM     91  H21 non d ame     -30.876  13.625  21.903  0.00  0.00     0.037 H 
ATOM     92  H22 non d ame     -32.170  14.943  22.286  0.00  0.00     0.037 H 
BRANCH  90  93
ATOM     93  C17 non d ame     -30.216  15.658  21.776  0.00  0.00    -0.059 C 
ATOM     94  H23 non d ame     -30.518  16.619  22.191  0.00  0.00     0.038 H 
BRANCH  93  95
ATOM     95  C18 non d ame     -28.718  15.424  22.153  0.00  0.00    -0.073 C 
ATOM     96  H24 non d ame     -28.272  16.366  22.471  0.00  0.00     0.028 H 
ATOM     97  H25 non d ame     -28.657  14.702  22.968  0.00  0.00     0.028 H 
ATOM     98  H26 non d ame     -28.180  15.041  21.287  0.00  0.00     0.028 H 
ENDBRANCH  93  95
BRANCH  93  99
ATOM     99  C19 non d ame     -30.387  15.745  20.257  0.00  0.00    -0.073 C 
ATOM    100  H27 non d ame     -29.878  14.904  19.785  0.00  0.00     0.028 H 
ATOM    101  H28 non d ame     -31.448  15.712  20.008  0.00  0.00     0.028 H 
ATOM    102  H29 non d ame     -29.959  16.680  19.896  0.00  0.00     0.028 H 
ENDBRANCH  93  99
ENDBRANCH  90  93
ENDBRANCH   1  90
TORSDOF 26
ENDMDL
MODEL 9
REMARK VINA RESULT:      -6.8      2.476      7.812
REMARK  26 active torsions:
REMARK  status: ('A' for Active; 'I' for Inactive)
REMARK    1  A    between atoms: C2_2  and  C3_3 
REMARK    2  A    between atoms: C4_6  and  C5_7 
REMARK       I    between atoms: C5_7  and  N2_9 
REMARK    3  A    between atoms: N2_9  and  C6_10 
REMARK    4  A    between atoms: C6_10  and  C7_11 
REMARK    5  A    between atoms: C6_10  and  C8_13 
REMARK       I    between atoms: C7_11  and  N3_14 
REMARK    6  A    between atoms: N3_14  and  C9_15 
REMARK    7  A    between atoms: C9_15  and  C10_16 
REMARK    8  A    between atoms: C9_15  and  C11_18 
REMARK       I    between atoms: C10_16  and  N4_21 
REMARK    9  A    between atoms: C11_18  and  C12_19 
REMARK   10  A    between atoms: C11_18  and  C13_20 
REMARK   11  A    between atoms: N4_21  and  C14_22 
REMARK   12  A    between atoms: C14_22  and  C15_23 
REMARK   13  A    between atoms: C14_22  and  C16_25 
REMARK       I    between atoms: C15_23  and  N6_40 
REMARK   14  A    between atoms: C16_25  and  C17_26 
REMARK   15  A    between atoms: C17_26  and  C18_27 
REMARK   16  A    between atoms: C17_26  and  C19_28 
REMARK   17  A    between atoms: C20_29  and  C21_30 
REMARK   18  A    between atoms: C20_29  and  C24_33 
REMARK   19  A    between atoms: C20_29  and  N6_40 
REMARK   20  A    between atoms: C21_30  and  C22_31 
REMARK   21  A    between atoms: C22_31  and  C23_32 
REMARK   22  A    between atoms: C23_32  and  O8_43 
REMARK   23  A    between atoms: C24_33  and  C25_34 
REMARK   24  A    between atoms: C28_38  and  O6_39 
REMARK   25  A    between atoms: C29_42  and  O8_43 
REMARK   26  A    between atoms: C29_42  and  C35_49 
ROOT
ATOM      1  C14 non d ame     -36.504  15.866  26.585  0.00  0.00     0.089 C 
ATOM      2  H20 non d ame     -37.114  16.390  27.321  0.00  0.00     0.087 H 
ENDROOT
BRANCH   1   3
ATOM      3  N4  non d ame     -35.111  16.044  26.965  0.00  0.00    -0.346 N 
ATOM      4  C10 non d ame     -34.712  17.160  27.897  0.00  0.00     0.241 C 
ATOM      5  O4  non d ame     -35.530  17.905  28.326  0.00  0.00    -0.271 OA
ATOM      6  H19 non d ame     -34.430  15.401  26.587  0.00  0.00     0.163 HD
BRANCH   4   7
ATOM      7  C9  non d ame     -33.266  17.326  28.284  0.00  0.00     0.092 C 
ATOM      8  H11 non d ame     -33.208  17.830  29.249  0.00  0.00     0.088 H 
BRANCH   7   9
ATOM      9  N3  non d ame     -32.649  16.007  28.447  0.00  0.00    -0.346 N 
ATOM     10  C7  non d ame     -31.714  15.775  29.521  0.00  0.00     0.240 C 
ATOM     11  O3  non d ame     -31.447  16.641  30.262  0.00  0.00    -0.271 OA
ATOM     12  H10 non d ame     -32.868  15.251  27.814  0.00  0.00     0.163 HD
BRANCH  10  13
ATOM     13  C6  non d ame     -31.058  14.370  29.687  0.00  0.00     0.086 C 
ATOM     14  H6  non d ame     -30.437  14.297  30.580  0.00  0.00     0.086 H 
BRANCH  13  15
ATOM     15  N2  non d ame     -32.108  13.374  29.829  0.00  0.00    -0.343 N 
ATOM     16  C5  non d ame     -31.830  12.132  30.554  0.00  0.00     0.273 C 
ATOM     17  O2  non d ame     -30.759  11.942  31.017  0.00  0.00    -0.266 OA
ATOM     18  H5  non d ame     -33.018  13.542  29.427  0.00  0.00     0.163 HD
BRANCH  16  19
ATOM     19  C4  non d ame     -32.930  11.071  30.713  0.00  0.00     0.154 A 
ATOM     20  C1  non d ame     -33.328  10.087  29.753  0.00  0.00    -0.017 A 
ATOM     21  C2  non d ame     -34.369   9.367  30.381  0.00  0.00     0.077 A 
ATOM     22  H1  non d ame     -32.925   9.922  28.754  0.00  0.00     0.091 H 
ATOM     23  O1  non d ame     -34.538   9.883  31.564  0.00  0.00    -0.218 OA
ATOM     24  N1  non d ame     -33.711  10.879  31.780  0.00  0.00    -0.123 NA
BRANCH  21  25
ATOM     25  C3  non d ame     -35.146   8.201  29.784  0.00  0.00    -0.029 C 
ATOM     26  H2  non d ame     -36.205   8.453  29.742  0.00  0.00     0.036 H 
ATOM     27  H3  non d ame     -34.781   7.999  28.777  0.00  0.00     0.036 H 
ATOM     28  H4  non d ame     -35.008   7.316  30.404  0.00  0.00     0.036 H 
ENDBRANCH  21  25
ENDBRANCH  16  19
ENDBRANCH  13  15
BRANCH  13  29
ATOM     29  C8  non d ame     -30.212  14.060  28.478  0.00  0.00    -0.049 C 
ATOM     30  H7  non d ame     -30.857  13.916  27.611  0.00  0.00     0.030 H 
ATOM     31  H8  non d ame     -29.531  14.890  28.289  0.00  0.00     0.030 H 
ATOM     32  H9  non d ame     -29.637  13.152  28.659  0.00  0.00     0.030 H 
ENDBRANCH  13  29
ENDBRANCH  10  13
ENDBRANCH   7   9
BRANCH   7  33
ATOM     33  C11 non d ame     -32.518  18.112  27.168  0.00  0.00    -0.033 C 
ATOM     34  H12 non d ame     -31.452  17.912  27.284  0.00  0.00     0.042 H 
BRANCH  33  35
ATOM     35  C12 non d ame     -32.936  17.620  25.747  0.00  0.00    -0.071 C 
ATOM     36  H13 non d ame     -33.998  17.814  25.593  0.00  0.00     0.028 H 
ATOM     37  H14 non d ame     -32.357  18.153  24.994  0.00  0.00     0.028 H 
ATOM     38  H15 non d ame     -32.746  16.550  25.662  0.00  0.00     0.028 H 
ENDBRANCH  33  35
BRANCH  33  39
ATOM     39  C13 non d ame     -32.739  19.651  27.323  0.00  0.00    -0.071 C 
ATOM     40  H16 non d ame     -33.520  19.977  26.635  0.00  0.00     0.028 H 
ATOM     41  H17 non d ame     -33.041  19.874  28.347  0.00  0.00     0.028 H 
ATOM     42  H18 non d ame     -31.812  20.176  27.096  0.00  0.00     0.028 H 
ENDBRANCH  33  39
ENDBRANCH   7  33
ENDBRANCH   4   7
ENDBRANCH   1   3
BRANCH   1  43
ATOM     43  C15 non d ame     -36.815  14.343  26.542  0.00  0.00     0.240 C 
ATOM     44  O5  non d ame     -37.879  13.947  26.893  0.00  0.00    -0.271 OA
ATOM     45  N6  non d ame     -35.790  13.378  26.053  0.00  0.00    -0.355 N 
ATOM     46  H46 non d ame     -34.884  13.703  25.747  0.00  0.00     0.162 HD
BRANCH  45  47
ATOM     47  C20 non d ame     -36.101  11.932  26.016  0.00  0.00     0.013 C 
ATOM     48  H30 non d ame     -37.004  11.769  26.604  0.00  0.00     0.072 H 
BRANCH  47  49
ATOM     49  C21 non d ame     -34.948  11.157  26.613  0.00  0.00    -0.038 C 
ATOM     50  H31 non d ame     -34.734  11.638  27.569  0.00  0.00     0.036 H 
ATOM     51  H32 non d ame     -35.251  10.111  26.586  0.00  0.00     0.036 H 
BRANCH  49  52
ATOM     52  C22 non d ame     -33.657  11.261  25.774  0.00  0.00     0.018 C 
ATOM     53  H33 non d ame     -33.114  10.334  25.952  0.00  0.00     0.048 H 
ATOM     54  H34 non d ame     -33.981  11.516  24.764  0.00  0.00     0.048 H 
BRANCH  52  55
ATOM     55  C23 non d ame     -32.709  12.407  26.222  0.00  0.00     0.259 C 
ATOM     56  O7  non d ame     -33.100  13.268  26.941  0.00  0.00    -0.265 OA
BRANCH  55  57
ATOM     57  O8  non d ame     -31.366  12.426  25.750  0.00  0.00    -0.317 OA
BRANCH  57  58
ATOM     58  C29 non d ame     -31.219  11.981  24.398  0.00  0.00     0.052 C 
ATOM     59  H47 non d ame     -30.475  11.185  24.429  0.00  0.00     0.082 H 
ATOM     60  H48 non d ame     -32.228  11.771  24.045  0.00  0.00     0.082 H 
BRANCH  58  61
ATOM     61  C35 non d ame     -30.643  13.159  23.567  0.00  0.00    -0.034 A 
ATOM     62  C30 non d ame     -30.833  14.470  23.993  0.00  0.00    -0.075 A 
ATOM     63  C31 non d ame     -30.316  15.528  23.246  0.00  0.00    -0.082 A 
ATOM     64  H49 non d ame     -31.386  14.669  24.910  0.00  0.00     0.084 H 
ATOM     65  C32 non d ame     -29.609  15.271  22.068  0.00  0.00    -0.083 A 
ATOM     66  H50 non d ame     -30.465  16.554  23.583  0.00  0.00     0.083 H 
ATOM     67  C33 non d ame     -29.426  13.961  21.645  0.00  0.00    -0.082 A 
ATOM     68  H51 non d ame     -29.202  16.092  21.479  0.00  0.00     0.083 H 
ATOM     69  C34 non d ame     -29.939  12.901  22.390  0.00  0.00    -0.075 A 
ATOM     70  H52 non d ame     -28.876  13.764  20.724  0.00  0.00     0.083 H 
ATOM     71  H53 non d ame     -29.789  11.875  22.052  0.00  0.00     0.084 H 
ENDBRANCH  58  61
ENDBRANCH  57  58
ENDBRANCH  55  57
ENDBRANCH  52  55
ENDBRANCH  49  52
ENDBRANCH  47  49
BRANCH  47  72
ATOM     72  C24 non d ame     -36.321  11.487  24.571  0.00  0.00    -0.039 C 
ATOM     73  H35 non d ame     -35.699  12.150  23.967  0.00  0.00     0.036 H 
ATOM     74  H36 non d ame     -36.136  10.414  24.567  0.00  0.00     0.036 H 
BRANCH  72  75
ATOM     75  C25 non d ame     -37.838  11.708  24.108  0.00  0.00    -0.001 C 
ATOM     76  C26 non d ame     -38.386  10.365  23.334  0.00  0.00    -0.035 C 
ATOM     77  C27 non d ame     -38.922  10.734  22.146  0.00  0.00     0.085 C 
ATOM     78  H38 non d ame     -37.549   9.729  23.049  0.00  0.00     0.036 H 
ATOM     79  H39 non d ame     -39.233   9.942  23.874  0.00  0.00     0.036 H 
ATOM     80  N5  non d ame     -38.495  12.160  21.893  0.00  0.00    -0.049 N 
ATOM     81  H40 non d ame     -38.456  10.087  21.402  0.00  0.00     0.075 H 
ATOM     82  H41 non d ame     -40.002  10.708  22.292  0.00  0.00     0.075 H 
ATOM     83  C28 non d ame     -37.940  12.714  23.304  0.00  0.00     0.193 C 
ATOM     84  H42 non d ame     -37.727  12.118  21.239  0.00  0.00     0.280 HD
ATOM     85  H43 non d ame     -39.334  12.671  21.654  0.00  0.00     0.280 HD
ATOM     86  H44 non d ame     -38.541  13.390  23.909  0.00  0.00     0.129 H 
ATOM     87  H37 non d ame     -38.460  12.109  24.907  0.00  0.00     0.046 H 
BRANCH  83  88
ATOM     88  O6  non d ame     -36.690  13.381  23.114  0.00  0.00    -0.369 OA
ATOM     89  H45 non d ame     -35.995  12.890  23.558  0.00  0.00     0.212 HD
ENDBRANCH  83  88
ENDBRANCH  72  75
ENDBRANCH  47  72
ENDBRANCH  45  47
ENDBRANCH   1  43
BRANCH   1  90
ATOM     90  C16 non d ame     -36.725  16.472  25.208  0.00  0.00    -0.035 C 
ATOM     91  H21 non d ame     -35.729  16.598  24.785  0.00  0.00     0.037 H 
ATOM     92  H22 non d ame     -37.446  15.819  24.718  0.00  0.00     0.037 H 
BRANCH  90  93
ATOM     93  C17 non d ame     -37.369  17.894  25.245  0.00  0.00    -0.059 C 
ATOM     94  H23 non d ame     -37.803  18.035  26.235  0.00  0.00     0.038 H 
BRANCH  93  95
ATOM     95  C18 non d ame     -36.315  19.025  25.021  0.00  0.00    -0.073 C 
ATOM     96  H24 non d ame     -35.860  18.908  24.038  0.00  0.00     0.028 H 
ATOM     97  H25 non d ame     -36.806  19.997  25.080  0.00  0.00     0.028 H 
ATOM     98  H26 non d ame     -35.544  18.961  25.789  0.00  0.00     0.028 H 
ENDBRANCH  93  95
BRANCH  93  99
ATOM     99  C19 non d ame     -38.509  18.004  24.229  0.00  0.00    -0.073 C 
ATOM    100  H27 non d ame     -38.467  18.978  23.740  0.00  0.00     0.028 H 
ATOM    101  H28 non d ame     -38.406  17.219  23.480  0.00  0.00     0.028 H 
ATOM    102  H29 non d ame     -39.464  17.894  24.741  0.00  0.00     0.028 H 
ENDBRANCH  93  99
ENDBRANCH  90  93
ENDBRANCH   1  90
TORSDOF 26
ENDMDL
MODEL 10
REMARK VINA RESULT:      -6.7      2.891      4.996
REMARK  26 active torsions:
REMARK  status: ('A' for Active; 'I' for Inactive)
REMARK    1  A    between atoms: C2_2  and  C3_3 
REMARK    2  A    between atoms: C4_6  and  C5_7 
REMARK       I    between atoms: C5_7  and  N2_9 
REMARK    3  A    between atoms: N2_9  and  C6_10 
REMARK    4  A    between atoms: C6_10  and  C7_11 
REMARK    5  A    between atoms: C6_10  and  C8_13 
REMARK       I    between atoms: C7_11  and  N3_14 
REMARK    6  A    between atoms: N3_14  and  C9_15 
REMARK    7  A    between atoms: C9_15  and  C10_16 
REMARK    8  A    between atoms: C9_15  and  C11_18 
REMARK       I    between atoms: C10_16  and  N4_21 
REMARK    9  A    between atoms: C11_18  and  C12_19 
REMARK   10  A    between atoms: C11_18  and  C13_20 
REMARK   11  A    between atoms: N4_21  and  C14_22 
REMARK   12  A    between atoms: C14_22  and  C15_23 
REMARK   13  A    between atoms: C14_22  and  C16_25 
REMARK       I    between atoms: C15_23  and  N6_40 
REMARK   14  A    between atoms: C16_25  and  C17_26 
REMARK   15  A    between atoms: C17_26  and  C18_27 
REMARK   16  A    between atoms: C17_26  and  C19_28 
REMARK   17  A    between atoms: C20_29  and  C21_30 
REMARK   18  A    between atoms: C20_29  and  C24_33 
REMARK   19  A    between atoms: C20_29  and  N6_40 
REMARK   20  A    between atoms: C21_30  and  C22_31 
REMARK   21  A    between atoms: C22_31  and  C23_32 
REMARK   22  A    between atoms: C23_32  and  O8_43 
REMARK   23  A    between atoms: C24_33  and  C25_34 
REMARK   24  A    between atoms: C28_38  and  O6_39 
REMARK   25  A    between atoms: C29_42  and  O8_43 
REMARK   26  A    between atoms: C29_42  and  C35_49 
ROOT
ATOM      1  C14 non d ame     -31.040  14.004  24.437  0.00  0.00     0.089 C 
ATOM      2  H20 non d ame     -30.047  13.595  24.628  0.00  0.00     0.087 H 
ENDROOT
BRANCH   1   3
ATOM      3  N4  non d ame     -32.000  12.928  24.627  0.00  0.00    -0.346 N 
ATOM      4  C10 non d ame     -31.534  11.554  25.040  0.00  0.00     0.241 C 
ATOM      5  O4  non d ame     -30.380  11.338  25.210  0.00  0.00    -0.271 OA
ATOM      6  H19 non d ame     -32.978  13.132  24.476  0.00  0.00     0.163 HD
BRANCH   4   7
ATOM      7  C9  non d ame     -32.543  10.454  25.239  0.00  0.00     0.092 C 
ATOM      8  H11 non d ame     -33.437  10.678  24.656  0.00  0.00     0.088 H 
BRANCH   7   9
ATOM      9  N3  non d ame     -31.998   9.193  24.730  0.00  0.00    -0.346 N 
ATOM     10  C7  non d ame     -32.406   8.701  23.437  0.00  0.00     0.240 C 
ATOM     11  O3  non d ame     -33.174   9.307  22.794  0.00  0.00    -0.271 OA
ATOM     12  H10 non d ame     -31.337   8.658  25.274  0.00  0.00     0.163 HD
BRANCH  10  13
ATOM     13  C6  non d ame     -31.825   7.355  22.902  0.00  0.00     0.086 C 
ATOM     14  H6  non d ame     -30.851   7.117  23.329  0.00  0.00     0.086 H 
BRANCH  13  15
ATOM     15  N2  non d ame     -32.720   6.273  23.279  0.00  0.00    -0.343 N 
ATOM     16  C5  non d ame     -32.584   5.651  24.598  0.00  0.00     0.273 C 
ATOM     17  O2  non d ame     -31.751   6.026  25.347  0.00  0.00    -0.266 OA
ATOM     18  H5  non d ame     -33.426   5.956  22.630  0.00  0.00     0.163 HD
BRANCH  16  19
ATOM     19  C4  non d ame     -33.523   4.507  25.010  0.00  0.00     0.154 A 
ATOM     20  C1  non d ame     -34.537   4.541  26.018  0.00  0.00    -0.017 A 
ATOM     21  C2  non d ame     -35.109   3.249  26.004  0.00  0.00     0.077 A 
ATOM     22  H1  non d ame     -34.815   5.375  26.663  0.00  0.00     0.091 H 
ATOM     23  O1  non d ame     -34.490   2.562  25.088  0.00  0.00    -0.218 OA
ATOM     24  N1  non d ame     -33.560   3.275  24.495  0.00  0.00    -0.123 NA
BRANCH  21  25
ATOM     25  C3  non d ame     -36.241   2.754  26.894  0.00  0.00    -0.029 C 
ATOM     26  H2  non d ame     -36.932   3.574  27.093  0.00  0.00     0.036 H 
ATOM     27  H3  non d ame     -36.772   1.947  26.391  0.00  0.00     0.036 H 
ATOM     28  H4  non d ame     -35.831   2.389  27.834  0.00  0.00     0.036 H 
ENDBRANCH  21  25
ENDBRANCH  16  19
ENDBRANCH  13  15
BRANCH  13  29
ATOM     29  C8  non d ame     -31.698   7.421  21.401  0.00  0.00    -0.049 C 
ATOM     30  H7  non d ame     -31.098   6.582  21.050  0.00  0.00     0.030 H 
ATOM     31  H8  non d ame     -32.690   7.372  20.951  0.00  0.00     0.030 H 
ATOM     32  H9  non d ame     -31.216   8.357  21.118  0.00  0.00     0.030 H 
ENDBRANCH  13  29
ENDBRANCH  10  13
ENDBRANCH   7   9
BRANCH   7  33
ATOM     33  C11 non d ame     -32.857  10.307  26.756  0.00  0.00    -0.033 C 
ATOM     34  H12 non d ame     -32.119  10.896  27.303  0.00  0.00     0.042 H 
BRANCH  33  35
ATOM     35  C12 non d ame     -34.266  10.878  27.105  0.00  0.00    -0.071 C 
ATOM     36  H13 non d ame     -34.520  10.618  28.132  0.00  0.00     0.028 H 
ATOM     37  H14 non d ame     -34.255  11.962  26.997  0.00  0.00     0.028 H 
ATOM     38  H15 non d ame     -35.008  10.453  26.429  0.00  0.00     0.028 H 
ENDBRANCH  33  35
BRANCH  33  39
ATOM     39  C13 non d ame     -32.720   8.819  27.214  0.00  0.00    -0.071 C 
ATOM     40  H16 non d ame     -31.885   8.353  26.691  0.00  0.00     0.028 H 
ATOM     41  H17 non d ame     -32.541   8.783  28.289  0.00  0.00     0.028 H 
ATOM     42  H18 non d ame     -33.639   8.282  26.982  0.00  0.00     0.028 H 
ENDBRANCH  33  39
ENDBRANCH   7  33
ENDBRANCH   4   7
ENDBRANCH   1   3
BRANCH   1  43
ATOM     43  C15 non d ame     -31.395  15.164  25.410  0.00  0.00     0.240 C 
ATOM     44  O5  non d ame     -30.969  16.255  25.209  0.00  0.00    -0.271 OA
ATOM     45  N6  non d ame     -32.275  14.917  26.587  0.00  0.00    -0.355 N 
ATOM     46  H46 non d ame     -32.647  13.995  26.765  0.00  0.00     0.162 HD
BRANCH  45  47
ATOM     47  C20 non d ame     -32.606  16.031  27.503  0.00  0.00     0.013 C 
ATOM     48  H30 non d ame     -31.917  16.850  27.297  0.00  0.00     0.072 H 
BRANCH  47  49
ATOM     49  C21 non d ame     -32.444  15.567  28.933  0.00  0.00    -0.038 C 
ATOM     50  H31 non d ame     -31.377  15.645  29.149  0.00  0.00     0.036 H 
ATOM     51  H32 non d ame     -33.161  16.146  29.513  0.00  0.00     0.036 H 
BRANCH  49  52
ATOM     52  C22 non d ame     -32.820  14.082  29.128  0.00  0.00     0.018 C 
ATOM     53  H33 non d ame     -33.678  14.081  29.800  0.00  0.00     0.048 H 
ATOM     54  H34 non d ame     -32.914  13.668  28.123  0.00  0.00     0.048 H 
BRANCH  52  55
ATOM     55  C23 non d ame     -31.720  13.245  29.836  0.00  0.00     0.259 C 
ATOM     56  O7  non d ame     -30.573  13.404  29.567  0.00  0.00    -0.265 OA
BRANCH  55  57
ATOM     57  O8  non d ame     -32.098  12.271  30.802  0.00  0.00    -0.317 OA
BRANCH  57  58
ATOM     58  C29 non d ame     -32.413  10.991  30.245  0.00  0.00     0.052 C 
ATOM     59  H47 non d ame     -32.691  11.181  29.208  0.00  0.00     0.082 H 
ATOM     60  H48 non d ame     -31.560  10.352  30.472  0.00  0.00     0.082 H 
BRANCH  58  61
ATOM     61  C35 non d ame     -33.655  10.435  30.992  0.00  0.00    -0.034 A 
ATOM     62  C30 non d ame     -34.251  11.182  32.003  0.00  0.00    -0.075 A 
ATOM     63  C31 non d ame     -35.367  10.683  32.675  0.00  0.00    -0.082 A 
ATOM     64  H49 non d ame     -33.845  12.158  32.270  0.00  0.00     0.084 H 
ATOM     65  C32 non d ame     -35.884   9.431  32.333  0.00  0.00    -0.083 A 
ATOM     66  H50 non d ame     -35.832  11.272  33.466  0.00  0.00     0.083 H 
ATOM     67  C33 non d ame     -35.284   8.688  31.326  0.00  0.00    -0.082 A 
ATOM     68  H51 non d ame     -36.756   9.034  32.853  0.00  0.00     0.083 H 
ATOM     69  C34 non d ame     -34.170   9.184  30.651  0.00  0.00    -0.075 A 
ATOM     70  H52 non d ame     -35.688   7.710  31.063  0.00  0.00     0.083 H 
ATOM     71  H53 non d ame     -33.705   8.594  29.860  0.00  0.00     0.084 H 
ENDBRANCH  58  61
ENDBRANCH  57  58
ENDBRANCH  55  57
ENDBRANCH  52  55
ENDBRANCH  49  52
ENDBRANCH  47  49
BRANCH  47  72
ATOM     72  C24 non d ame     -34.047  16.479  27.272  0.00  0.00    -0.039 C 
ATOM     73  H35 non d ame     -34.410  15.871  26.442  0.00  0.00     0.036 H 
ATOM     74  H36 non d ame     -34.530  16.414  28.247  0.00  0.00     0.036 H 
BRANCH  72  75
ATOM     75  C25 non d ame     -34.124  18.010  26.807  0.00  0.00    -0.001 C 
ATOM     76  C26 non d ame     -32.620  18.673  26.813  0.00  0.00    -0.035 C 
ATOM     77  C27 non d ame     -32.655  19.829  27.518  0.00  0.00     0.085 C 
ATOM     78  H38 non d ame     -31.937  18.046  27.386  0.00  0.00     0.036 H 
ATOM     79  H39 non d ame     -32.350  18.996  25.807  0.00  0.00     0.036 H 
ATOM     80  N5  non d ame     -33.965  19.849  28.268  0.00  0.00    -0.049 N 
ATOM     81  H40 non d ame     -31.836  19.759  28.235  0.00  0.00     0.075 H 
ATOM     82  H41 non d ame     -32.660  20.625  26.773  0.00  0.00     0.075 H 
ATOM     83  C28 non d ame     -34.879  18.701  27.596  0.00  0.00     0.193 C 
ATOM     84  H42 non d ame     -33.755  19.579  29.218  0.00  0.00     0.280 HD
ATOM     85  H43 non d ame     -34.387  20.748  28.081  0.00  0.00     0.280 HD
ATOM     86  H44 non d ame     -35.688  18.964  26.916  0.00  0.00     0.129 H 
ATOM     87  H37 non d ame     -34.719  18.138  25.904  0.00  0.00     0.046 H 
BRANCH  83  88
ATOM     88  O6  non d ame     -35.480  17.893  28.611  0.00  0.00    -0.369 OA
ATOM     89  H45 non d ame     -36.385  17.689  28.363  0.00  0.00     0.212 HD
ENDBRANCH  83  88
ENDBRANCH  72  75
ENDBRANCH  47  72
ENDBRANCH  45  47
ENDBRANCH   1  43
BRANCH   1  90
ATOM     90  C16 non d ame     -31.126  14.497  23.001  0.00  0.00    -0.035 C 
ATOM     91  H21 non d ame     -31.895  13.885  22.531  0.00  0.00     0.037 H 
ATOM     92  H22 non d ame     -31.257  15.576  23.074  0.00  0.00     0.037 H 
BRANCH  90  93
ATOM     93  C17 non d ame     -29.818  14.266  22.179  0.00  0.00    -0.059 C 
ATOM     94  H23 non d ame     -29.996  14.623  21.165  0.00  0.00     0.038 H 
BRANCH  93  95
ATOM     95  C18 non d ame     -28.608  15.064  22.760  0.00  0.00    -0.073 C 
ATOM     96  H24 non d ame     -28.963  16.001  23.189  0.00  0.00     0.028 H 
ATOM     97  H25 non d ame     -28.121  14.473  23.536  0.00  0.00     0.028 H 
ATOM     98  H26 non d ame     -27.895  15.276  21.964  0.00  0.00     0.028 H 
ENDBRANCH  93  95
BRANCH  93  99
ATOM     99  C19 non d ame     -29.490  12.773  22.084  0.00  0.00    -0.073 C 
ATOM    100  H27 non d ame     -30.405  12.210  21.898  0.00  0.00     0.028 H 
ATOM    101  H28 non d ame     -28.790  12.606  21.265  0.00  0.00     0.028 H 
ATOM    102  H29 non d ame     -29.040  12.439  23.018  0.00  0.00     0.028 H 
ENDBRANCH  93  99
ENDBRANCH  90  93
ENDBRANCH   1  90
TORSDOF 26
ENDMDL
MODEL 11
REMARK VINA RESULT:      -6.7      2.413      6.558
REMARK  26 active torsions:
REMARK  status: ('A' for Active; 'I' for Inactive)
REMARK    1  A    between atoms: C2_2  and  C3_3 
REMARK    2  A    between atoms: C4_6  and  C5_7 
REMARK       I    between atoms: C5_7  and  N2_9 
REMARK    3  A    between atoms: N2_9  and  C6_10 
REMARK    4  A    between atoms: C6_10  and  C7_11 
REMARK    5  A    between atoms: C6_10  and  C8_13 
REMARK       I    between atoms: C7_11  and  N3_14 
REMARK    6  A    between atoms: N3_14  and  C9_15 
REMARK    7  A    between atoms: C9_15  and  C10_16 
REMARK    8  A    between atoms: C9_15  and  C11_18 
REMARK       I    between atoms: C10_16  and  N4_21 
REMARK    9  A    between atoms: C11_18  and  C12_19 
REMARK   10  A    between atoms: C11_18  and  C13_20 
REMARK   11  A    between atoms: N4_21  and  C14_22 
REMARK   12  A    between atoms: C14_22  and  C15_23 
REMARK   13  A    between atoms: C14_22  and  C16_25 
REMARK       I    between atoms: C15_23  and  N6_40 
REMARK   14  A    between atoms: C16_25  and  C17_26 
REMARK   15  A    between atoms: C17_26  and  C18_27 
REMARK   16  A    between atoms: C17_26  and  C19_28 
REMARK   17  A    between atoms: C20_29  and  C21_30 
REMARK   18  A    between atoms: C20_29  and  C24_33 
REMARK   19  A    between atoms: C20_29  and  N6_40 
REMARK   20  A    between atoms: C21_30  and  C22_31 
REMARK   21  A    between atoms: C22_31  and  C23_32 
REMARK   22  A    between atoms: C23_32  and  O8_43 
REMARK   23  A    between atoms: C24_33  and  C25_34 
REMARK   24  A    between atoms: C28_38  and  O6_39 
REMARK   25  A    between atoms: C29_42  and  O8_43 
REMARK   26  A    between atoms: C29_42  and  C35_49 
ROOT
ATOM      1  C14 non d ame     -32.341   9.520  24.323  0.00  0.00     0.089 C 
ATOM      2  H20 non d ame     -32.023   8.653  24.902  0.00  0.00     0.087 H 
ENDROOT
BRANCH   1   3
ATOM      3  N4  non d ame     -33.654   9.915  24.811  0.00  0.00    -0.346 N 
ATOM      4  C10 non d ame     -34.645   8.870  25.260  0.00  0.00     0.241 C 
ATOM      5  O4  non d ame     -34.365   7.719  25.215  0.00  0.00    -0.271 OA
ATOM      6  H19 non d ame     -33.873  10.900  24.839  0.00  0.00     0.163 HD
BRANCH   4   7
ATOM      7  C9  non d ame     -35.997   9.298  25.768  0.00  0.00     0.092 C 
ATOM      8  H11 non d ame     -36.643   8.423  25.849  0.00  0.00     0.088 H 
BRANCH   7   9
ATOM      9  N3  non d ame     -35.858   9.861  27.114  0.00  0.00    -0.346 N 
ATOM     10  C7  non d ame     -36.173   9.055  28.268  0.00  0.00     0.240 C 
ATOM     11  O3  non d ame     -36.541   7.952  28.131  0.00  0.00    -0.271 OA
ATOM     12  H10 non d ame     -35.544  10.811  27.247  0.00  0.00     0.163 HD
BRANCH  10  13
ATOM     13  C6  non d ame     -36.027   9.661  29.698  0.00  0.00     0.086 C 
ATOM     14  H6  non d ame     -35.754   8.916  30.446  0.00  0.00     0.086 H 
BRANCH  13  15
ATOM     15  N2  non d ame     -34.958  10.647  29.685  0.00  0.00    -0.343 N 
ATOM     16  C5  non d ame     -33.791  10.456  30.549  0.00  0.00     0.273 C 
ATOM     17  O2  non d ame     -33.722   9.509  31.252  0.00  0.00    -0.266 OA
ATOM     18  H5  non d ame     -35.028  11.455  29.084  0.00  0.00     0.163 HD
BRANCH  16  19
ATOM     19  C4  non d ame     -32.653  11.489  30.544  0.00  0.00     0.154 A 
ATOM     20  C1  non d ame     -32.667  12.787  29.942  0.00  0.00    -0.017 A 
ATOM     21  C2  non d ame     -31.392  13.330  30.219  0.00  0.00     0.077 A 
ATOM     22  H1  non d ame     -33.476  13.263  29.388  0.00  0.00     0.091 H 
ATOM     23  O1  non d ame     -30.733  12.440  30.903  0.00  0.00    -0.218 OA
ATOM     24  N1  non d ame     -31.448  11.358  31.104  0.00  0.00    -0.123 NA
BRANCH  21  25
ATOM     25  C3  non d ame     -30.885  14.702  29.797  0.00  0.00    -0.029 C 
ATOM     26  H2  non d ame     -31.396  15.472  30.375  0.00  0.00     0.036 H 
ATOM     27  H3  non d ame     -29.812  14.765  29.978  0.00  0.00     0.036 H 
ATOM     28  H4  non d ame     -31.084  14.853  28.737  0.00  0.00     0.036 H 
ENDBRANCH  21  25
ENDBRANCH  16  19
ENDBRANCH  13  15
BRANCH  13  29
ATOM     29  C8  non d ame     -37.325  10.312  30.107  0.00  0.00    -0.049 C 
ATOM     30  H7  non d ame     -37.571  11.106  29.403  0.00  0.00     0.030 H 
ATOM     31  H8  non d ame     -38.120   9.566  30.106  0.00  0.00     0.030 H 
ATOM     32  H9  non d ame     -37.221  10.732  31.108  0.00  0.00     0.030 H 
ENDBRANCH  13  29
ENDBRANCH  10  13
ENDBRANCH   7   9
BRANCH   7  33
ATOM     33  C11 non d ame     -36.591  10.376  24.816  0.00  0.00    -0.033 C 
ATOM     34  H12 non d ame     -35.762  10.981  24.447  0.00  0.00     0.042 H 
BRANCH  33  35
ATOM     35  C12 non d ame     -37.284   9.724  23.578  0.00  0.00    -0.071 C 
ATOM     36  H13 non d ame     -36.770   8.797  23.321  0.00  0.00     0.028 H 
ATOM     37  H14 non d ame     -38.325   9.509  23.817  0.00  0.00     0.028 H 
ATOM     38  H15 non d ame     -37.238  10.410  22.733  0.00  0.00     0.028 H 
ENDBRANCH  33  35
BRANCH  33  39
ATOM     39  C13 non d ame     -37.573  11.319  25.582  0.00  0.00    -0.071 C 
ATOM     40  H16 non d ame     -38.300  11.734  24.883  0.00  0.00     0.028 H 
ATOM     41  H17 non d ame     -38.094  10.752  26.354  0.00  0.00     0.028 H 
ATOM     42  H18 non d ame     -37.011  12.129  26.046  0.00  0.00     0.028 H 
ENDBRANCH  33  39
ENDBRANCH   7  33
ENDBRANCH   4   7
ENDBRANCH   1   3
BRANCH   1  43
ATOM     43  C15 non d ame     -31.369  10.724  24.485  0.00  0.00     0.240 C 
ATOM     44  O5  non d ame     -30.245  10.534  24.822  0.00  0.00    -0.271 OA
ATOM     45  N6  non d ame     -31.837  12.112  24.212  0.00  0.00    -0.355 N 
ATOM     46  H46 non d ame     -32.789  12.284  23.920  0.00  0.00     0.162 HD
BRANCH  45  47
ATOM     47  C20 non d ame     -30.901  13.246  24.369  0.00  0.00     0.013 C 
ATOM     48  H30 non d ame     -30.158  12.967  25.117  0.00  0.00     0.072 H 
BRANCH  47  49
ATOM     49  C21 non d ame     -31.666  14.466  24.832  0.00  0.00    -0.038 C 
ATOM     50  H31 non d ame     -30.988  15.309  24.693  0.00  0.00     0.036 H 
ATOM     51  H32 non d ame     -32.616  14.436  24.300  0.00  0.00     0.036 H 
BRANCH  49  52
ATOM     52  C22 non d ame     -32.007  14.424  26.337  0.00  0.00     0.018 C 
ATOM     53  H33 non d ame     -31.455  13.577  26.741  0.00  0.00     0.048 H 
ATOM     54  H34 non d ame     -31.811  15.430  26.711  0.00  0.00     0.048 H 
BRANCH  52  55
ATOM     55  C23 non d ame     -33.505  14.142  26.633  0.00  0.00     0.259 C 
ATOM     56  O7  non d ame     -34.063  13.232  26.109  0.00  0.00    -0.265 OA
BRANCH  55  57
ATOM     57  O8  non d ame     -34.211  14.992  27.529  0.00  0.00    -0.317 OA
BRANCH  57  58
ATOM     58  C29 non d ame     -34.960  16.025  26.881  0.00  0.00     0.052 C 
ATOM     59  H47 non d ame     -35.078  15.700  25.847  0.00  0.00     0.082 H 
ATOM     60  H48 non d ame     -35.838  16.190  27.505  0.00  0.00     0.082 H 
BRANCH  58  61
ATOM     61  C35 non d ame     -34.101  17.319  26.893  0.00  0.00    -0.034 A 
ATOM     62  C30 non d ame     -33.355  17.649  28.020  0.00  0.00    -0.075 A 
ATOM     63  C31 non d ame     -32.584  18.811  28.031  0.00  0.00    -0.082 A 
ATOM     64  H49 non d ame     -33.375  16.999  28.894  0.00  0.00     0.084 H 
ATOM     65  C32 non d ame     -32.563  19.645  26.910  0.00  0.00    -0.083 A 
ATOM     66  H50 non d ame     -32.000  19.066  28.915  0.00  0.00     0.083 H 
ATOM     67  C33 non d ame     -33.311  19.312  25.789  0.00  0.00    -0.082 A 
ATOM     68  H51 non d ame     -31.962  20.554  26.910  0.00  0.00     0.083 H 
ATOM     69  C34 non d ame     -34.081  18.151  25.773  0.00  0.00    -0.075 A 
ATOM     70  H52 non d ame     -33.294  19.966  24.916  0.00  0.00     0.083 H 
ATOM     71  H53 non d ame     -34.665  17.897  24.888  0.00  0.00     0.084 H 
ENDBRANCH  58  61
ENDBRANCH  57  58
ENDBRANCH  55  57
ENDBRANCH  52  55
ENDBRANCH  49  52
ENDBRANCH  47  49
BRANCH  47  72
ATOM     72  C24 non d ame     -30.222  13.546  23.034  0.00  0.00    -0.039 C 
ATOM     73  H35 non d ame     -29.188  13.221  23.156  0.00  0.00     0.036 H 
ATOM     74  H36 non d ame     -30.854  13.081  22.278  0.00  0.00     0.036 H 
BRANCH  72  75
ATOM     75  C25 non d ame     -30.192  15.117  22.724  0.00  0.00    -0.001 C 
ATOM     76  C26 non d ame     -31.227  15.464  21.495  0.00  0.00    -0.035 C 
ATOM     77  C27 non d ame     -30.567  16.187  20.558  0.00  0.00     0.085 C 
ATOM     78  H38 non d ame     -31.501  14.551  20.966  0.00  0.00     0.036 H 
ATOM     79  H39 non d ame     -32.004  16.146  21.841  0.00  0.00     0.036 H 
ATOM     80  N5  non d ame     -29.095  16.084  20.879  0.00  0.00    -0.049 N 
ATOM     81  H40 non d ame     -30.760  15.682  19.611  0.00  0.00     0.075 H 
ATOM     82  H41 non d ame     -30.891  17.217  20.703  0.00  0.00     0.075 H 
ATOM     83  C28 non d ame     -29.008  15.504  22.383  0.00  0.00     0.193 C 
ATOM     84  H42 non d ame     -28.711  15.397  20.246  0.00  0.00     0.280 HD
ATOM     85  H43 non d ame     -28.736  17.028  20.877  0.00  0.00     0.280 HD
ATOM     86  H44 non d ame     -28.767  16.161  23.217  0.00  0.00     0.129 H 
ATOM     87  H37 non d ame     -30.277  15.719  23.628  0.00  0.00     0.046 H 
BRANCH  83  88
ATOM     88  O6  non d ame     -28.054  14.441  22.447  0.00  0.00    -0.369 OA
ATOM     89  H45 non d ame     -27.200  14.759  22.149  0.00  0.00     0.212 HD
ENDBRANCH  83  88
ENDBRANCH  72  75
ENDBRANCH  47  72
ENDBRANCH  45  47
ENDBRANCH   1  43
BRANCH   1  90
ATOM     90  C16 non d ame     -32.450   9.146  22.853  0.00  0.00    -0.035 C 
ATOM     91  H21 non d ame     -33.458   8.752  22.729  0.00  0.00     0.037 H 
ATOM     92  H22 non d ame     -32.143  10.037  22.305  0.00  0.00     0.037 H 
BRANCH  90  93
ATOM     93  C17 non d ame     -31.475   8.005  22.422  0.00  0.00    -0.059 C 
ATOM     94  H23 non d ame     -31.929   7.481  21.582  0.00  0.00     0.038 H 
BRANCH  93  95
ATOM     95  C18 non d ame     -30.093   8.558  21.949  0.00  0.00    -0.073 C 
ATOM     96  H24 non d ame     -29.713   7.939  21.136  0.00  0.00     0.028 H 
ATOM     97  H25 non d ame     -30.212   9.583  21.599  0.00  0.00     0.028 H 
ATOM     98  H26 non d ame     -29.389   8.538  22.780  0.00  0.00     0.028 H 
ENDBRANCH  93  95
BRANCH  93  99
ATOM     99  C19 non d ame     -31.296   6.985  23.550  0.00  0.00    -0.073 C 
ATOM    100  H27 non d ame     -32.038   7.169  24.328  0.00  0.00     0.028 H 
ATOM    101  H28 non d ame     -31.428   5.978  23.154  0.00  0.00     0.028 H 
ATOM    102  H29 non d ame     -30.295   7.080  23.971  0.00  0.00     0.028 H 
ENDBRANCH  93  99
ENDBRANCH  90  93
ENDBRANCH   1  90
TORSDOF 26
ENDMDL
MODEL 12
REMARK VINA RESULT:      -6.5      1.993      8.384
REMARK  26 active torsions:
REMARK  status: ('A' for Active; 'I' for Inactive)
REMARK    1  A    between atoms: C2_2  and  C3_3 
REMARK    2  A    between atoms: C4_6  and  C5_7 
REMARK       I    between atoms: C5_7  and  N2_9 
REMARK    3  A    between atoms: N2_9  and  C6_10 
REMARK    4  A    between atoms: C6_10  and  C7_11 
REMARK    5  A    between atoms: C6_10  and  C8_13 
REMARK       I    between atoms: C7_11  and  N3_14 
REMARK    6  A    between atoms: N3_14  and  C9_15 
REMARK    7  A    between atoms: C9_15  and  C10_16 
REMARK    8  A    between atoms: C9_15  and  C11_18 
REMARK       I    between atoms: C10_16  and  N4_21 
REMARK    9  A    between atoms: C11_18  and  C12_19 
REMARK   10  A    between atoms: C11_18  and  C13_20 
REMARK   11  A    between atoms: N4_21  and  C14_22 
REMARK   12  A    between atoms: C14_22  and  C15_23 
REMARK   13  A    between atoms: C14_22  and  C16_25 
REMARK       I    between atoms: C15_23  and  N6_40 
REMARK   14  A    between atoms: C16_25  and  C17_26 
REMARK   15  A    between atoms: C17_26  and  C18_27 
REMARK   16  A    between atoms: C17_26  and  C19_28 
REMARK   17  A    between atoms: C20_29  and  C21_30 
REMARK   18  A    between atoms: C20_29  and  C24_33 
REMARK   19  A    between atoms: C20_29  and  N6_40 
REMARK   20  A    between atoms: C21_30  and  C22_31 
REMARK   21  A    between atoms: C22_31  and  C23_32 
REMARK   22  A    between atoms: C23_32  and  O8_43 
REMARK   23  A    between atoms: C24_33  and  C25_34 
REMARK   24  A    between atoms: C28_38  and  O6_39 
REMARK   25  A    between atoms: C29_42  and  O8_43 
REMARK   26  A    between atoms: C29_42  and  C35_49 
ROOT
ATOM      1  C14 non d ame     -35.383   9.963  25.041  0.00  0.00     0.089 C 
ATOM      2  H20 non d ame     -35.924   9.724  25.958  0.00  0.00     0.087 H 
ENDROOT
BRANCH   1   3
ATOM      3  N4  non d ame     -35.847  11.265  24.586  0.00  0.00    -0.346 N 
ATOM      4  C10 non d ame     -37.024  11.931  25.255  0.00  0.00     0.241 C 
ATOM      5  O4  non d ame     -37.584  11.398  26.154  0.00  0.00    -0.271 OA
ATOM      6  H19 non d ame     -35.358  11.701  23.817  0.00  0.00     0.163 HD
BRANCH   4   7
ATOM      7  C9  non d ame     -37.486  13.282  24.774  0.00  0.00     0.092 C 
ATOM      8  H11 non d ame     -38.426  13.535  25.265  0.00  0.00     0.088 H 
BRANCH   7   9
ATOM      9  N3  non d ame     -36.507  14.300  25.162  0.00  0.00    -0.346 N 
ATOM     10  C7  non d ame     -36.798  15.204  26.248  0.00  0.00     0.240 C 
ATOM     11  O3  non d ame     -37.816  15.125  26.820  0.00  0.00    -0.271 OA
ATOM     12  H10 non d ame     -35.625  14.382  24.677  0.00  0.00     0.163 HD
BRANCH  10  13
ATOM     13  C6  non d ame     -35.753  16.289  26.655  0.00  0.00     0.086 C 
ATOM     14  H6  non d ame     -36.164  17.038  27.331  0.00  0.00     0.086 H 
BRANCH  13  15
ATOM     15  N2  non d ame     -34.658  15.646  27.364  0.00  0.00    -0.343 N 
ATOM     16  C5  non d ame     -33.810  16.441  28.255  0.00  0.00     0.273 C 
ATOM     17  O2  non d ame     -34.015  17.597  28.393  0.00  0.00    -0.266 OA
ATOM     18  H5  non d ame     -34.488  14.658  27.237  0.00  0.00     0.163 HD
BRANCH  16  19
ATOM     19  C4  non d ame     -32.651  15.774  29.012  0.00  0.00     0.154 A 
ATOM     20  C1  non d ame     -32.340  14.379  29.061  0.00  0.00    -0.017 A 
ATOM     21  C2  non d ame     -31.193  14.290  29.882  0.00  0.00     0.077 A 
ATOM     22  H1  non d ame     -32.866  13.556  28.578  0.00  0.00     0.091 H 
ATOM     23  O1  non d ame     -30.888  15.500  30.252  0.00  0.00    -0.218 OA
ATOM     24  N1  non d ame     -31.725  16.383  29.757  0.00  0.00    -0.123 NA
BRANCH  21  25
ATOM     25  C3  non d ame     -30.452  13.015  30.260  0.00  0.00    -0.029 C 
ATOM     26  H2  non d ame     -30.000  12.579  29.369  0.00  0.00     0.036 H 
ATOM     27  H3  non d ame     -29.671  13.250  30.984  0.00  0.00     0.036 H 
ATOM     28  H4  non d ame     -31.151  12.304  30.699  0.00  0.00     0.036 H 
ENDBRANCH  21  25
ENDBRANCH  16  19
ENDBRANCH  13  15
BRANCH  13  29
ATOM     29  C8  non d ame     -35.233  16.978  25.419  0.00  0.00    -0.049 C 
ATOM     30  H7  non d ame     -35.560  16.433  24.534  0.00  0.00     0.030 H 
ATOM     31  H8  non d ame     -35.620  17.997  25.382  0.00  0.00     0.030 H 
ATOM     32  H9  non d ame     -34.143  17.004  25.448  0.00  0.00     0.030 H 
ENDBRANCH  13  29
ENDBRANCH  10  13
ENDBRANCH   7   9
BRANCH   7  33
ATOM     33  C11 non d ame     -37.623  13.261  23.224  0.00  0.00    -0.033 C 
ATOM     34  H12 non d ame     -36.688  12.876  22.817  0.00  0.00     0.042 H 
BRANCH  33  35
ATOM     35  C12 non d ame     -38.765  12.301  22.766  0.00  0.00    -0.071 C 
ATOM     36  H13 non d ame     -38.334  11.449  22.239  0.00  0.00     0.028 H 
ATOM     37  H14 non d ame     -39.314  11.948  23.638  0.00  0.00     0.028 H 
ATOM     38  H15 non d ame     -39.443  12.834  22.100  0.00  0.00     0.028 H 
ENDBRANCH  33  35
BRANCH  33  39
ATOM     39  C13 non d ame     -37.837  14.703  22.662  0.00  0.00    -0.071 C 
ATOM     40  H16 non d ame     -38.214  15.350  23.454  0.00  0.00     0.028 H 
ATOM     41  H17 non d ame     -36.888  15.095  22.294  0.00  0.00     0.028 H 
ATOM     42  H18 non d ame     -38.557  14.672  21.845  0.00  0.00     0.028 H 
ENDBRANCH  33  39
ENDBRANCH   7  33
ENDBRANCH   4   7
ENDBRANCH   1   3
BRANCH   1  43
ATOM     43  C15 non d ame     -33.847  10.035  25.267  0.00  0.00     0.240 C 
ATOM     44  O5  non d ame     -33.390   9.736  26.322  0.00  0.00    -0.271 OA
ATOM     45  N6  non d ame     -32.942  10.468  24.164  0.00  0.00    -0.355 N 
ATOM     46  H46 non d ame     -33.319  10.720  23.261  0.00  0.00     0.162 HD
BRANCH  45  47
ATOM     47  C20 non d ame     -31.482  10.530  24.394  0.00  0.00     0.013 C 
ATOM     48  H30 non d ame     -31.276  10.074  25.362  0.00  0.00     0.072 H 
BRANCH  47  49
ATOM     49  C21 non d ame     -31.038  11.976  24.399  0.00  0.00    -0.038 C 
ATOM     50  H31 non d ame     -29.948  11.949  24.348  0.00  0.00     0.036 H 
ATOM     51  H32 non d ame     -31.608  12.461  23.607  0.00  0.00     0.036 H 
BRANCH  49  52
ATOM     52  C22 non d ame     -31.396  12.709  25.709  0.00  0.00     0.018 C 
ATOM     53  H33 non d ame     -31.645  11.927  26.426  0.00  0.00     0.048 H 
ATOM     54  H34 non d ame     -30.562  13.383  25.907  0.00  0.00     0.048 H 
BRANCH  52  55
ATOM     55  C23 non d ame     -32.658  13.608  25.599  0.00  0.00     0.259 C 
ATOM     56  O7  non d ame     -33.717  13.208  25.959  0.00  0.00    -0.265 OA
BRANCH  55  57
ATOM     57  O8  non d ame     -32.537  14.915  25.049  0.00  0.00    -0.317 OA
BRANCH  57  58
ATOM     58  C29 non d ame     -31.217  15.461  25.134  0.00  0.00     0.052 C 
ATOM     59  H47 non d ame     -31.340  16.467  25.533  0.00  0.00     0.082 H 
ATOM     60  H48 non d ame     -30.627  14.725  25.680  0.00  0.00     0.082 H 
BRANCH  58  61
ATOM     61  C35 non d ame     -30.651  15.572  23.693  0.00  0.00    -0.034 A 
ATOM     62  C30 non d ame     -29.362  15.127  23.415  0.00  0.00    -0.075 A 
ATOM     63  C31 non d ame     -28.853  15.227  22.121  0.00  0.00    -0.082 A 
ATOM     64  H49 non d ame     -28.750  14.702  24.211  0.00  0.00     0.084 H 
ATOM     65  C32 non d ame     -29.637  15.776  21.103  0.00  0.00    -0.083 A 
ATOM     66  H50 non d ame     -27.842  14.877  21.906  0.00  0.00     0.083 H 
ATOM     67  C33 non d ame     -30.921  16.221  21.385  0.00  0.00    -0.082 A 
ATOM     68  H51 non d ame     -29.246  15.856  20.088  0.00  0.00     0.083 H 
ATOM     69  C34 non d ame     -31.434  16.122  22.677  0.00  0.00    -0.075 A 
ATOM     70  H52 non d ame     -31.530  16.651  20.589  0.00  0.00     0.083 H 
ATOM     71  H53 non d ame     -32.445  16.472  22.890  0.00  0.00     0.084 H 
ENDBRANCH  58  61
ENDBRANCH  57  58
ENDBRANCH  55  57
ENDBRANCH  52  55
ENDBRANCH  49  52
ENDBRANCH  47  49
BRANCH  47  72
ATOM     72  C24 non d ame     -30.752   9.776  23.285  0.00  0.00    -0.039 C 
ATOM     73  H35 non d ame     -30.607  10.504  22.486  0.00  0.00     0.036 H 
ATOM     74  H36 non d ame     -29.889   9.316  23.767  0.00  0.00     0.036 H 
BRANCH  72  75
ATOM     75  C25 non d ame     -31.647   8.589  22.687  0.00  0.00    -0.001 C 
ATOM     76  C26 non d ame     -31.809   7.394  23.803  0.00  0.00    -0.035 C 
ATOM     77  C27 non d ame     -31.476   6.213  23.230  0.00  0.00     0.085 C 
ATOM     78  H38 non d ame     -31.066   7.514  24.591  0.00  0.00     0.036 H 
ATOM     79  H39 non d ame     -32.861   7.263  24.061  0.00  0.00     0.036 H 
ATOM     80  N5  non d ame     -30.788   6.534  21.925  0.00  0.00    -0.049 N 
ATOM     81  H40 non d ame     -30.755   5.753  23.908  0.00  0.00     0.075 H 
ATOM     82  H41 non d ame     -32.421   5.713  23.019  0.00  0.00     0.075 H 
ATOM     83  C28 non d ame     -31.109   8.087  21.625  0.00  0.00     0.193 C 
ATOM     84  H42 non d ame     -29.796   6.437  22.092  0.00  0.00     0.280 HD
ATOM     85  H43 non d ame     -31.238   5.970  21.218  0.00  0.00     0.280 HD
ATOM     86  H44 non d ame     -31.851   8.365  20.877  0.00  0.00     0.129 H 
ATOM     87  H37 non d ame     -32.559   8.956  22.216  0.00  0.00     0.046 H 
BRANCH  83  88
ATOM     88  O6  non d ame     -29.913   8.775  21.250  0.00  0.00    -0.369 OA
ATOM     89  H45 non d ame     -30.141   9.599  20.815  0.00  0.00     0.212 HD
ENDBRANCH  83  88
ENDBRANCH  72  75
ENDBRANCH  47  72
ENDBRANCH  45  47
ENDBRANCH   1  43
BRANCH   1  90
ATOM     90  C16 non d ame     -35.695   8.925  23.975  0.00  0.00    -0.035 C 
ATOM     91  H21 non d ame     -35.951   9.496  23.082  0.00  0.00     0.037 H 
ATOM     92  H22 non d ame     -34.837   8.254  23.965  0.00  0.00     0.037 H 
BRANCH  90  93
ATOM     93  C17 non d ame     -36.942   8.043  24.304  0.00  0.00    -0.059 C 
ATOM     94  H23 non d ame     -37.009   7.956  25.388  0.00  0.00     0.038 H 
BRANCH  93  95
ATOM     95  C18 non d ame     -38.270   8.686  23.793  0.00  0.00    -0.073 C 
ATOM     96  H24 non d ame     -38.042   9.446  23.046  0.00  0.00     0.028 H 
ATOM     97  H25 non d ame     -38.898   7.915  23.345  0.00  0.00     0.028 H 
ATOM     98  H26 non d ame     -38.798   9.144  24.629  0.00  0.00     0.028 H 
ENDBRANCH  93  95
BRANCH  93  99
ATOM     99  C19 non d ame     -36.772   6.628  23.744  0.00  0.00    -0.073 C 
ATOM    100  H27 non d ame     -36.470   5.953  24.546  0.00  0.00     0.028 H 
ATOM    101  H28 non d ame     -37.718   6.287  23.322  0.00  0.00     0.028 H 
ATOM    102  H29 non d ame     -36.009   6.633  22.966  0.00  0.00     0.028 H 
ENDBRANCH  93  99
ENDBRANCH  90  93
ENDBRANCH   1  90
TORSDOF 26
ENDMDL
MODEL 13
REMARK VINA RESULT:      -6.5      3.561      7.124
REMARK  26 active torsions:
REMARK  status: ('A' for Active; 'I' for Inactive)
REMARK    1  A    between atoms: C2_2  and  C3_3 
REMARK    2  A    between atoms: C4_6  and  C5_7 
REMARK       I    between atoms: C5_7  and  N2_9 
REMARK    3  A    between atoms: N2_9  and  C6_10 
REMARK    4  A    between atoms: C6_10  and  C7_11 
REMARK    5  A    between atoms: C6_10  and  C8_13 
REMARK       I    between atoms: C7_11  and  N3_14 
REMARK    6  A    between atoms: N3_14  and  C9_15 
REMARK    7  A    between atoms: C9_15  and  C10_16 
REMARK    8  A    between atoms: C9_15  and  C11_18 
REMARK       I    between atoms: C10_16  and  N4_21 
REMARK    9  A    between atoms: C11_18  and  C12_19 
REMARK   10  A    between atoms: C11_18  and  C13_20 
REMARK   11  A    between atoms: N4_21  and  C14_22 
REMARK   12  A    between atoms: C14_22  and  C15_23 
REMARK   13  A    between atoms: C14_22  and  C16_25 
REMARK       I    between atoms: C15_23  and  N6_40 
REMARK   14  A    between atoms: C16_25  and  C17_26 
REMARK   15  A    between atoms: C17_26  and  C18_27 
REMARK   16  A    between atoms: C17_26  and  C19_28 
REMARK   17  A    between atoms: C20_29  and  C21_30 
REMARK   18  A    between atoms: C20_29  and  C24_33 
REMARK   19  A    between atoms: C20_29  and  N6_40 
REMARK   20  A    between atoms: C21_30  and  C22_31 
REMARK   21  A    between atoms: C22_31  and  C23_32 
REMARK   22  A    between atoms: C23_32  and  O8_43 
REMARK   23  A    between atoms: C24_33  and  C25_34 
REMARK   24  A    between atoms: C28_38  and  O6_39 
REMARK   25  A    between atoms: C29_42  and  O8_43 
REMARK   26  A    between atoms: C29_42  and  C35_49 
ROOT
ATOM      1  C14 non d ame     -31.377   7.687  23.694  0.00  0.00     0.089 C 
ATOM      2  H20 non d ame     -30.450   7.485  24.231  0.00  0.00     0.087 H 
ENDROOT
BRANCH   1   3
ATOM      3  N4  non d ame     -32.281   6.574  23.949  0.00  0.00    -0.346 N 
ATOM      4  C10 non d ame     -32.383   5.977  25.330  0.00  0.00     0.241 C 
ATOM      5  O4  non d ame     -31.726   6.405  26.220  0.00  0.00    -0.271 OA
ATOM      6  H19 non d ame     -32.830   6.223  23.177  0.00  0.00     0.163 HD
BRANCH   4   7
ATOM      7  C9  non d ame     -33.328   4.830  25.576  0.00  0.00     0.092 C 
ATOM      8  H11 non d ame     -32.772   3.989  25.991  0.00  0.00     0.088 H 
BRANCH   7   9
ATOM      9  N3  non d ame     -34.327   5.224  26.573  0.00  0.00    -0.346 N 
ATOM     10  C7  non d ame     -34.263   4.685  27.909  0.00  0.00     0.240 C 
ATOM     11  O3  non d ame     -33.416   3.931  28.198  0.00  0.00    -0.271 OA
ATOM     12  H10 non d ame     -35.065   5.872  26.338  0.00  0.00     0.163 HD
BRANCH  10  13
ATOM     13  C6  non d ame     -35.332   5.106  28.966  0.00  0.00     0.086 C 
ATOM     14  H6  non d ame     -35.293   4.497  29.870  0.00  0.00     0.086 H 
BRANCH  13  15
ATOM     15  N2  non d ame     -35.074   6.476  29.376  0.00  0.00    -0.343 N 
ATOM     16  C5  non d ame     -34.989   6.798  30.803  0.00  0.00     0.273 C 
ATOM     17  O2  non d ame     -35.132   5.949  31.611  0.00  0.00    -0.266 OA
ATOM     18  H5  non d ame     -34.957   7.196  28.678  0.00  0.00     0.163 HD
BRANCH  16  19
ATOM     19  C4  non d ame     -34.716   8.242  31.250  0.00  0.00     0.154 A 
ATOM     20  C1  non d ame     -34.029   9.260  30.515  0.00  0.00    -0.017 A 
ATOM     21  C2  non d ame     -34.046  10.393  31.360  0.00  0.00     0.077 A 
ATOM     22  H1  non d ame     -33.584   9.188  29.523  0.00  0.00     0.091 H 
ATOM     23  O1  non d ame     -34.675  10.055  32.448  0.00  0.00    -0.218 OA
ATOM     24  N1  non d ame     -35.074   8.805  32.407  0.00  0.00    -0.123 NA
BRANCH  21  25
ATOM     25  C3  non d ame     -33.443  11.757  31.051  0.00  0.00    -0.029 C 
ATOM     26  H2  non d ame     -33.482  11.937  29.977  0.00  0.00     0.036 H 
ATOM     27  H3  non d ame     -34.010  12.530  31.569  0.00  0.00     0.036 H 
ATOM     28  H4  non d ame     -32.407  11.780  31.385  0.00  0.00     0.036 H 
ENDBRANCH  21  25
ENDBRANCH  16  19
ENDBRANCH  13  15
BRANCH  13  29
ATOM     29  C8  non d ame     -36.709   4.998  28.363  0.00  0.00    -0.049 C 
ATOM     30  H7  non d ame     -37.285   4.248  28.904  0.00  0.00     0.030 H 
ATOM     31  H8  non d ame     -37.213   5.962  28.433  0.00  0.00     0.030 H 
ATOM     32  H9  non d ame     -36.626   4.707  27.316  0.00  0.00     0.030 H 
ENDBRANCH  13  29
ENDBRANCH  10  13
ENDBRANCH   7   9
BRANCH   7  33
ATOM     33  C11 non d ame     -34.046   4.455  24.246  0.00  0.00    -0.033 C 
ATOM     34  H12 non d ame     -33.695   5.145  23.478  0.00  0.00     0.042 H 
BRANCH  33  35
ATOM     35  C12 non d ame     -33.674   3.011  23.786  0.00  0.00    -0.071 C 
ATOM     36  H13 non d ame     -32.940   3.065  22.981  0.00  0.00     0.028 H 
ATOM     37  H14 non d ame     -33.252   2.460  24.626  0.00  0.00     0.028 H 
ATOM     38  H15 non d ame     -34.568   2.502  23.428  0.00  0.00     0.028 H 
ENDBRANCH  33  35
BRANCH  33  39
ATOM     39  C13 non d ame     -35.593   4.627  24.378  0.00  0.00    -0.071 C 
ATOM     40  H16 non d ame     -36.024   4.807  23.393  0.00  0.00     0.028 H 
ATOM     41  H17 non d ame     -36.025   3.720  24.804  0.00  0.00     0.028 H 
ATOM     42  H18 non d ame     -35.811   5.472  25.031  0.00  0.00     0.028 H 
ENDBRANCH  33  39
ENDBRANCH   7  33
ENDBRANCH   4   7
ENDBRANCH   1   3
BRANCH   1  43
ATOM     43  C15 non d ame     -32.060   8.999  24.173  0.00  0.00     0.240 C 
ATOM     44  O5  non d ame     -32.868   9.531  23.483  0.00  0.00    -0.271 OA
ATOM     45  N6  non d ame     -31.714   9.588  25.498  0.00  0.00    -0.355 N 
ATOM     46  H46 non d ame     -31.033   9.142  26.096  0.00  0.00     0.162 HD
BRANCH  45  47
ATOM     47  C20 non d ame     -32.374  10.836  25.941  0.00  0.00     0.013 C 
ATOM     48  H30 non d ame     -32.954  11.224  25.103  0.00  0.00     0.072 H 
BRANCH  47  49
ATOM     49  C21 non d ame     -31.320  11.841  26.349  0.00  0.00    -0.038 C 
ATOM     50  H31 non d ame     -30.514  11.257  26.796  0.00  0.00     0.036 H 
ATOM     51  H32 non d ame     -31.129  12.443  25.461  0.00  0.00     0.036 H 
BRANCH  49  52
ATOM     52  C22 non d ame     -31.811  12.815  27.441  0.00  0.00     0.018 C 
ATOM     53  H33 non d ame     -32.817  12.489  27.697  0.00  0.00     0.048 H 
ATOM     54  H34 non d ame     -31.030  12.822  28.202  0.00  0.00     0.048 H 
BRANCH  52  55
ATOM     55  C23 non d ame     -31.948  14.284  26.954  0.00  0.00     0.259 C 
ATOM     56  O7  non d ame     -31.820  15.187  27.717  0.00  0.00    -0.265 OA
BRANCH  55  57
ATOM     57  O8  non d ame     -32.242  14.541  25.586  0.00  0.00    -0.317 OA
BRANCH  57  58
ATOM     58  C29 non d ame     -31.567  15.684  25.051  0.00  0.00     0.052 C 
ATOM     59  H47 non d ame     -32.337  16.440  24.906  0.00  0.00     0.082 H 
ATOM     60  H48 non d ame     -30.732  15.876  25.725  0.00  0.00     0.082 H 
BRANCH  58  61
ATOM     61  C35 non d ame     -30.994  15.294  23.661  0.00  0.00    -0.034 A 
ATOM     62  C30 non d ame     -31.199  16.127  22.566  0.00  0.00    -0.075 A 
ATOM     63  C31 non d ame     -30.686  15.777  21.317  0.00  0.00    -0.082 A 
ATOM     64  H49 non d ame     -31.762  17.053  22.684  0.00  0.00     0.084 H 
ATOM     65  C32 non d ame     -29.967  14.588  21.166  0.00  0.00    -0.083 A 
ATOM     66  H50 non d ame     -30.847  16.433  20.461  0.00  0.00     0.083 H 
ATOM     67  C33 non d ame     -29.768  13.759  22.262  0.00  0.00    -0.082 A 
ATOM     68  H51 non d ame     -29.562  14.309  20.194  0.00  0.00     0.083 H 
ATOM     69  C34 non d ame     -30.278  14.106  23.511  0.00  0.00    -0.075 A 
ATOM     70  H52 non d ame     -29.209  12.831  22.141  0.00  0.00     0.083 H 
ATOM     71  H53 non d ame     -30.116  13.450  24.367  0.00  0.00     0.084 H 
ENDBRANCH  58  61
ENDBRANCH  57  58
ENDBRANCH  55  57
ENDBRANCH  52  55
ENDBRANCH  49  52
ENDBRANCH  47  49
BRANCH  47  72
ATOM     72  C24 non d ame     -33.288  10.545  27.129  0.00  0.00    -0.039 C 
ATOM     73  H35 non d ame     -32.963   9.577  27.513  0.00  0.00     0.036 H 
ATOM     74  H36 non d ame     -33.231  11.429  27.763  0.00  0.00     0.036 H 
BRANCH  72  75
ATOM     75  C25 non d ame     -34.816  10.385  26.676  0.00  0.00    -0.001 C 
ATOM     76  C26 non d ame     -35.787  11.274  27.661  0.00  0.00    -0.035 C 
ATOM     77  C27 non d ame     -36.786  10.483  28.119  0.00  0.00     0.085 C 
ATOM     78  H38 non d ame     -35.247  11.553  28.566  0.00  0.00     0.036 H 
ATOM     79  H39 non d ame     -36.310  12.035  27.082  0.00  0.00     0.036 H 
ATOM     80  N5  non d ame     -36.401   9.058  27.802  0.00  0.00    -0.049 N 
ATOM     81  H40 non d ame     -36.791  10.616  29.202  0.00  0.00     0.075 H 
ATOM     82  H41 non d ame     -37.664  10.753  27.533  0.00  0.00     0.075 H 
ATOM     83  C28 non d ame     -35.195   9.151  26.733  0.00  0.00     0.193 C 
ATOM     84  H42 non d ame     -36.043   8.660  28.658  0.00  0.00     0.280 HD
ATOM     85  H43 non d ame     -37.202   8.641  27.347  0.00  0.00     0.280 HD
ATOM     86  H44 non d ame     -35.372   8.950  25.678  0.00  0.00     0.129 H 
ATOM     87  H37 non d ame     -34.945  10.517  25.602  0.00  0.00     0.046 H 
BRANCH  83  88
ATOM     88  O6  non d ame     -34.130   8.278  27.115  0.00  0.00    -0.369 OA
ATOM     89  H45 non d ame     -34.272   7.411  26.728  0.00  0.00     0.212 HD
ENDBRANCH  83  88
ENDBRANCH  72  75
ENDBRANCH  47  72
ENDBRANCH  45  47
ENDBRANCH   1  43
BRANCH   1  90
ATOM     90  C16 non d ame     -31.101   7.769  22.202  0.00  0.00    -0.035 C 
ATOM     91  H21 non d ame     -31.121   6.739  21.847  0.00  0.00     0.037 H 
ATOM     92  H22 non d ame     -31.818   8.493  21.815  0.00  0.00     0.037 H 
BRANCH  90  93
ATOM     93  C17 non d ame     -29.683   8.325  21.856  0.00  0.00    -0.059 C 
ATOM     94  H23 non d ame     -29.511   8.157  20.794  0.00  0.00     0.038 H 
BRANCH  93  95
ATOM     95  C18 non d ame     -29.571   9.861  22.121  0.00  0.00    -0.073 C 
ATOM     96  H24 non d ame     -29.339  10.375  21.189  0.00  0.00     0.028 H 
ATOM     97  H25 non d ame     -30.519  10.232  22.512  0.00  0.00     0.028 H 
ATOM     98  H26 non d ame     -28.781  10.048  22.847  0.00  0.00     0.028 H 
ENDBRANCH  93  95
BRANCH  93  99
ATOM     99  C19 non d ame     -28.596   7.562  22.618  0.00  0.00    -0.073 C 
ATOM    100  H27 non d ame     -27.814   8.255  22.929  0.00  0.00     0.028 H 
ATOM    101  H28 non d ame     -29.032   7.090  23.499  0.00  0.00     0.028 H 
ATOM    102  H29 non d ame     -28.168   6.797  21.971  0.00  0.00     0.028 H 
ENDBRANCH  93  99
ENDBRANCH  90  93
ENDBRANCH   1  90
TORSDOF 26
ENDMDL
MODEL 14
REMARK VINA RESULT:      -6.5      2.298      5.312
REMARK  26 active torsions:
REMARK  status: ('A' for Active; 'I' for Inactive)
REMARK    1  A    between atoms: C2_2  and  C3_3 
REMARK    2  A    between atoms: C4_6  and  C5_7 
REMARK       I    between atoms: C5_7  and  N2_9 
REMARK    3  A    between atoms: N2_9  and  C6_10 
REMARK    4  A    between atoms: C6_10  and  C7_11 
REMARK    5  A    between atoms: C6_10  and  C8_13 
REMARK       I    between atoms: C7_11  and  N3_14 
REMARK    6  A    between atoms: N3_14  and  C9_15 
REMARK    7  A    between atoms: C9_15  and  C10_16 
REMARK    8  A    between atoms: C9_15  and  C11_18 
REMARK       I    between atoms: C10_16  and  N4_21 
REMARK    9  A    between atoms: C11_18  and  C12_19 
REMARK   10  A    between atoms: C11_18  and  C13_20 
REMARK   11  A    between atoms: N4_21  and  C14_22 
REMARK   12  A    between atoms: C14_22  and  C15_23 
REMARK   13  A    between atoms: C14_22  and  C16_25 
REMARK       I    between atoms: C15_23  and  N6_40 
REMARK   14  A    between atoms: C16_25  and  C17_26 
REMARK   15  A    between atoms: C17_26  and  C18_27 
REMARK   16  A    between atoms: C17_26  and  C19_28 
REMARK   17  A    between atoms: C20_29  and  C21_30 
REMARK   18  A    between atoms: C20_29  and  C24_33 
REMARK   19  A    between atoms: C20_29  and  N6_40 
REMARK   20  A    between atoms: C21_30  and  C22_31 
REMARK   21  A    between atoms: C22_31  and  C23_32 
REMARK   22  A    between atoms: C23_32  and  O8_43 
REMARK   23  A    between atoms: C24_33  and  C25_34 
REMARK   24  A    between atoms: C28_38  and  O6_39 
REMARK   25  A    between atoms: C29_42  and  O8_43 
REMARK   26  A    between atoms: C29_42  and  C35_49 
ROOT
ATOM      1  C14 non d ame     -31.023  13.772  24.785  0.00  0.00     0.089 C 
ATOM      2  H20 non d ame     -30.146  13.512  25.379  0.00  0.00     0.087 H 
ENDROOT
BRANCH   1   3
ATOM      3  N4  non d ame     -31.506  12.551  24.160  0.00  0.00    -0.346 N 
ATOM      4  C10 non d ame     -31.341  11.222  24.854  0.00  0.00     0.241 C 
ATOM      5  O4  non d ame     -30.811  11.160  25.914  0.00  0.00    -0.271 OA
ATOM      6  H19 non d ame     -31.952  12.624  23.256  0.00  0.00     0.163 HD
BRANCH   4   7
ATOM      7  C9  non d ame     -31.853   9.969  24.194  0.00  0.00     0.092 C 
ATOM      8  H11 non d ame     -31.652   9.114  24.841  0.00  0.00     0.088 H 
BRANCH   7   9
ATOM      9  N3  non d ame     -33.307  10.059  24.034  0.00  0.00    -0.346 N 
ATOM     10  C7  non d ame     -34.178   9.404  24.978  0.00  0.00     0.240 C 
ATOM     11  O3  non d ame     -33.725   8.797  25.872  0.00  0.00    -0.271 OA
ATOM     12  H10 non d ame     -33.712  10.576  23.268  0.00  0.00     0.163 HD
BRANCH  10  13
ATOM     13  C6  non d ame     -35.725   9.501  24.802  0.00  0.00     0.086 C 
ATOM     14  H6  non d ame     -36.257   9.533  25.752  0.00  0.00     0.086 H 
BRANCH  13  15
ATOM     15  N2  non d ame     -36.043  10.737  24.106  0.00  0.00    -0.343 N 
ATOM     16  C5  non d ame     -36.842  11.761  24.783  0.00  0.00     0.273 C 
ATOM     17  O2  non d ame     -37.226  11.580  25.885  0.00  0.00    -0.266 OA
ATOM     18  H5  non d ame     -35.714  10.881  23.162  0.00  0.00     0.163 HD
BRANCH  16  19
ATOM     19  C4  non d ame     -37.184  13.073  24.059  0.00  0.00     0.154 A 
ATOM     20  C1  non d ame     -37.345  14.367  24.646  0.00  0.00    -0.017 A 
ATOM     21  C2  non d ame     -37.651  15.222  23.564  0.00  0.00     0.077 A 
ATOM     22  H1  non d ame     -37.256  14.645  25.697  0.00  0.00     0.091 H 
ATOM     23  O1  non d ame     -37.658  14.494  22.485  0.00  0.00    -0.218 OA
ATOM     24  N1  non d ame     -37.389  13.236  22.750  0.00  0.00    -0.123 NA
BRANCH  21  25
ATOM     25  C3  non d ame     -37.919  16.719  23.645  0.00  0.00    -0.029 C 
ATOM     26  H2  non d ame     -37.179  17.187  24.295  0.00  0.00     0.036 H 
ATOM     27  H3  non d ame     -37.853  17.155  22.648  0.00  0.00     0.036 H 
ATOM     28  H4  non d ame     -38.916  16.888  24.050  0.00  0.00     0.036 H 
ENDBRANCH  21  25
ENDBRANCH  16  19
ENDBRANCH  13  15
BRANCH  13  29
ATOM     29  C8  non d ame     -36.218   8.318  24.006  0.00  0.00    -0.049 C 
ATOM     30  H7  non d ame     -36.768   8.671  23.134  0.00  0.00     0.030 H 
ATOM     31  H8  non d ame     -35.367   7.720  23.680  0.00  0.00     0.030 H 
ATOM     32  H9  non d ame     -36.874   7.709  24.628  0.00  0.00     0.030 H 
ENDBRANCH  13  29
ENDBRANCH  10  13
ENDBRANCH   7   9
BRANCH   7  33
ATOM     33  C11 non d ame     -31.189   9.811  22.795  0.00  0.00    -0.033 C 
ATOM     34  H12 non d ame     -31.464  10.683  22.201  0.00  0.00     0.042 H 
BRANCH  33  35
ATOM     35  C12 non d ame     -29.632   9.789  22.903  0.00  0.00    -0.071 C 
ATOM     36  H13 non d ame     -29.339   9.310  23.838  0.00  0.00     0.028 H 
ATOM     37  H14 non d ame     -29.218   9.231  22.064  0.00  0.00     0.028 H 
ATOM     38  H15 non d ame     -29.252  10.810  22.885  0.00  0.00     0.028 H 
ENDBRANCH  33  35
BRANCH  33  39
ATOM     39  C13 non d ame     -31.723   8.539  22.062  0.00  0.00    -0.071 C 
ATOM     40  H16 non d ame     -32.513   8.825  21.366  0.00  0.00     0.028 H 
ATOM     41  H17 non d ame     -30.909   8.065  21.513  0.00  0.00     0.028 H 
ATOM     42  H18 non d ame     -32.121   7.838  22.795  0.00  0.00     0.028 H 
ENDBRANCH  33  39
ENDBRANCH   7  33
ENDBRANCH   4   7
ENDBRANCH   1   3
BRANCH   1  43
ATOM     43  C15 non d ame     -32.165  14.370  25.655  0.00  0.00     0.240 C 
ATOM     44  O5  non d ame     -33.242  13.868  25.641  0.00  0.00    -0.271 OA
ATOM     45  N6  non d ame     -31.914  15.562  26.513  0.00  0.00    -0.355 N 
ATOM     46  H46 non d ame     -31.001  15.993  26.537  0.00  0.00     0.162 HD
BRANCH  45  47
ATOM     47  C20 non d ame     -33.010  16.118  27.337  0.00  0.00     0.013 C 
ATOM     48  H30 non d ame     -33.954  15.797  26.897  0.00  0.00     0.072 H 
BRANCH  47  49
ATOM     49  C21 non d ame     -32.923  17.627  27.331  0.00  0.00    -0.038 C 
ATOM     50  H31 non d ame     -32.814  17.920  28.377  0.00  0.00     0.036 H 
ATOM     51  H32 non d ame     -32.143  17.874  26.612  0.00  0.00     0.036 H 
BRANCH  49  52
ATOM     52  C22 non d ame     -34.216  18.300  26.823  0.00  0.00     0.018 C 
ATOM     53  H33 non d ame     -33.902  19.239  26.370  0.00  0.00     0.048 H 
ATOM     54  H34 non d ame     -34.722  17.546  26.217  0.00  0.00     0.048 H 
BRANCH  52  55
ATOM     55  C23 non d ame     -35.212  18.679  27.953  0.00  0.00     0.259 C 
ATOM     56  O7  non d ame     -35.662  17.843  28.667  0.00  0.00    -0.265 OA
BRANCH  55  57
ATOM     57  O8  non d ame     -35.592  20.040  28.119  0.00  0.00    -0.317 OA
BRANCH  57  58
ATOM     58  C29 non d ame     -35.602  20.794  26.902  0.00  0.00     0.052 C 
ATOM     59  H47 non d ame     -35.371  21.819  27.189  0.00  0.00     0.082 H 
ATOM     60  H48 non d ame     -34.944  20.258  26.218  0.00  0.00     0.082 H 
BRANCH  58  61
ATOM     61  C35 non d ame     -37.043  20.757  26.327  0.00  0.00    -0.034 A 
ATOM     62  C30 non d ame     -37.244  20.565  24.964  0.00  0.00    -0.075 A 
ATOM     63  C31 non d ame     -38.539  20.532  24.447  0.00  0.00    -0.082 A 
ATOM     64  H49 non d ame     -36.389  20.440  24.301  0.00  0.00     0.084 H 
ATOM     65  C32 non d ame     -39.635  20.695  25.299  0.00  0.00    -0.083 A 
ATOM     66  H50 non d ame     -38.693  20.380  23.379  0.00  0.00     0.083 H 
ATOM     67  C33 non d ame     -39.429  20.890  26.658  0.00  0.00    -0.082 A 
ATOM     68  H51 non d ame     -40.650  20.670  24.903  0.00  0.00     0.083 H 
ATOM     69  C34 non d ame     -38.137  20.921  27.179  0.00  0.00    -0.075 A 
ATOM     70  H52 non d ame     -40.286  21.019  27.320  0.00  0.00     0.083 H 
ATOM     71  H53 non d ame     -37.984  21.073  28.248  0.00  0.00     0.084 H 
ENDBRANCH  58  61
ENDBRANCH  57  58
ENDBRANCH  55  57
ENDBRANCH  52  55
ENDBRANCH  49  52
ENDBRANCH  47  49
BRANCH  47  72
ATOM     72  C24 non d ame     -32.891  15.605  28.770  0.00  0.00    -0.039 C 
ATOM     73  H35 non d ame     -32.697  16.489  29.379  0.00  0.00     0.036 H 
ATOM     74  H36 non d ame     -33.789  15.012  28.942  0.00  0.00     0.036 H 
BRANCH  72  75
ATOM     75  C25 non d ame     -31.636  14.624  28.947  0.00  0.00    -0.001 C 
ATOM     76  C26 non d ame     -32.160  13.099  29.266  0.00  0.00    -0.035 C 
ATOM     77  C27 non d ame     -31.521  12.640  30.369  0.00  0.00     0.085 C 
ATOM     78  H38 non d ame     -33.207  13.118  29.567  0.00  0.00     0.036 H 
ATOM     79  H39 non d ame     -31.830  12.419  28.480  0.00  0.00     0.036 H 
ATOM     80  N5  non d ame     -30.857  13.828  31.021  0.00  0.00    -0.049 N 
ATOM     81  H40 non d ame     -32.307  12.267  31.027  0.00  0.00     0.075 H 
ATOM     82  H41 non d ame     -30.752  11.962  30.000  0.00  0.00     0.075 H 
ATOM     83  C28 non d ame     -30.876  15.008  29.919  0.00  0.00     0.193 C 
ATOM     84  H42 non d ame     -31.448  14.100  31.793  0.00  0.00     0.280 HD
ATOM     85  H43 non d ame     -29.897  13.562  31.190  0.00  0.00     0.280 HD
ATOM     86  H44 non d ame     -29.972  15.269  29.371  0.00  0.00     0.129 H 
ATOM     87  H37 non d ame     -30.905  14.741  28.148  0.00  0.00     0.046 H 
BRANCH  83  88
ATOM     88  O6  non d ame     -31.330  16.227  30.510  0.00  0.00    -0.369 OA
ATOM     89  H45 non d ame     -31.775  16.035  31.338  0.00  0.00     0.212 HD
ENDBRANCH  83  88
ENDBRANCH  72  75
ENDBRANCH  47  72
ENDBRANCH  45  47
ENDBRANCH   1  43
BRANCH   1  90
ATOM     90  C16 non d ame     -30.634  14.764  23.700  0.00  0.00    -0.035 C 
ATOM     91  H21 non d ame     -31.461  15.471  23.645  0.00  0.00     0.037 H 
ATOM     92  H22 non d ame     -29.638  15.112  23.972  0.00  0.00     0.037 H 
BRANCH  90  93
ATOM     93  C17 non d ame     -30.506  14.124  22.282  0.00  0.00    -0.059 C 
ATOM     94  H23 non d ame     -31.138  13.236  22.261  0.00  0.00     0.038 H 
BRANCH  93  95
ATOM     95  C18 non d ame     -30.999  15.086  21.154  0.00  0.00    -0.073 C 
ATOM     96  H24 non d ame     -30.393  14.940  20.260  0.00  0.00     0.028 H 
ATOM     97  H25 non d ame     -32.043  14.871  20.923  0.00  0.00     0.028 H 
ATOM     98  H26 non d ame     -30.908  16.118  21.491  0.00  0.00     0.028 H 
ENDBRANCH  93  95
BRANCH  93  99
ATOM     99  C19 non d ame     -29.070  13.665  22.016  0.00  0.00    -0.073 C 
ATOM    100  H27 non d ame     -28.845  12.796  22.636  0.00  0.00     0.028 H 
ATOM    101  H28 non d ame     -28.962  13.398  20.965  0.00  0.00     0.028 H 
ATOM    102  H29 non d ame     -28.380  14.473  22.257  0.00  0.00     0.028 H 
ENDBRANCH  93  99
ENDBRANCH  90  93
ENDBRANCH   1  90
TORSDOF 26
ENDMDL
MODEL 15
REMARK VINA RESULT:      -6.5      3.845      9.572
REMARK  26 active torsions:
REMARK  status: ('A' for Active; 'I' for Inactive)
REMARK    1  A    between atoms: C2_2  and  C3_3 
REMARK    2  A    between atoms: C4_6  and  C5_7 
REMARK       I    between atoms: C5_7  and  N2_9 
REMARK    3  A    between atoms: N2_9  and  C6_10 
REMARK    4  A    between atoms: C6_10  and  C7_11 
REMARK    5  A    between atoms: C6_10  and  C8_13 
REMARK       I    between atoms: C7_11  and  N3_14 
REMARK    6  A    between atoms: N3_14  and  C9_15 
REMARK    7  A    between atoms: C9_15  and  C10_16 
REMARK    8  A    between atoms: C9_15  and  C11_18 
REMARK       I    between atoms: C10_16  and  N4_21 
REMARK    9  A    between atoms: C11_18  and  C12_19 
REMARK   10  A    between atoms: C11_18  and  C13_20 
REMARK   11  A    between atoms: N4_21  and  C14_22 
REMARK   12  A    between atoms: C14_22  and  C15_23 
REMARK   13  A    between atoms: C14_22  and  C16_25 
REMARK       I    between atoms: C15_23  and  N6_40 
REMARK   14  A    between atoms: C16_25  and  C17_26 
REMARK   15  A    between atoms: C17_26  and  C18_27 
REMARK   16  A    between atoms: C17_26  and  C19_28 
REMARK   17  A    between atoms: C20_29  and  C21_30 
REMARK   18  A    between atoms: C20_29  and  C24_33 
REMARK   19  A    between atoms: C20_29  and  N6_40 
REMARK   20  A    between atoms: C21_30  and  C22_31 
REMARK   21  A    between atoms: C22_31  and  C23_32 
REMARK   22  A    between atoms: C23_32  and  O8_43 
REMARK   23  A    between atoms: C24_33  and  C25_34 
REMARK   24  A    between atoms: C28_38  and  O6_39 
REMARK   25  A    between atoms: C29_42  and  O8_43 
REMARK   26  A    between atoms: C29_42  and  C35_49 
ROOT
ATOM      1  C14 non d ame     -34.997   8.229  31.217  0.00  0.00     0.089 C 
ATOM      2  H20 non d ame     -34.632   8.366  32.236  0.00  0.00     0.087 H 
ENDROOT
BRANCH   1   3
ATOM      3  N4  non d ame     -34.107   8.965  30.332  0.00  0.00    -0.346 N 
ATOM      4  C10 non d ame     -33.524  10.287  30.764  0.00  0.00     0.241 C 
ATOM      5  O4  non d ame     -33.788  10.740  31.829  0.00  0.00    -0.271 OA
ATOM      6  H19 non d ame     -33.897   8.564  29.429  0.00  0.00     0.163 HD
BRANCH   4   7
ATOM      7  C9  non d ame     -32.600  11.033  29.837  0.00  0.00     0.092 C 
ATOM      8  H11 non d ame     -31.882  10.334  29.409  0.00  0.00     0.088 H 
BRANCH   7   9
ATOM      9  N3  non d ame     -33.372  11.596  28.726  0.00  0.00    -0.346 N 
ATOM     10  C7  non d ame     -33.252  11.031  27.405  0.00  0.00     0.240 C 
ATOM     11  O3  non d ame     -32.537  10.123  27.218  0.00  0.00    -0.271 OA
ATOM     12  H10 non d ame     -33.992  12.380  28.872  0.00  0.00     0.163 HD
BRANCH  10  13
ATOM     13  C6  non d ame     -34.074  11.637  26.225  0.00  0.00     0.086 C 
ATOM     14  H6  non d ame     -34.839  12.337  26.561  0.00  0.00     0.086 H 
BRANCH  13  15
ATOM     15  N2  non d ame     -33.176  12.385  25.361  0.00  0.00    -0.343 N 
ATOM     16  C5  non d ame     -32.796  13.752  25.727  0.00  0.00     0.273 C 
ATOM     17  O2  non d ame     -33.219  14.240  26.716  0.00  0.00    -0.266 OA
ATOM     18  H5  non d ame     -32.823  11.961  24.515  0.00  0.00     0.163 HD
BRANCH  16  19
ATOM     19  C4  non d ame     -31.846  14.553  24.823  0.00  0.00     0.154 A 
ATOM     20  C1  non d ame     -30.784  14.040  24.013  0.00  0.00    -0.017 A 
ATOM     21  C2  non d ame     -30.224  15.176  23.386  0.00  0.00     0.077 A 
ATOM     22  H1  non d ame     -30.467  13.004  23.899  0.00  0.00     0.091 H 
ATOM     23  O1  non d ame     -30.895  16.213  23.792  0.00  0.00    -0.218 OA
ATOM     24  N1  non d ame     -31.846  15.875  24.632  0.00  0.00    -0.123 NA
BRANCH  21  25
ATOM     25  C3  non d ame     -29.053  15.182  22.413  0.00  0.00    -0.029 C 
ATOM     26  H2  non d ame     -28.527  16.134  22.483  0.00  0.00     0.036 H 
ATOM     27  H3  non d ame     -28.368  14.371  22.662  0.00  0.00     0.036 H 
ATOM     28  H4  non d ame     -29.423  15.046  21.397  0.00  0.00     0.036 H 
ENDBRANCH  21  25
ENDBRANCH  16  19
ENDBRANCH  13  15
BRANCH  13  29
ATOM     29  C8  non d ame     -34.735  10.527  25.447  0.00  0.00    -0.049 C 
ATOM     30  H7  non d ame     -35.312   9.900  26.126  0.00  0.00     0.030 H 
ATOM     31  H8  non d ame     -35.399  10.956  24.696  0.00  0.00     0.030 H 
ATOM     32  H9  non d ame     -33.972   9.924  24.955  0.00  0.00     0.030 H 
ENDBRANCH  13  29
ENDBRANCH  10  13
ENDBRANCH   7   9
BRANCH   7  33
ATOM     33  C11 non d ame     -31.902  12.184  30.617  0.00  0.00    -0.033 C 
ATOM     34  H12 non d ame     -32.406  12.282  31.579  0.00  0.00     0.042 H 
BRANCH  33  35
ATOM     35  C12 non d ame     -30.404  11.851  30.903  0.00  0.00    -0.071 C 
ATOM     36  H13 non d ame     -29.954  11.408  30.015  0.00  0.00     0.028 H 
ATOM     37  H14 non d ame     -29.872  12.767  31.162  0.00  0.00     0.028 H 
ATOM     38  H15 non d ame     -30.340  11.146  31.732  0.00  0.00     0.028 H 
ENDBRANCH  33  35
BRANCH  33  39
ATOM     39  C13 non d ame     -32.045  13.542  29.857  0.00  0.00    -0.071 C 
ATOM     40  H16 non d ame     -31.067  14.016  29.772  0.00  0.00     0.028 H 
ATOM     41  H17 non d ame     -32.449  13.360  28.860  0.00  0.00     0.028 H 
ATOM     42  H18 non d ame     -32.720  14.197  30.407  0.00  0.00     0.028 H 
ENDBRANCH  33  39
ENDBRANCH   7  33
ENDBRANCH   4   7
ENDBRANCH   1   3
BRANCH   1  43
ATOM     43  C15 non d ame     -34.996   6.734  30.789  0.00  0.00     0.240 C 
ATOM     44  O5  non d ame     -35.505   5.919  31.488  0.00  0.00    -0.271 OA
ATOM     45  N6  non d ame     -34.369   6.319  29.502  0.00  0.00    -0.355 N 
ATOM     46  H46 non d ame     -33.938   7.004  28.897  0.00  0.00     0.162 HD
BRANCH  45  47
ATOM     47  C20 non d ame     -34.378   4.893  29.108  0.00  0.00     0.013 C 
ATOM     48  H30 non d ame     -34.699   4.309  29.970  0.00  0.00     0.072 H 
BRANCH  47  49
ATOM     49  C21 non d ame     -32.983   4.480  28.694  0.00  0.00    -0.038 C 
ATOM     50  H31 non d ame     -32.312   5.206  29.156  0.00  0.00     0.036 H 
ATOM     51  H32 non d ame     -32.901   3.424  28.948  0.00  0.00     0.036 H 
BRANCH  49  52
ATOM     52  C22 non d ame     -32.754   4.582  27.171  0.00  0.00     0.018 C 
ATOM     53  H33 non d ame     -31.862   3.993  26.966  0.00  0.00     0.048 H 
ATOM     54  H34 non d ame     -33.705   4.308  26.711  0.00  0.00     0.048 H 
BRANCH  52  55
ATOM     55  C23 non d ame     -32.441   6.022  26.679  0.00  0.00     0.259 C 
ATOM     56  O7  non d ame     -31.865   6.788  27.382  0.00  0.00    -0.265 OA
BRANCH  55  57
ATOM     57  O8  non d ame     -32.863   6.423  25.381  0.00  0.00    -0.317 OA
BRANCH  57  58
ATOM     58  C29 non d ame     -31.954   6.063  24.337  0.00  0.00     0.052 C 
ATOM     59  H47 non d ame     -31.128   5.549  24.829  0.00  0.00     0.082 H 
ATOM     60  H48 non d ame     -32.553   5.542  23.590  0.00  0.00     0.082 H 
BRANCH  58  61
ATOM     61  C35 non d ame     -31.409   7.371  23.703  0.00  0.00    -0.034 A 
ATOM     62  C30 non d ame     -32.029   8.587  23.975  0.00  0.00    -0.075 A 
ATOM     63  C31 non d ame     -31.540   9.762  23.406  0.00  0.00    -0.082 A 
ATOM     64  H49 non d ame     -32.898   8.619  24.633  0.00  0.00     0.084 H 
ATOM     65  C32 non d ame     -30.429   9.718  22.560  0.00  0.00    -0.083 A 
ATOM     66  H50 non d ame     -32.028  10.714  23.622  0.00  0.00     0.083 H 
ATOM     67  C33 non d ame     -29.816   8.503  22.290  0.00  0.00    -0.082 A 
ATOM     68  H51 non d ame     -30.040  10.633  22.112  0.00  0.00     0.083 H 
ATOM     69  C34 non d ame     -30.300   7.326  22.858  0.00  0.00    -0.075 A 
ATOM     70  H52 non d ame     -28.950   8.471  21.628  0.00  0.00     0.083 H 
ATOM     71  H53 non d ame     -29.812   6.375  22.641  0.00  0.00     0.084 H 
ENDBRANCH  58  61
ENDBRANCH  57  58
ENDBRANCH  55  57
ENDBRANCH  52  55
ENDBRANCH  49  52
ENDBRANCH  47  49
BRANCH  47  72
ATOM     72  C24 non d ame     -35.339   4.686  27.939  0.00  0.00    -0.039 C 
ATOM     73  H35 non d ame     -34.775   4.965  27.048  0.00  0.00     0.036 H 
ATOM     74  H36 non d ame     -35.715   3.669  28.050  0.00  0.00     0.036 H 
BRANCH  72  75
ATOM     75  C25 non d ame     -36.601   5.669  28.029  0.00  0.00    -0.001 C 
ATOM     76  C26 non d ame     -37.933   4.826  28.496  0.00  0.00    -0.035 C 
ATOM     77  C27 non d ame     -38.940   5.084  27.626  0.00  0.00     0.085 C 
ATOM     78  H38 non d ame     -37.761   3.757  28.376  0.00  0.00     0.036 H 
ATOM     79  H39 non d ame     -38.309   5.216  29.442  0.00  0.00     0.036 H 
ATOM     80  N5  non d ame     -38.324   5.764  26.427  0.00  0.00    -0.049 N 
ATOM     81  H40 non d ame     -39.321   4.108  27.324  0.00  0.00     0.075 H 
ATOM     82  H41 non d ame     -39.593   5.790  28.138  0.00  0.00     0.075 H 
ATOM     83  C28 non d ame     -36.845   6.221  26.887  0.00  0.00     0.193 C 
ATOM     84  H42 non d ame     -38.234   5.057  25.712  0.00  0.00     0.280 HD
ATOM     85  H43 non d ame     -38.877   6.591  26.253  0.00  0.00     0.280 HD
ATOM     86  H44 non d ame     -36.636   7.263  27.122  0.00  0.00     0.129 H 
ATOM     87  H37 non d ame     -36.375   6.583  28.576  0.00  0.00     0.046 H 
BRANCH  83  88
ATOM     88  O6  non d ame     -35.885   5.854  25.894  0.00  0.00    -0.369 OA
ATOM     89  H45 non d ame     -35.016   5.791  26.297  0.00  0.00     0.212 HD
ENDBRANCH  83  88
ENDBRANCH  72  75
ENDBRANCH  47  72
ENDBRANCH  45  47
ENDBRANCH   1  43
BRANCH   1  90
ATOM     90  C16 non d ame     -36.402   8.796  31.092  0.00  0.00    -0.035 C 
ATOM     91  H21 non d ame     -37.045   8.093  31.621  0.00  0.00     0.037 H 
ATOM     92  H22 non d ame     -36.328   9.828  31.433  0.00  0.00     0.037 H 
BRANCH  90  93
ATOM     93  C17 non d ame     -36.927   8.853  29.622  0.00  0.00    -0.059 C 
ATOM     94  H23 non d ame     -36.305   8.189  29.023  0.00  0.00     0.038 H 
BRANCH  93  95
ATOM     95  C18 non d ame     -38.404   8.359  29.505  0.00  0.00    -0.073 C 
ATOM     96  H24 non d ame     -38.914   8.506  30.457  0.00  0.00     0.028 H 
ATOM     97  H25 non d ame     -38.916   8.927  28.728  0.00  0.00     0.028 H 
ATOM     98  H26 non d ame     -38.414   7.300  29.247  0.00  0.00     0.028 H 
ENDBRANCH  93  95
BRANCH  93  99
ATOM     99  C19 non d ame     -36.777  10.262  29.042  0.00  0.00    -0.073 C 
ATOM    100  H27 non d ame     -36.133  10.227  28.163  0.00  0.00     0.028 H 
ATOM    101  H28 non d ame     -37.757  10.645  28.758  0.00  0.00     0.028 H 
ATOM    102  H29 non d ame     -36.335  10.918  29.791  0.00  0.00     0.028 H 
ENDBRANCH  93  99
ENDBRANCH  90  93
ENDBRANCH   1  90
TORSDOF 26
ENDMDL
MODEL 16
REMARK VINA RESULT:      -6.5      3.248      9.228
REMARK  26 active torsions:
REMARK  status: ('A' for Active; 'I' for Inactive)
REMARK    1  A    between atoms: C2_2  and  C3_3 
REMARK    2  A    between atoms: C4_6  and  C5_7 
REMARK       I    between atoms: C5_7  and  N2_9 
REMARK    3  A    between atoms: N2_9  and  C6_10 
REMARK    4  A    between atoms: C6_10  and  C7_11 
REMARK    5  A    between atoms: C6_10  and  C8_13 
REMARK       I    between atoms: C7_11  and  N3_14 
REMARK    6  A    between atoms: N3_14  and  C9_15 
REMARK    7  A    between atoms: C9_15  and  C10_16 
REMARK    8  A    between atoms: C9_15  and  C11_18 
REMARK       I    between atoms: C10_16  and  N4_21 
REMARK    9  A    between atoms: C11_18  and  C12_19 
REMARK   10  A    between atoms: C11_18  and  C13_20 
REMARK   11  A    between atoms: N4_21  and  C14_22 
REMARK   12  A    between atoms: C14_22  and  C15_23 
REMARK   13  A    between atoms: C14_22  and  C16_25 
REMARK       I    between atoms: C15_23  and  N6_40 
REMARK   14  A    between atoms: C16_25  and  C17_26 
REMARK   15  A    between atoms: C17_26  and  C18_27 
REMARK   16  A    between atoms: C17_26  and  C19_28 
REMARK   17  A    between atoms: C20_29  and  C21_30 
REMARK   18  A    between atoms: C20_29  and  C24_33 
REMARK   19  A    between atoms: C20_29  and  N6_40 
REMARK   20  A    between atoms: C21_30  and  C22_31 
REMARK   21  A    between atoms: C22_31  and  C23_32 
REMARK   22  A    between atoms: C23_32  and  O8_43 
REMARK   23  A    between atoms: C24_33  and  C25_34 
REMARK   24  A    between atoms: C28_38  and  O6_39 
REMARK   25  A    between atoms: C29_42  and  O8_43 
REMARK   26  A    between atoms: C29_42  and  C35_49 
ROOT
ATOM      1  C14 non d ame     -33.656   6.988  27.901  0.00  0.00     0.089 C 
ATOM      2  H20 non d ame     -33.069   6.618  28.742  0.00  0.00     0.087 H 
ENDROOT
BRANCH   1   3
ATOM      3  N4  non d ame     -34.181   8.293  28.274  0.00  0.00    -0.346 N 
ATOM      4  C10 non d ame     -34.770   8.513  29.645  0.00  0.00     0.241 C 
ATOM      5  O4  non d ame     -34.815   7.624  30.429  0.00  0.00    -0.271 OA
ATOM      6  H19 non d ame     -34.135   9.036  27.591  0.00  0.00     0.163 HD
BRANCH   4   7
ATOM      7  C9  non d ame     -35.303   9.872  30.016  0.00  0.00     0.092 C 
ATOM      8  H11 non d ame     -35.379   9.944  31.101  0.00  0.00     0.088 H 
BRANCH   7   9
ATOM      9  N3  non d ame     -34.360  10.904  29.578  0.00  0.00    -0.346 N 
ATOM     10  C7  non d ame     -33.207  11.216  30.386  0.00  0.00     0.240 C 
ATOM     11  O3  non d ame     -33.024  10.647  31.393  0.00  0.00    -0.271 OA
ATOM     12  H10 non d ame     -34.505  11.405  28.713  0.00  0.00     0.163 HD
BRANCH  10  13
ATOM     13  C6  non d ame     -32.207  12.318  29.916  0.00  0.00     0.086 C 
ATOM     14  H6  non d ame     -31.717  12.070  28.975  0.00  0.00     0.086 H 
BRANCH  13  15
ATOM     15  N2  non d ame     -32.940  13.553  29.690  0.00  0.00    -0.343 N 
ATOM     16  C5  non d ame     -32.444  14.515  28.703  0.00  0.00     0.273 C 
ATOM     17  O2  non d ame     -31.454  14.288  28.099  0.00  0.00    -0.266 OA
ATOM     18  H5  non d ame     -33.782  13.741  30.214  0.00  0.00     0.163 HD
BRANCH  16  19
ATOM     19  C4  non d ame     -33.209  15.824  28.452  0.00  0.00     0.154 A 
ATOM     20  C1  non d ame     -34.504  15.969  27.860  0.00  0.00    -0.017 A 
ATOM     21  C2  non d ame     -34.749  17.361  27.859  0.00  0.00     0.077 A 
ATOM     22  H1  non d ame     -35.163  15.186  27.487  0.00  0.00     0.091 H 
ATOM     23  O1  non d ame     -33.712  17.937  28.393  0.00  0.00    -0.218 OA
ATOM     24  N1  non d ame     -32.800  17.061  28.746  0.00  0.00    -0.123 NA
BRANCH  21  25
ATOM     25  C3  non d ame     -35.998  18.055  27.332  0.00  0.00    -0.029 C 
ATOM     26  H2  non d ame     -36.612  17.337  26.789  0.00  0.00     0.036 H 
ATOM     27  H3  non d ame     -36.568  18.461  28.168  0.00  0.00     0.036 H 
ATOM     28  H4  non d ame     -35.708  18.864  26.663  0.00  0.00     0.036 H 
ENDBRANCH  21  25
ENDBRANCH  16  19
ENDBRANCH  13  15
BRANCH  13  29
ATOM     29  C8  non d ame     -31.153  12.529  30.975  0.00  0.00    -0.049 C 
ATOM     30  H7  non d ame     -31.038  13.596  31.165  0.00  0.00     0.030 H 
ATOM     31  H8  non d ame     -31.457  12.027  31.894  0.00  0.00     0.030 H 
ATOM     32  H9  non d ame     -30.205  12.116  30.631  0.00  0.00     0.030 H 
ENDBRANCH  13  29
ENDBRANCH  10  13
ENDBRANCH   7   9
BRANCH   7  33
ATOM     33  C11 non d ame     -36.676  10.098  29.318  0.00  0.00    -0.033 C 
ATOM     34  H12 non d ame     -37.031   9.128  28.968  0.00  0.00     0.042 H 
BRANCH  33  35
ATOM     35  C12 non d ame     -37.739  10.653  30.318  0.00  0.00    -0.071 C 
ATOM     36  H13 non d ame     -38.670  10.099  30.203  0.00  0.00     0.028 H 
ATOM     37  H14 non d ame     -37.371  10.540  31.337  0.00  0.00     0.028 H 
ATOM     38  H15 non d ame     -37.917  11.708  30.110  0.00  0.00     0.028 H 
ENDBRANCH  33  35
BRANCH  33  39
ATOM     39  C13 non d ame     -36.525  11.033  28.075  0.00  0.00    -0.071 C 
ATOM     40  H16 non d ame     -37.371  10.885  27.404  0.00  0.00     0.028 H 
ATOM     41  H17 non d ame     -36.498  12.073  28.403  0.00  0.00     0.028 H 
ATOM     42  H18 non d ame     -35.600  10.795  27.552  0.00  0.00     0.028 H 
ENDBRANCH  33  39
ENDBRANCH   7  33
ENDBRANCH   4   7
ENDBRANCH   1   3
BRANCH   1  43
ATOM     43  C15 non d ame     -32.799   7.148  26.613  0.00  0.00     0.240 C 
ATOM     44  O5  non d ame     -31.815   6.497  26.473  0.00  0.00    -0.271 OA
ATOM     45  N6  non d ame     -33.212   8.106  25.548  0.00  0.00    -0.355 N 
ATOM     46  H46 non d ame     -34.050   8.661  25.654  0.00  0.00     0.162 HD
BRANCH  45  47
ATOM     47  C20 non d ame     -32.388   8.246  24.328  0.00  0.00     0.013 C 
ATOM     48  H30 non d ame     -31.372   7.935  24.572  0.00  0.00     0.072 H 
BRANCH  47  49
ATOM     49  C21 non d ame     -32.394   9.691  23.884  0.00  0.00    -0.038 C 
ATOM     50  H31 non d ame     -32.509   9.666  22.799  0.00  0.00     0.036 H 
ATOM     51  H32 non d ame     -33.144  10.185  24.500  0.00  0.00     0.036 H 
BRANCH  49  52
ATOM     52  C22 non d ame     -31.056  10.410  24.163  0.00  0.00     0.018 C 
ATOM     53  H33 non d ame     -30.337   9.621  24.378  0.00  0.00     0.048 H 
ATOM     54  H34 non d ame     -30.897  11.076  23.314  0.00  0.00     0.048 H 
BRANCH  52  55
ATOM     55  C23 non d ame     -31.084  11.320  25.422  0.00  0.00     0.259 C 
ATOM     56  O7  non d ame     -31.443  10.889  26.470  0.00  0.00    -0.265 OA
BRANCH  55  57
ATOM     57  O8  non d ame     -30.690  12.682  25.307  0.00  0.00    -0.317 OA
BRANCH  57  58
ATOM     58  C29 non d ame     -31.685  13.528  24.722  0.00  0.00     0.052 C 
ATOM     59  H47 non d ame     -32.483  12.862  24.396  0.00  0.00     0.082 H 
ATOM     60  H48 non d ame     -31.887  14.301  25.463  0.00  0.00     0.082 H 
BRANCH  58  61
ATOM     61  C35 non d ame     -31.065  14.201  23.468  0.00  0.00    -0.034 A 
ATOM     62  C30 non d ame     -30.043  13.564  22.770  0.00  0.00    -0.075 A 
ATOM     63  C31 non d ame     -29.486  14.169  21.643  0.00  0.00    -0.082 A 
ATOM     64  H49 non d ame     -29.679  12.594  23.105  0.00  0.00     0.084 H 
ATOM     65  C32 non d ame     -29.953  15.415  21.217  0.00  0.00    -0.083 A 
ATOM     66  H50 non d ame     -28.687  13.667  21.097  0.00  0.00     0.083 H 
ATOM     67  C33 non d ame     -30.970  16.048  21.919  0.00  0.00    -0.082 A 
ATOM     68  H51 non d ame     -29.523  15.894  20.337  0.00  0.00     0.083 H 
ATOM     69  C34 non d ame     -31.531  15.446  23.044  0.00  0.00    -0.075 A 
ATOM     70  H52 non d ame     -31.331  17.021  21.586  0.00  0.00     0.083 H 
ATOM     71  H53 non d ame     -32.330  15.949  23.589  0.00  0.00     0.084 H 
ENDBRANCH  58  61
ENDBRANCH  57  58
ENDBRANCH  55  57
ENDBRANCH  52  55
ENDBRANCH  49  52
ENDBRANCH  47  49
BRANCH  47  72
ATOM     72  C24 non d ame     -32.958   7.368  23.215  0.00  0.00    -0.039 C 
ATOM     73  H35 non d ame     -33.983   7.147  23.518  0.00  0.00     0.036 H 
ATOM     74  H36 non d ame     -32.769   7.913  22.291  0.00  0.00     0.036 H 
BRANCH  72  75
ATOM     75  C25 non d ame     -32.184   5.970  23.108  0.00  0.00    -0.001 C 
ATOM     76  C26 non d ame     -31.697   5.719  21.558  0.00  0.00    -0.035 C 
ATOM     77  C27 non d ame     -32.106   4.488  21.166  0.00  0.00     0.085 C 
ATOM     78  H38 non d ame     -32.229   6.391  20.885  0.00  0.00     0.036 H 
ATOM     79  H39 non d ame     -30.610   5.651  21.514  0.00  0.00     0.036 H 
ATOM     80  N5  non d ame     -33.108   4.010  22.189  0.00  0.00    -0.049 N 
ATOM     81  H40 non d ame     -32.616   4.640  20.214  0.00  0.00     0.075 H 
ATOM     82  H41 non d ame     -31.219   3.857  21.215  0.00  0.00     0.075 H 
ATOM     83  C28 non d ame     -32.942   4.987  23.463  0.00  0.00     0.193 C 
ATOM     84  H42 non d ame     -34.022   4.158  21.786  0.00  0.00     0.280 HD
ATOM     85  H43 non d ame     -32.819   3.079  22.457  0.00  0.00     0.280 HD
ATOM     86  H44 non d ame     -32.421   4.648  24.357  0.00  0.00     0.129 H 
ATOM     87  H37 non d ame     -31.433   5.852  23.889  0.00  0.00     0.046 H 
BRANCH  83  88
ATOM     88  O6  non d ame     -34.224   5.430  23.914  0.00  0.00    -0.369 OA
ATOM     89  H45 non d ame     -34.327   5.220  24.844  0.00  0.00     0.212 HD
ENDBRANCH  83  88
ENDBRANCH  72  75
ENDBRANCH  47  72
ENDBRANCH  45  47
ENDBRANCH   1  43
BRANCH   1  90
ATOM     90  C16 non d ame     -34.817   6.045  27.629  0.00  0.00    -0.035 C 
ATOM     91  H21 non d ame     -35.651   6.440  28.209  0.00  0.00     0.037 H 
ATOM     92  H22 non d ame     -34.890   5.983  26.544  0.00  0.00     0.037 H 
BRANCH  90  93
ATOM     93  C17 non d ame     -34.576   4.589  28.140  0.00  0.00    -0.059 C 
ATOM     94  H23 non d ame     -35.509   4.232  28.574  0.00  0.00     0.038 H 
BRANCH  93  95
ATOM     95  C18 non d ame     -34.186   3.616  26.982  0.00  0.00    -0.073 C 
ATOM     96  H24 non d ame     -33.867   2.662  27.401  0.00  0.00     0.028 H 
ATOM     97  H25 non d ame     -35.048   3.457  26.334  0.00  0.00     0.028 H 
ATOM     98  H26 non d ame     -33.371   4.049  26.402  0.00  0.00     0.028 H 
ENDBRANCH  93  95
BRANCH  93  99
ATOM     99  C19 non d ame     -33.521   4.567  29.249  0.00  0.00    -0.073 C 
ATOM    100  H27 non d ame     -32.678   3.949  28.936  0.00  0.00     0.028 H 
ATOM    101  H28 non d ame     -33.174   5.582  29.441  0.00  0.00     0.028 H 
ATOM    102  H29 non d ame     -33.957   4.154  30.158  0.00  0.00     0.028 H 
ENDBRANCH  93  99
ENDBRANCH  90  93
ENDBRANCH   1  90
TORSDOF 26
ENDMDL
MODEL 17
REMARK VINA RESULT:      -6.4      2.089      8.148
REMARK  26 active torsions:
REMARK  status: ('A' for Active; 'I' for Inactive)
REMARK    1  A    between atoms: C2_2  and  C3_3 
REMARK    2  A    between atoms: C4_6  and  C5_7 
REMARK       I    between atoms: C5_7  and  N2_9 
REMARK    3  A    between atoms: N2_9  and  C6_10 
REMARK    4  A    between atoms: C6_10  and  C7_11 
REMARK    5  A    between atoms: C6_10  and  C8_13 
REMARK       I    between atoms: C7_11  and  N3_14 
REMARK    6  A    between atoms: N3_14  and  C9_15 
REMARK    7  A    between atoms: C9_15  and  C10_16 
REMARK    8  A    between atoms: C9_15  and  C11_18 
REMARK       I    between atoms: C10_16  and  N4_21 
REMARK    9  A    between atoms: C11_18  and  C12_19 
REMARK   10  A    between atoms: C11_18  and  C13_20 
REMARK   11  A    between atoms: N4_21  and  C14_22 
REMARK   12  A    between atoms: C14_22  and  C15_23 
REMARK   13  A    between atoms: C14_22  and  C16_25 
REMARK       I    between atoms: C15_23  and  N6_40 
REMARK   14  A    between atoms: C16_25  and  C17_26 
REMARK   15  A    between atoms: C17_26  and  C18_27 
REMARK   16  A    between atoms: C17_26  and  C19_28 
REMARK   17  A    between atoms: C20_29  and  C21_30 
REMARK   18  A    between atoms: C20_29  and  C24_33 
REMARK   19  A    between atoms: C20_29  and  N6_40 
REMARK   20  A    between atoms: C21_30  and  C22_31 
REMARK   21  A    between atoms: C22_31  and  C23_32 
REMARK   22  A    between atoms: C23_32  and  O8_43 
REMARK   23  A    between atoms: C24_33  and  C25_34 
REMARK   24  A    between atoms: C28_38  and  O6_39 
REMARK   25  A    between atoms: C29_42  and  O8_43 
REMARK   26  A    between atoms: C29_42  and  C35_49 
ROOT
ATOM      1  C14 non d ame     -35.948  13.053  26.195  0.00  0.00     0.089 C 
ATOM      2  H20 non d ame     -36.652  12.879  27.009  0.00  0.00     0.087 H 
ENDROOT
BRANCH   1   3
ATOM      3  N4  non d ame     -35.714  14.488  26.119  0.00  0.00    -0.346 N 
ATOM      4  C10 non d ame     -36.779  15.458  26.565  0.00  0.00     0.241 C 
ATOM      5  O4  non d ame     -37.818  15.061  26.979  0.00  0.00    -0.271 OA
ATOM      6  H19 non d ame     -34.824  14.805  25.762  0.00  0.00     0.163 HD
BRANCH   4   7
ATOM      7  C9  non d ame     -36.517  16.939  26.485  0.00  0.00     0.092 C 
ATOM      8  H11 non d ame     -36.746  17.397  27.448  0.00  0.00     0.088 H 
BRANCH   7   9
ATOM      9  N3  non d ame     -35.095  17.171  26.222  0.00  0.00    -0.346 N 
ATOM     10  C7  non d ame     -34.219  17.574  27.295  0.00  0.00     0.240 C 
ATOM     11  O3  non d ame     -34.644  17.718  28.376  0.00  0.00    -0.271 OA
ATOM     12  H10 non d ame     -34.714  17.052  25.295  0.00  0.00     0.163 HD
BRANCH  10  13
ATOM     13  C6  non d ame     -32.706  17.822  27.008  0.00  0.00     0.086 C 
ATOM     14  H6  non d ame     -32.053  17.320  27.723  0.00  0.00     0.086 H 
BRANCH  13  15
ATOM     15  N2  non d ame     -32.380  17.283  25.698  0.00  0.00    -0.343 N 
ATOM     16  C5  non d ame     -31.687  15.996  25.600  0.00  0.00     0.273 C 
ATOM     17  O2  non d ame     -31.394  15.404  26.580  0.00  0.00    -0.266 OA
ATOM     18  H5  non d ame     -32.631  17.798  24.866  0.00  0.00     0.163 HD
BRANCH  16  19
ATOM     19  C4  non d ame     -31.338  15.414  24.221  0.00  0.00     0.154 A 
ATOM     20  C1  non d ame     -31.295  16.112  22.973  0.00  0.00    -0.017 A 
ATOM     21  C2  non d ame     -30.926  15.135  22.022  0.00  0.00     0.077 A 
ATOM     22  H1  non d ame     -31.501  17.166  22.786  0.00  0.00     0.091 H 
ATOM     23  O1  non d ame     -30.775  14.011  22.660  0.00  0.00    -0.218 OA
ATOM     24  N1  non d ame     -31.011  14.149  23.944  0.00  0.00    -0.123 NA
BRANCH  21  25
ATOM     25  C3  non d ame     -30.738  15.357  20.527  0.00  0.00    -0.029 C 
ATOM     26  H2  non d ame     -30.866  14.411  20.000  0.00  0.00     0.036 H 
ATOM     27  H3  non d ame     -31.479  16.073  20.171  0.00  0.00     0.036 H 
ATOM     28  H4  non d ame     -29.738  15.745  20.340  0.00  0.00     0.036 H 
ENDBRANCH  21  25
ENDBRANCH  16  19
ENDBRANCH  13  15
BRANCH  13  29
ATOM     29  C8  non d ame     -32.421  19.303  27.043  0.00  0.00    -0.049 C 
ATOM     30  H7  non d ame     -33.135  19.795  27.702  0.00  0.00     0.030 H 
ATOM     31  H8  non d ame     -31.410  19.468  27.415  0.00  0.00     0.030 H 
ATOM     32  H9  non d ame     -32.510  19.713  26.037  0.00  0.00     0.030 H 
ENDBRANCH  13  29
ENDBRANCH  10  13
ENDBRANCH   7   9
BRANCH   7  33
ATOM     33  C11 non d ame     -37.363  17.553  25.331  0.00  0.00    -0.033 C 
ATOM     34  H12 non d ame     -38.395  17.615  25.678  0.00  0.00     0.042 H 
BRANCH  33  35
ATOM     35  C12 non d ame     -36.894  19.002  24.990  0.00  0.00    -0.071 C 
ATOM     36  H13 non d ame     -37.758  19.666  24.963  0.00  0.00     0.028 H 
ATOM     37  H14 non d ame     -36.195  19.346  25.752  0.00  0.00     0.028 H 
ATOM     38  H15 non d ame     -36.402  19.005  24.017  0.00  0.00     0.028 H 
ENDBRANCH  33  35
BRANCH  33  39
ATOM     39  C13 non d ame     -37.333  16.635  24.067  0.00  0.00    -0.071 C 
ATOM     40  H16 non d ame     -36.299  16.468  23.763  0.00  0.00     0.028 H 
ATOM     41  H17 non d ame     -37.803  15.679  24.299  0.00  0.00     0.028 H 
ATOM     42  H18 non d ame     -37.876  17.118  23.255  0.00  0.00     0.028 H 
ENDBRANCH  33  39
ENDBRANCH   7  33
ENDBRANCH   4   7
ENDBRANCH   1   3
BRANCH   1  43
ATOM     43  C15 non d ame     -34.586  12.341  26.434  0.00  0.00     0.240 C 
ATOM     44  O5  non d ame     -33.602  12.760  25.916  0.00  0.00    -0.271 OA
ATOM     45  N6  non d ame     -34.507  11.142  27.315  0.00  0.00    -0.355 N 
ATOM     46  H46 non d ame     -35.336  10.780  27.764  0.00  0.00     0.162 HD
BRANCH  45  47
ATOM     47  C20 non d ame     -33.204  10.476  27.534  0.00  0.00     0.013 C 
ATOM     48  H30 non d ame     -32.450  11.020  26.964  0.00  0.00     0.072 H 
BRANCH  47  49
ATOM     49  C21 non d ame     -33.286   9.047  27.049  0.00  0.00    -0.038 C 
ATOM     50  H31 non d ame     -32.734   9.023  26.108  0.00  0.00     0.036 H 
ATOM     51  H32 non d ame     -32.959   8.433  27.888  0.00  0.00     0.036 H 
BRANCH  49  52
ATOM     52  C22 non d ame     -34.728   8.606  26.721  0.00  0.00     0.018 C 
ATOM     53  H33 non d ame     -35.050   7.997  27.565  0.00  0.00     0.048 H 
ATOM     54  H34 non d ame     -35.267   9.522  26.473  0.00  0.00     0.048 H 
BRANCH  52  55
ATOM     55  C23 non d ame     -34.835   7.694  25.468  0.00  0.00     0.259 C 
ATOM     56  O7  non d ame     -35.784   6.996  25.309  0.00  0.00    -0.265 OA
BRANCH  55  57
ATOM     57  O8  non d ame     -33.777   7.688  24.517  0.00  0.00    -0.317 OA
BRANCH  57  58
ATOM     58  C29 non d ame     -33.856   8.743  23.553  0.00  0.00     0.052 C 
ATOM     59  H47 non d ame     -34.334   8.305  22.677  0.00  0.00     0.082 H 
ATOM     60  H48 non d ame     -34.325   9.580  24.070  0.00  0.00     0.082 H 
BRANCH  58  61
ATOM     61  C35 non d ame     -32.408   9.152  23.170  0.00  0.00    -0.034 A 
ATOM     62  C30 non d ame     -31.710   8.423  22.213  0.00  0.00    -0.075 A 
ATOM     63  C31 non d ame     -30.409   8.790  21.869  0.00  0.00    -0.082 A 
ATOM     64  H49 non d ame     -32.179   7.564  21.733  0.00  0.00     0.084 H 
ATOM     65  C32 non d ame     -29.807   9.888  22.488  0.00  0.00    -0.083 A 
ATOM     66  H50 non d ame     -29.864   8.217  21.117  0.00  0.00     0.083 H 
ATOM     67  C33 non d ame     -30.507  10.610  23.444  0.00  0.00    -0.082 A 
ATOM     68  H51 non d ame     -28.791  10.182  22.223  0.00  0.00     0.083 H 
ATOM     69  C34 non d ame     -31.808  10.249  23.790  0.00  0.00    -0.075 A 
ATOM     70  H52 non d ame     -30.034  11.466  23.927  0.00  0.00     0.083 H 
ATOM     71  H53 non d ame     -32.351  10.822  24.541  0.00  0.00     0.084 H 
ENDBRANCH  58  61
ENDBRANCH  57  58
ENDBRANCH  55  57
ENDBRANCH  52  55
ENDBRANCH  49  52
ENDBRANCH  47  49
BRANCH  47  72
ATOM     72  C24 non d ame     -32.859  10.492  29.021  0.00  0.00    -0.039 C 
ATOM     73  H35 non d ame     -33.677   9.965  29.514  0.00  0.00     0.036 H 
ATOM     74  H36 non d ame     -31.843  10.104  29.087  0.00  0.00     0.036 H 
BRANCH  72  75
ATOM     75  C25 non d ame     -32.834  11.983  29.608  0.00  0.00    -0.001 C 
ATOM     76  C26 non d ame     -31.648  12.853  28.874  0.00  0.00    -0.035 C 
ATOM     77  C27 non d ame     -30.880  13.435  29.826  0.00  0.00     0.085 C 
ATOM     78  H38 non d ame     -30.956  12.185  28.362  0.00  0.00     0.036 H 
ATOM     79  H39 non d ame     -32.081  13.701  28.343  0.00  0.00     0.036 H 
ATOM     80  N5  non d ame     -31.232  12.779  31.139  0.00  0.00    -0.049 N 
ATOM     81  H40 non d ame     -29.852  13.181  29.567  0.00  0.00     0.075 H 
ATOM     82  H41 non d ame     -31.193  14.478  29.856  0.00  0.00     0.075 H 
ATOM     83  C28 non d ame     -32.612  11.981  30.881  0.00  0.00     0.193 C 
ATOM     84  H42 non d ame     -30.503  12.107  31.329  0.00  0.00     0.280 HD
ATOM     85  H43 non d ame     -31.412  13.527  31.794  0.00  0.00     0.280 HD
ATOM     86  H44 non d ame     -33.558  12.376  31.247  0.00  0.00     0.129 H 
ATOM     87  H37 non d ame     -33.827  12.429  29.644  0.00  0.00     0.046 H 
BRANCH  83  88
ATOM     88  O6  non d ame     -32.521  10.656  31.410  0.00  0.00    -0.369 OA
ATOM     89  H45 non d ame     -32.677  10.020  30.709  0.00  0.00     0.212 HD
ENDBRANCH  83  88
ENDBRANCH  72  75
ENDBRANCH  47  72
ENDBRANCH  45  47
ENDBRANCH   1  43
BRANCH   1  90
ATOM     90  C16 non d ame     -36.550  12.579  24.882  0.00  0.00    -0.035 C 
ATOM     91  H21 non d ame     -36.951  13.474  24.408  0.00  0.00     0.037 H 
ATOM     92  H22 non d ame     -35.761  12.010  24.392  0.00  0.00     0.037 H 
BRANCH  90  93
ATOM     93  C17 non d ame     -37.754  11.600  25.062  0.00  0.00    -0.059 C 
ATOM     94  H23 non d ame     -38.587  11.987  24.476  0.00  0.00     0.038 H 
BRANCH  93  95
ATOM     95  C18 non d ame     -37.429  10.164  24.539  0.00  0.00    -0.073 C 
ATOM     96  H24 non d ame     -36.466  10.173  24.028  0.00  0.00     0.028 H 
ATOM     97  H25 non d ame     -37.386   9.472  25.380  0.00  0.00     0.028 H 
ATOM     98  H26 non d ame     -38.206   9.845  23.845  0.00  0.00     0.028 H 
ENDBRANCH  93  95
BRANCH  93  99
ATOM     99  C19 non d ame     -38.209  11.555  26.524  0.00  0.00    -0.073 C 
ATOM    100  H27 non d ame     -39.268  11.299  26.568  0.00  0.00     0.028 H 
ATOM    101  H28 non d ame     -37.632  10.803  27.062  0.00  0.00     0.028 H 
ATOM    102  H29 non d ame     -38.051  12.531  26.983  0.00  0.00     0.028 H 
ENDBRANCH  93  99
ENDBRANCH  90  93
ENDBRANCH   1  90
TORSDOF 26
ENDMDL
MODEL 18
REMARK VINA RESULT:      -6.4      4.014      9.783
REMARK  26 active torsions:
REMARK  status: ('A' for Active; 'I' for Inactive)
REMARK    1  A    between atoms: C2_2  and  C3_3 
REMARK    2  A    between atoms: C4_6  and  C5_7 
REMARK       I    between atoms: C5_7  and  N2_9 
REMARK    3  A    between atoms: N2_9  and  C6_10 
REMARK    4  A    between atoms: C6_10  and  C7_11 
REMARK    5  A    between atoms: C6_10  and  C8_13 
REMARK       I    between atoms: C7_11  and  N3_14 
REMARK    6  A    between atoms: N3_14  and  C9_15 
REMARK    7  A    between atoms: C9_15  and  C10_16 
REMARK    8  A    between atoms: C9_15  and  C11_18 
REMARK       I    between atoms: C10_16  and  N4_21 
REMARK    9  A    between atoms: C11_18  and  C12_19 
REMARK   10  A    between atoms: C11_18  and  C13_20 
REMARK   11  A    between atoms: N4_21  and  C14_22 
REMARK   12  A    between atoms: C14_22  and  C15_23 
REMARK   13  A    between atoms: C14_22  and  C16_25 
REMARK       I    between atoms: C15_23  and  N6_40 
REMARK   14  A    between atoms: C16_25  and  C17_26 
REMARK   15  A    between atoms: C17_26  and  C18_27 
REMARK   16  A    between atoms: C17_26  and  C19_28 
REMARK   17  A    between atoms: C20_29  and  C21_30 
REMARK   18  A    between atoms: C20_29  and  C24_33 
REMARK   19  A    between atoms: C20_29  and  N6_40 
REMARK   20  A    between atoms: C21_30  and  C22_31 
REMARK   21  A    between atoms: C22_31  and  C23_32 
REMARK   22  A    between atoms: C23_32  and  O8_43 
REMARK   23  A    between atoms: C24_33  and  C25_34 
REMARK   24  A    between atoms: C28_38  and  O6_39 
REMARK   25  A    between atoms: C29_42  and  O8_43 
REMARK   26  A    between atoms: C29_42  and  C35_49 
ROOT
ATOM      1  C14 non d ame     -34.811   8.557  31.184  0.00  0.00     0.089 C 
ATOM      2  H20 non d ame     -33.929   8.846  31.756  0.00  0.00     0.087 H 
ENDROOT
BRANCH   1   3
ATOM      3  N4  non d ame     -34.733   9.226  29.894  0.00  0.00    -0.346 N 
ATOM      4  C10 non d ame     -33.617  10.199  29.606  0.00  0.00     0.241 C 
ATOM      5  O4  non d ame     -32.796  10.431  30.429  0.00  0.00    -0.271 OA
ATOM      6  H19 non d ame     -35.444   9.016  29.207  0.00  0.00     0.163 HD
BRANCH   4   7
ATOM      7  C9  non d ame     -33.549  10.877  28.262  0.00  0.00     0.092 C 
ATOM      8  H11 non d ame     -34.350  11.614  28.192  0.00  0.00     0.088 H 
BRANCH   7   9
ATOM      9  N3  non d ame     -32.281  11.601  28.143  0.00  0.00    -0.346 N 
ATOM     10  C7  non d ame     -32.277  13.041  28.074  0.00  0.00     0.240 C 
ATOM     11  O3  non d ame     -33.286  13.634  28.111  0.00  0.00    -0.271 OA
ATOM     12  H10 non d ame     -31.403  11.104  28.108  0.00  0.00     0.163 HD
BRANCH  10  13
ATOM     13  C6  non d ame     -30.923  13.806  27.944  0.00  0.00     0.086 C 
ATOM     14  H6  non d ame     -30.065  13.138  27.886  0.00  0.00     0.086 H 
BRANCH  13  15
ATOM     15  N2  non d ame     -30.934  14.576  26.710  0.00  0.00    -0.343 N 
ATOM     16  C5  non d ame     -31.003  13.877  25.425  0.00  0.00     0.273 C 
ATOM     17  O2  non d ame     -31.047  12.696  25.394  0.00  0.00    -0.266 OA
ATOM     18  H5  non d ame     -30.892  15.584  26.746  0.00  0.00     0.163 HD
BRANCH  16  19
ATOM     19  C4  non d ame     -31.017  14.677  24.113  0.00  0.00     0.154 A 
ATOM     20  C1  non d ame     -30.654  14.209  22.811  0.00  0.00    -0.017 A 
ATOM     21  C2  non d ame     -30.840  15.322  21.960  0.00  0.00     0.077 A 
ATOM     22  H1  non d ame     -30.309  13.216  22.526  0.00  0.00     0.091 H 
ATOM     23  O1  non d ame     -31.262  16.307  22.698  0.00  0.00    -0.218 OA
ATOM     24  N1  non d ame     -31.372  15.955  23.958  0.00  0.00    -0.123 NA
BRANCH  21  25
ATOM     25  C3  non d ame     -30.592  15.359  20.458  0.00  0.00    -0.029 C 
ATOM     26  H2  non d ame     -30.557  16.396  20.121  0.00  0.00     0.036 H 
ATOM     27  H3  non d ame     -29.643  14.873  20.233  0.00  0.00     0.036 H 
ATOM     28  H4  non d ame     -31.399  14.838  19.943  0.00  0.00     0.036 H 
ENDBRANCH  21  25
ENDBRANCH  16  19
ENDBRANCH  13  15
BRANCH  13  29
ATOM     29  C8  non d ame     -30.747  14.727  29.125  0.00  0.00    -0.049 C 
ATOM     30  H7  non d ame     -29.732  14.637  29.508  0.00  0.00     0.030 H 
ATOM     31  H8  non d ame     -30.927  15.756  28.812  0.00  0.00     0.030 H 
ATOM     32  H9  non d ame     -31.457  14.455  29.906  0.00  0.00     0.030 H 
ENDBRANCH  13  29
ENDBRANCH  10  13
ENDBRANCH   7   9
BRANCH   7  33
ATOM     33  C11 non d ame     -33.641   9.806  27.136  0.00  0.00    -0.033 C 
ATOM     34  H12 non d ame     -33.961   8.871  27.598  0.00  0.00     0.042 H 
BRANCH  33  35
ATOM     35  C12 non d ame     -34.711  10.193  26.068  0.00  0.00    -0.071 C 
ATOM     36  H13 non d ame     -34.226  10.702  25.236  0.00  0.00     0.028 H 
ATOM     37  H14 non d ame     -35.204   9.291  25.705  0.00  0.00     0.028 H 
ATOM     38  H15 non d ame     -35.450  10.856  26.518  0.00  0.00     0.028 H 
ENDBRANCH  33  35
BRANCH  33  39
ATOM     39  C13 non d ame     -32.245   9.566  26.478  0.00  0.00    -0.071 C 
ATOM     40  H16 non d ame     -32.223  10.029  25.491  0.00  0.00     0.028 H 
ATOM     41  H17 non d ame     -31.467  10.006  27.103  0.00  0.00     0.028 H 
ATOM     42  H18 non d ame     -32.068   8.495  26.381  0.00  0.00     0.028 H 
ENDBRANCH  33  39
ENDBRANCH   7  33
ENDBRANCH   4   7
ENDBRANCH   1   3
BRANCH   1  43
ATOM     43  C15 non d ame     -34.878   7.022  30.943  0.00  0.00     0.240 C 
ATOM     44  O5  non d ame     -35.207   6.299  31.828  0.00  0.00    -0.271 OA
ATOM     45  N6  non d ame     -34.543   6.453  29.607  0.00  0.00    -0.355 N 
ATOM     46  H46 non d ame     -34.268   7.058  28.847  0.00  0.00     0.162 HD
BRANCH  45  47
ATOM     47  C20 non d ame     -34.614   4.991  29.393  0.00  0.00     0.013 C 
ATOM     48  H30 non d ame     -34.848   4.524  30.350  0.00  0.00     0.072 H 
BRANCH  47  49
ATOM     49  C21 non d ame     -33.278   4.495  28.888  0.00  0.00    -0.038 C 
ATOM     50  H31 non d ame     -32.554   5.263  29.165  0.00  0.00     0.036 H 
ATOM     51  H32 non d ame     -33.174   3.483  29.278  0.00  0.00     0.036 H 
BRANCH  49  52
ATOM     52  C22 non d ame     -33.223   4.379  27.350  0.00  0.00     0.018 C 
ATOM     53  H33 non d ame     -32.428   3.667  27.136  0.00  0.00     0.048 H 
ATOM     54  H34 non d ame     -34.246   4.164  27.034  0.00  0.00     0.048 H 
BRANCH  52  55
ATOM     55  C23 non d ame     -32.823   5.699  26.636  0.00  0.00     0.259 C 
ATOM     56  O7  non d ame     -31.809   6.252  26.914  0.00  0.00    -0.265 OA
BRANCH  55  57
ATOM     57  O8  non d ame     -33.691   6.250  25.652  0.00  0.00    -0.317 OA
BRANCH  57  58
ATOM     58  C29 non d ame     -33.404   5.821  24.318  0.00  0.00     0.052 C 
ATOM     59  H47 non d ame     -32.798   4.922  24.422  0.00  0.00     0.082 H 
ATOM     60  H48 non d ame     -34.367   5.774  23.809  0.00  0.00     0.082 H 
BRANCH  58  61
ATOM     61  C35 non d ame     -32.542   6.918  23.636  0.00  0.00    -0.034 A 
ATOM     62  C30 non d ame     -33.121   8.127  23.265  0.00  0.00    -0.075 A 
ATOM     63  C31 non d ame     -32.347   9.113  22.653  0.00  0.00    -0.082 A 
ATOM     64  H49 non d ame     -34.180   8.303  23.453  0.00  0.00     0.084 H 
ATOM     65  C32 non d ame     -30.990   8.883  22.410  0.00  0.00    -0.083 A 
ATOM     66  H50 non d ame     -32.803  10.060  22.364  0.00  0.00     0.083 H 
ATOM     67  C33 non d ame     -30.418   7.674  22.779  0.00  0.00    -0.082 A 
ATOM     68  H51 non d ame     -30.379   9.649  21.932  0.00  0.00     0.083 H 
ATOM     69  C34 non d ame     -31.187   6.687  23.393  0.00  0.00    -0.075 A 
ATOM     70  H52 non d ame     -29.360   7.497  22.586  0.00  0.00     0.083 H 
ATOM     71  H53 non d ame     -30.730   5.740  23.681  0.00  0.00     0.084 H 
ENDBRANCH  58  61
ENDBRANCH  57  58
ENDBRANCH  55  57
ENDBRANCH  52  55
ENDBRANCH  49  52
ENDBRANCH  47  49
BRANCH  47  72
ATOM     72  C24 non d ame     -35.698   4.671  28.367  0.00  0.00    -0.039 C 
ATOM     73  H35 non d ame     -35.214   4.767  27.394  0.00  0.00     0.036 H 
ATOM     74  H36 non d ame     -36.115   3.712  28.675  0.00  0.00     0.036 H 
BRANCH  72  75
ATOM     75  C25 non d ame     -36.891   5.740  28.411  0.00  0.00    -0.001 C 
ATOM     76  C26 non d ame     -38.160   5.127  29.257  0.00  0.00    -0.035 C 
ATOM     77  C27 non d ame     -39.284   5.257  28.512  0.00  0.00     0.085 C 
ATOM     78  H38 non d ame     -38.050   4.048  29.368  0.00  0.00     0.036 H 
ATOM     79  H39 non d ame     -38.361   5.747  30.131  0.00  0.00     0.036 H 
ATOM     80  N5  non d ame     -38.846   5.600  27.109  0.00  0.00    -0.049 N 
ATOM     81  H40 non d ame     -39.747   4.269  28.508  0.00  0.00     0.075 H 
ATOM     82  H41 non d ame     -39.818   6.107  28.935  0.00  0.00     0.075 H 
ATOM     83  C28 non d ame     -37.296   6.037  27.221  0.00  0.00     0.193 C 
ATOM     84  H42 non d ame     -38.902   4.745  26.574  0.00  0.00     0.280 HD
ATOM     85  H43 non d ame     -39.389   6.405  26.829  0.00  0.00     0.280 HD
ATOM     86  H44 non d ame     -37.012   7.087  27.172  0.00  0.00     0.129 H 
ATOM     87  H37 non d ame     -36.543   6.735  28.689  0.00  0.00     0.046 H 
BRANCH  83  88
ATOM     88  O6  non d ame     -36.526   5.384  26.210  0.00  0.00    -0.369 OA
ATOM     89  H45 non d ame     -36.774   4.458  26.166  0.00  0.00     0.212 HD
ENDBRANCH  83  88
ENDBRANCH  72  75
ENDBRANCH  47  72
ENDBRANCH  45  47
ENDBRANCH   1  43
BRANCH   1  90
ATOM     90  C16 non d ame     -36.067   9.017  31.906  0.00  0.00    -0.035 C 
ATOM     91  H21 non d ame     -36.309   8.217  32.604  0.00  0.00     0.037 H 
ATOM     92  H22 non d ame     -35.836  10.014  32.280  0.00  0.00     0.037 H 
BRANCH  90  93
ATOM     93  C17 non d ame     -37.307   9.173  30.969  0.00  0.00    -0.059 C 
ATOM     94  H23 non d ame     -36.985   8.948  29.953  0.00  0.00     0.038 H 
BRANCH  93  95
ATOM     95  C18 non d ame     -38.453   8.178  31.339  0.00  0.00    -0.073 C 
ATOM     96  H24 non d ame     -38.716   7.585  30.463  0.00  0.00     0.028 H 
ATOM     97  H25 non d ame     -38.116   7.516  32.137  0.00  0.00     0.028 H 
ATOM     98  H26 non d ame     -39.326   8.737  31.675  0.00  0.00     0.028 H 
ENDBRANCH  93  95
BRANCH  93  99
ATOM     99  C19 non d ame     -37.817  10.617  30.974  0.00  0.00    -0.073 C 
ATOM    100  H27 non d ame     -38.445  10.784  30.098  0.00  0.00     0.028 H 
ATOM    101  H28 non d ame     -38.402  10.793  31.878  0.00  0.00     0.028 H 
ATOM    102  H29 non d ame     -36.970  11.302  30.951  0.00  0.00     0.028 H 
ENDBRANCH  93  99
ENDBRANCH  90  93
ENDBRANCH   1  90
TORSDOF 26
ENDMDL
MODEL 19
REMARK VINA RESULT:      -6.3      2.290      6.792
REMARK  26 active torsions:
REMARK  status: ('A' for Active; 'I' for Inactive)
REMARK    1  A    between atoms: C2_2  and  C3_3 
REMARK    2  A    between atoms: C4_6  and  C5_7 
REMARK       I    between atoms: C5_7  and  N2_9 
REMARK    3  A    between atoms: N2_9  and  C6_10 
REMARK    4  A    between atoms: C6_10  and  C7_11 
REMARK    5  A    between atoms: C6_10  and  C8_13 
REMARK       I    between atoms: C7_11  and  N3_14 
REMARK    6  A    between atoms: N3_14  and  C9_15 
REMARK    7  A    between atoms: C9_15  and  C10_16 
REMARK    8  A    between atoms: C9_15  and  C11_18 
REMARK       I    between atoms: C10_16  and  N4_21 
REMARK    9  A    between atoms: C11_18  and  C12_19 
REMARK   10  A    between atoms: C11_18  and  C13_20 
REMARK   11  A    between atoms: N4_21  and  C14_22 
REMARK   12  A    between atoms: C14_22  and  C15_23 
REMARK   13  A    between atoms: C14_22  and  C16_25 
REMARK       I    between atoms: C15_23  and  N6_40 
REMARK   14  A    between atoms: C16_25  and  C17_26 
REMARK   15  A    between atoms: C17_26  and  C18_27 
REMARK   16  A    between atoms: C17_26  and  C19_28 
REMARK   17  A    between atoms: C20_29  and  C21_30 
REMARK   18  A    between atoms: C20_29  and  C24_33 
REMARK   19  A    between atoms: C20_29  and  N6_40 
REMARK   20  A    between atoms: C21_30  and  C22_31 
REMARK   21  A    between atoms: C22_31  and  C23_32 
REMARK   22  A    between atoms: C23_32  and  O8_43 
REMARK   23  A    between atoms: C24_33  and  C25_34 
REMARK   24  A    between atoms: C28_38  and  O6_39 
REMARK   25  A    between atoms: C29_42  and  O8_43 
REMARK   26  A    between atoms: C29_42  and  C35_49 
ROOT
ATOM      1  C14 non d ame     -35.242  10.381  24.857  0.00  0.00     0.089 C 
ATOM      2  H20 non d ame     -35.248  10.860  23.878  0.00  0.00     0.087 H 
ENDROOT
BRANCH   1   3
ATOM      3  N4  non d ame     -34.363   9.225  24.773  0.00  0.00    -0.346 N 
ATOM      4  C10 non d ame     -34.009   8.632  23.432  0.00  0.00     0.241 C 
ATOM      5  O4  non d ame     -34.448   9.100  22.435  0.00  0.00    -0.271 OA
ATOM      6  H19 non d ame     -34.002   8.839  25.635  0.00  0.00     0.163 HD
BRANCH   4   7
ATOM      7  C9  non d ame     -33.093   7.438  23.364  0.00  0.00     0.092 C 
ATOM      8  H11 non d ame     -33.322   6.861  22.468  0.00  0.00     0.088 H 
BRANCH   7   9
ATOM      9  N3  non d ame     -31.705   7.893  23.245  0.00  0.00    -0.346 N 
ATOM     10  C7  non d ame     -31.101   8.029  21.943  0.00  0.00     0.240 C 
ATOM     11  O3  non d ame     -31.717   7.774  20.980  0.00  0.00    -0.271 OA
ATOM     12  H10 non d ame     -31.161   8.114  24.066  0.00  0.00     0.163 HD
BRANCH  10  13
ATOM     13  C6  non d ame     -29.621   8.510  21.822  0.00  0.00     0.086 C 
ATOM     14  H6  non d ame     -29.115   8.101  20.948  0.00  0.00     0.086 H 
BRANCH  13  15
ATOM     15  N2  non d ame     -29.608   9.956  21.670  0.00  0.00    -0.343 N 
ATOM     16  C5  non d ame     -30.012  10.804  22.794  0.00  0.00     0.273 C 
ATOM     17  O2  non d ame     -30.349  10.312  23.815  0.00  0.00    -0.266 OA
ATOM     18  H5  non d ame     -29.323  10.367  20.792  0.00  0.00     0.163 HD
BRANCH  16  19
ATOM     19  C4  non d ame     -30.002  12.333  22.648  0.00  0.00     0.154 A 
ATOM     20  C1  non d ame     -30.747  13.281  23.418  0.00  0.00    -0.017 A 
ATOM     21  C2  non d ame     -30.385  14.542  22.893  0.00  0.00     0.077 A 
ATOM     22  H1  non d ame     -31.445  13.085  24.232  0.00  0.00     0.091 H 
ATOM     23  O1  non d ame     -29.528  14.331  21.936  0.00  0.00    -0.218 OA
ATOM     24  N1  non d ame     -29.290  13.050  21.774  0.00  0.00    -0.123 NA
BRANCH  21  25
ATOM     25  C3  non d ame     -30.900  15.895  23.362  0.00  0.00    -0.029 C 
ATOM     26  H2  non d ame     -30.744  15.991  24.437  0.00  0.00     0.036 H 
ATOM     27  H3  non d ame     -30.360  16.689  22.846  0.00  0.00     0.036 H 
ATOM     28  H4  non d ame     -31.963  15.976  23.141  0.00  0.00     0.036 H 
ENDBRANCH  21  25
ENDBRANCH  16  19
ENDBRANCH  13  15
BRANCH  13  29
ATOM     29  C8  non d ame     -28.858   8.114  23.061  0.00  0.00    -0.049 C 
ATOM     30  H7  non d ame     -28.124   8.884  23.297  0.00  0.00     0.030 H 
ATOM     31  H8  non d ame     -29.552   8.005  23.895  0.00  0.00     0.030 H 
ATOM     32  H9  non d ame     -28.348   7.167  22.886  0.00  0.00     0.030 H 
ENDBRANCH  13  29
ENDBRANCH  10  13
ENDBRANCH   7   9
BRANCH   7  33
ATOM     33  C11 non d ame     -33.249   6.591  24.661  0.00  0.00    -0.033 C 
ATOM     34  H12 non d ame     -33.701   7.231  25.419  0.00  0.00     0.042 H 
BRANCH  33  35
ATOM     35  C12 non d ame     -34.208   5.380  24.437  0.00  0.00    -0.071 C 
ATOM     36  H13 non d ame     -33.751   4.679  23.738  0.00  0.00     0.028 H 
ATOM     37  H14 non d ame     -34.387   4.879  25.388  0.00  0.00     0.028 H 
ATOM     38  H15 non d ame     -35.154   5.735  24.029  0.00  0.00     0.028 H 
ENDBRANCH  33  35
BRANCH  33  39
ATOM     39  C13 non d ame     -31.857   6.121  25.193  0.00  0.00    -0.071 C 
ATOM     40  H16 non d ame     -32.000   5.384  25.984  0.00  0.00     0.028 H 
ATOM     41  H17 non d ame     -31.288   5.674  24.378  0.00  0.00     0.028 H 
ATOM     42  H18 non d ame     -31.312   6.977  25.589  0.00  0.00     0.028 H 
ENDBRANCH  33  39
ENDBRANCH   7  33
ENDBRANCH   4   7
ENDBRANCH   1   3
BRANCH   1  43
ATOM     43  C15 non d ame     -34.710  11.328  25.971  0.00  0.00     0.240 C 
ATOM     44  O5  non d ame     -35.271  11.383  27.017  0.00  0.00    -0.271 OA
ATOM     45  N6  non d ame     -33.496  12.160  25.736  0.00  0.00    -0.355 N 
ATOM     46  H46 non d ame     -33.009  12.118  24.852  0.00  0.00     0.162 HD
BRANCH  45  47
ATOM     47  C20 non d ame     -33.001  13.055  26.805  0.00  0.00     0.013 C 
ATOM     48  H30 non d ame     -33.525  12.797  27.726  0.00  0.00     0.072 H 
BRANCH  47  49
ATOM     49  C21 non d ame     -33.292  14.490  26.430  0.00  0.00    -0.038 C 
ATOM     50  H31 non d ame     -32.323  14.935  26.197  0.00  0.00     0.036 H 
ATOM     51  H32 non d ame     -34.068  14.444  25.667  0.00  0.00     0.036 H 
BRANCH  49  52
ATOM     52  C22 non d ame     -33.877  15.309  27.600  0.00  0.00     0.018 C 
ATOM     53  H33 non d ame     -34.667  15.921  27.166  0.00  0.00     0.048 H 
ATOM     54  H34 non d ame     -34.117  14.582  28.378  0.00  0.00     0.048 H 
BRANCH  52  55
ATOM     55  C23 non d ame     -32.867  16.301  28.238  0.00  0.00     0.259 C 
ATOM     56  O7  non d ame     -32.483  16.140  29.351  0.00  0.00    -0.265 OA
BRANCH  55  57
ATOM     57  O8  non d ame     -32.414  17.418  27.482  0.00  0.00    -0.317 OA
BRANCH  57  58
ATOM     58  C29 non d ame     -32.771  18.685  28.044  0.00  0.00     0.052 C 
ATOM     59  H47 non d ame     -32.976  18.492  29.097  0.00  0.00     0.082 H 
ATOM     60  H48 non d ame     -31.973  19.370  27.759  0.00  0.00     0.082 H 
BRANCH  58  61
ATOM     61  C35 non d ame     -34.086  19.156  27.366  0.00  0.00    -0.034 A 
ATOM     62  C30 non d ame     -35.078  19.770  28.124  0.00  0.00    -0.075 A 
ATOM     63  C31 non d ame     -36.260  20.193  27.515  0.00  0.00    -0.082 A 
ATOM     64  H49 non d ame     -34.932  19.919  29.193  0.00  0.00     0.084 H 
ATOM     65  C32 non d ame     -36.447  19.998  26.145  0.00  0.00    -0.083 A 
ATOM     66  H50 non d ame     -37.035  20.675  28.112  0.00  0.00     0.083 H 
ATOM     67  C33 non d ame     -35.455  19.382  25.394  0.00  0.00    -0.082 A 
ATOM     68  H51 non d ame     -37.367  20.327  25.661  0.00  0.00     0.083 H 
ATOM     69  C34 non d ame     -34.273  18.959  25.997  0.00  0.00    -0.075 A 
ATOM     70  H52 non d ame     -35.605  19.229  24.324  0.00  0.00     0.083 H 
ATOM     71  H53 non d ame     -33.498  18.478  25.400  0.00  0.00     0.084 H 
ENDBRANCH  58  61
ENDBRANCH  57  58
ENDBRANCH  55  57
ENDBRANCH  52  55
ENDBRANCH  49  52
ENDBRANCH  47  49
BRANCH  47  72
ATOM     72  C24 non d ame     -31.496  12.867  26.981  0.00  0.00    -0.039 C 
ATOM     73  H35 non d ame     -31.213  12.103  26.255  0.00  0.00     0.036 H 
ATOM     74  H36 non d ame     -31.070  13.868  26.913  0.00  0.00     0.036 H 
BRANCH  72  75
ATOM     75  C25 non d ame     -31.135  12.297  28.433  0.00  0.00    -0.001 C 
ATOM     76  C26 non d ame     -32.515  11.957  29.260  0.00  0.00    -0.035 C 
ATOM     77  C27 non d ame     -32.455  12.554  30.474  0.00  0.00     0.085 C 
ATOM     78  H38 non d ame     -33.367  12.440  28.780  0.00  0.00     0.036 H 
ATOM     79  H39 non d ame     -32.555  10.895  29.500  0.00  0.00     0.036 H 
ATOM     80  N5  non d ame     -31.311  13.537  30.426  0.00  0.00    -0.049 N 
ATOM     81  H40 non d ame     -33.392  13.104  30.575  0.00  0.00     0.075 H 
ATOM     82  H41 non d ame     -32.211  11.759  31.178  0.00  0.00     0.075 H 
ATOM     83  C28 non d ame     -30.450  13.154  29.115  0.00  0.00     0.193 C 
ATOM     84  H42 non d ame     -31.721  14.449  30.286  0.00  0.00     0.280 HD
ATOM     85  H43 non d ame     -30.746  13.359  31.245  0.00  0.00     0.280 HD
ATOM     86  H44 non d ame     -29.505  12.622  29.209  0.00  0.00     0.129 H 
ATOM     87  H37 non d ame     -30.375  11.517  28.394  0.00  0.00     0.046 H 
BRANCH  83  88
ATOM     88  O6  non d ame     -30.153  14.330  28.360  0.00  0.00    -0.369 OA
ATOM     89  H45 non d ame     -29.846  14.080  27.485  0.00  0.00     0.212 HD
ENDBRANCH  83  88
ENDBRANCH  72  75
ENDBRANCH  47  72
ENDBRANCH  45  47
ENDBRANCH   1  43
BRANCH   1  90
ATOM     90  C16 non d ame     -36.645   9.913  25.211  0.00  0.00    -0.035 C 
ATOM     91  H21 non d ame     -36.959  10.544  26.042  0.00  0.00     0.037 H 
ATOM     92  H22 non d ame     -37.200   9.931  24.273  0.00  0.00     0.037 H 
BRANCH  90  93
ATOM     93  C17 non d ame     -36.702   8.441  25.730  0.00  0.00    -0.059 C 
ATOM     94  H23 non d ame     -35.690   8.040  25.701  0.00  0.00     0.038 H 
BRANCH  93  95
ATOM     95  C18 non d ame     -37.207   8.356  27.206  0.00  0.00    -0.073 C 
ATOM     96  H24 non d ame     -36.765   7.487  27.692  0.00  0.00     0.028 H 
ATOM     97  H25 non d ame     -36.915   9.259  27.742  0.00  0.00     0.028 H 
ATOM     98  H26 non d ame     -38.293   8.265  27.214  0.00  0.00     0.028 H 
ENDBRANCH  93  95
BRANCH  93  99
ATOM     99  C19 non d ame     -37.562   7.571  24.810  0.00  0.00    -0.073 C 
ATOM    100  H27 non d ame     -38.001   6.755  25.386  0.00  0.00     0.028 H 
ATOM    101  H28 non d ame     -38.358   8.176  24.376  0.00  0.00     0.028 H 
ATOM    102  H29 non d ame     -36.943   7.162  24.013  0.00  0.00     0.028 H 
ENDBRANCH  93  99
ENDBRANCH  90  93
ENDBRANCH   1  90
TORSDOF 26
ENDMDL
MODEL 20
REMARK VINA RESULT:      -6.2      3.570      8.853
REMARK  26 active torsions:
REMARK  status: ('A' for Active; 'I' for Inactive)
REMARK    1  A    between atoms: C2_2  and  C3_3 
REMARK    2  A    between atoms: C4_6  and  C5_7 
REMARK       I    between atoms: C5_7  and  N2_9 
REMARK    3  A    between atoms: N2_9  and  C6_10 
REMARK    4  A    between atoms: C6_10  and  C7_11 
REMARK    5  A    between atoms: C6_10  and  C8_13 
REMARK       I    between atoms: C7_11  and  N3_14 
REMARK    6  A    between atoms: N3_14  and  C9_15 
REMARK    7  A    between atoms: C9_15  and  C10_16 
REMARK    8  A    between atoms: C9_15  and  C11_18 
REMARK       I    between atoms: C10_16  and  N4_21 
REMARK    9  A    between atoms: C11_18  and  C12_19 
REMARK   10  A    between atoms: C11_18  and  C13_20 
REMARK   11  A    between atoms: N4_21  and  C14_22 
REMARK   12  A    between atoms: C14_22  and  C15_23 
REMARK   13  A    between atoms: C14_22  and  C16_25 
REMARK       I    between atoms: C15_23  and  N6_40 
REMARK   14  A    between atoms: C16_25  and  C17_26 
REMARK   15  A    between atoms: C17_26  and  C18_27 
REMARK   16  A    between atoms: C17_26  and  C19_28 
REMARK   17  A    between atoms: C20_29  and  C21_30 
REMARK   18  A    between atoms: C20_29  and  C24_33 
REMARK   19  A    between atoms: C20_29  and  N6_40 
REMARK   20  A    between atoms: C21_30  and  C22_31 
REMARK   21  A    between atoms: C22_31  and  C23_32 
REMARK   22  A    between atoms: C23_32  and  O8_43 
REMARK   23  A    between atoms: C24_33  and  C25_34 
REMARK   24  A    between atoms: C28_38  and  O6_39 
REMARK   25  A    between atoms: C29_42  and  O8_43 
REMARK   26  A    between atoms: C29_42  and  C35_49 
ROOT
ATOM      1  C14 non d ame     -34.948   8.688  27.359  0.00  0.00     0.089 C 
ATOM      2  H20 non d ame     -34.774   8.054  28.229  0.00  0.00     0.087 H 
ENDROOT
BRANCH   1   3
ATOM      3  N4  non d ame     -33.921   9.719  27.358  0.00  0.00    -0.346 N 
ATOM      4  C10 non d ame     -33.236  10.114  28.643  0.00  0.00     0.241 C 
ATOM      5  O4  non d ame     -33.531   9.590  29.665  0.00  0.00    -0.271 OA
ATOM      6  H19 non d ame     -33.686  10.154  26.477  0.00  0.00     0.163 HD
BRANCH   4   7
ATOM      7  C9  non d ame     -32.171  11.179  28.621  0.00  0.00     0.092 C 
ATOM      8  H11 non d ame     -31.216  10.726  28.355  0.00  0.00     0.088 H 
BRANCH   7   9
ATOM      9  N3  non d ame     -32.487  12.166  27.585  0.00  0.00    -0.346 N 
ATOM     10  C7  non d ame     -31.681  12.240  26.391  0.00  0.00     0.240 C 
ATOM     11  O3  non d ame     -30.774  11.514  26.249  0.00  0.00    -0.271 OA
ATOM     12  H10 non d ame     -33.265  12.800  27.694  0.00  0.00     0.163 HD
BRANCH  10  13
ATOM     13  C6  non d ame     -32.020  13.295  25.292  0.00  0.00     0.086 C 
ATOM     14  H6  non d ame     -32.981  13.109  24.812  0.00  0.00     0.086 H 
BRANCH  13  15
ATOM     15  N2  non d ame     -32.112  14.607  25.912  0.00  0.00    -0.343 N 
ATOM     16  C5  non d ame     -33.392  15.053  26.469  0.00  0.00     0.273 C 
ATOM     17  O2  non d ame     -34.340  14.351  26.412  0.00  0.00    -0.266 OA
ATOM     18  H5  non d ame     -31.298  15.202  25.953  0.00  0.00     0.163 HD
BRANCH  16  19
ATOM     19  C4  non d ame     -33.503  16.437  27.128  0.00  0.00     0.154 A 
ATOM     20  C1  non d ame     -32.774  17.619  26.785  0.00  0.00    -0.017 A 
ATOM     21  C2  non d ame     -33.240  18.607  27.681  0.00  0.00     0.077 A 
ATOM     22  H1  non d ame     -32.021  17.742  26.007  0.00  0.00     0.091 H 
ATOM     23  O1  non d ame     -34.134  18.048  28.443  0.00  0.00    -0.218 OA
ATOM     24  N1  non d ame     -34.304  16.782  28.140  0.00  0.00    -0.123 NA
BRANCH  21  25
ATOM     25  C3  non d ame     -32.781  20.058  27.741  0.00  0.00    -0.029 C 
ATOM     26  H2  non d ame     -32.382  20.354  26.771  0.00  0.00     0.036 H 
ATOM     27  H3  non d ame     -33.628  20.696  27.994  0.00  0.00     0.036 H 
ATOM     28  H4  non d ame     -32.008  20.164  28.500  0.00  0.00     0.036 H 
ENDBRANCH  21  25
ENDBRANCH  16  19
ENDBRANCH  13  15
BRANCH  13  29
ATOM     29  C8  non d ame     -30.940  13.295  24.241  0.00  0.00    -0.049 C 
ATOM     30  H7  non d ame     -30.649  12.269  24.018  0.00  0.00     0.030 H 
ATOM     31  H8  non d ame     -31.316  13.771  23.335  0.00  0.00     0.030 H 
ATOM     32  H9  non d ame     -30.075  13.847  24.609  0.00  0.00     0.030 H 
ENDBRANCH  13  29
ENDBRANCH  10  13
ENDBRANCH   7   9
BRANCH   7  33
ATOM     33  C11 non d ame     -32.116  11.885  30.007  0.00  0.00    -0.033 C 
ATOM     34  H12 non d ame     -32.796  11.353  30.674  0.00  0.00     0.042 H 
BRANCH  33  35
ATOM     35  C12 non d ame     -30.688  11.805  30.632  0.00  0.00    -0.071 C 
ATOM     36  H13 non d ame     -30.188  10.903  30.279  0.00  0.00     0.028 H 
ATOM     37  H14 non d ame     -30.112  12.680  30.333  0.00  0.00     0.028 H 
ATOM     38  H15 non d ame     -30.768  11.774  31.718  0.00  0.00     0.028 H 
ENDBRANCH  33  35
BRANCH  33  39
ATOM     39  C13 non d ame     -32.606  13.365  29.901  0.00  0.00    -0.071 C 
ATOM     40  H16 non d ame     -33.587  13.391  29.426  0.00  0.00     0.028 H 
ATOM     41  H17 non d ame     -32.673  13.799  30.899  0.00  0.00     0.028 H 
ATOM     42  H18 non d ame     -31.898  13.940  29.304  0.00  0.00     0.028 H 
ENDBRANCH  33  39
ENDBRANCH   7  33
ENDBRANCH   4   7
ENDBRANCH   1   3
BRANCH   1  43
ATOM     43  C15 non d ame     -34.855   7.894  26.025  0.00  0.00     0.240 C 
ATOM     44  O5  non d ame     -35.848   7.528  25.485  0.00  0.00    -0.271 OA
ATOM     45  N6  non d ame     -33.528   7.599  25.415  0.00  0.00    -0.355 N 
ATOM     46  H46 non d ame     -32.677   7.909  25.863  0.00  0.00     0.162 HD
BRANCH  45  47
ATOM     47  C20 non d ame     -33.455   6.844  24.145  0.00  0.00     0.013 C 
ATOM     48  H30 non d ame     -34.466   6.529  23.884  0.00  0.00     0.072 H 
BRANCH  47  49
ATOM     49  C21 non d ame     -32.568   5.634  24.331  0.00  0.00    -0.038 C 
ATOM     50  H31 non d ame     -31.948   5.582  23.435  0.00  0.00     0.036 H 
ATOM     51  H32 non d ame     -32.104   5.758  25.309  0.00  0.00     0.036 H 
BRANCH  49  52
ATOM     52  C22 non d ame     -33.363   4.312  24.389  0.00  0.00     0.018 C 
ATOM     53  H33 non d ame     -34.327   4.526  23.930  0.00  0.00     0.048 H 
ATOM     54  H34 non d ame     -32.708   3.556  23.952  0.00  0.00     0.048 H 
BRANCH  52  55
ATOM     55  C23 non d ame     -33.672   3.828  25.832  0.00  0.00     0.259 C 
ATOM     56  O7  non d ame     -33.396   2.723  26.171  0.00  0.00    -0.265 OA
BRANCH  55  57
ATOM     57  O8  non d ame     -34.303   4.719  26.745  0.00  0.00    -0.317 OA
BRANCH  57  58
ATOM     58  C29 non d ame     -35.660   4.379  27.045  0.00  0.00     0.052 C 
ATOM     59  H47 non d ame     -36.264   4.894  26.299  0.00  0.00     0.082 H 
ATOM     60  H48 non d ame     -35.684   3.291  27.110  0.00  0.00     0.082 H 
BRANCH  58  61
ATOM     61  C35 non d ame     -36.003   4.961  28.442  0.00  0.00    -0.034 A 
ATOM     62  C30 non d ame     -37.325   5.007  28.872  0.00  0.00    -0.075 A 
ATOM     63  C31 non d ame     -37.633   5.531  30.127  0.00  0.00    -0.082 A 
ATOM     64  H49 non d ame     -38.120   4.635  28.226  0.00  0.00     0.084 H 
ATOM     65  C32 non d ame     -36.613   6.012  30.952  0.00  0.00    -0.083 A 
ATOM     66  H50 non d ame     -38.671   5.565  30.462  0.00  0.00     0.083 H 
ATOM     67  C33 non d ame     -35.296   5.966  30.518  0.00  0.00    -0.082 A 
ATOM     68  H51 non d ame     -36.846   6.422  31.935  0.00  0.00     0.083 H 
ATOM     69  C34 non d ame     -34.983   5.442  29.265  0.00  0.00    -0.075 A 
ATOM     70  H52 non d ame     -34.502   6.344  31.163  0.00  0.00     0.083 H 
ATOM     71  H53 non d ame     -33.945   5.409  28.932  0.00  0.00     0.084 H 
ENDBRANCH  58  61
ENDBRANCH  57  58
ENDBRANCH  55  57
ENDBRANCH  52  55
ENDBRANCH  49  52
ENDBRANCH  47  49
BRANCH  47  72
ATOM     72  C24 non d ame     -32.879   7.735  23.046  0.00  0.00    -0.039 C 
ATOM     73  H35 non d ame     -32.995   7.168  22.122  0.00  0.00     0.036 H 
ATOM     74  H36 non d ame     -33.378   8.697  23.162  0.00  0.00     0.036 H 
BRANCH  72  75
ATOM     75  C25 non d ame     -31.310   7.989  23.252  0.00  0.00    -0.001 C 
ATOM     76  C26 non d ame     -31.027   9.595  23.463  0.00  0.00    -0.035 C 
ATOM     77  C27 non d ame     -30.056   9.984  22.603  0.00  0.00     0.085 C 
ATOM     78  H38 non d ame     -31.895  10.173  23.146  0.00  0.00     0.036 H 
ATOM     79  H39 non d ame     -30.584   9.770  24.443  0.00  0.00     0.036 H 
ATOM     80  N5  non d ame     -29.882   8.869  21.600  0.00  0.00    -0.049 N 
ATOM     81  H40 non d ame     -30.453  10.862  22.092  0.00  0.00     0.075 H 
ATOM     82  H41 non d ame     -29.150  10.066  23.203  0.00  0.00     0.075 H 
ATOM     83  C28 non d ame     -30.633   7.585  22.228  0.00  0.00     0.193 C 
ATOM     84  H42 non d ame     -30.375   9.154  20.766  0.00  0.00     0.280 HD
ATOM     85  H43 non d ame     -28.892   8.673  21.559  0.00  0.00     0.280 HD
ATOM     86  H44 non d ame     -30.062   6.774  22.677  0.00  0.00     0.129 H 
ATOM     87  H37 non d ame     -30.873   7.308  23.981  0.00  0.00     0.046 H 
BRANCH  83  88
ATOM     88  O6  non d ame     -31.464   6.969  21.242  0.00  0.00    -0.369 OA
ATOM     89  H45 non d ame     -31.740   6.104  21.552  0.00  0.00     0.212 HD
ENDBRANCH  83  88
ENDBRANCH  72  75
ENDBRANCH  47  72
ENDBRANCH  45  47
ENDBRANCH   1  43
BRANCH   1  90
ATOM     90  C16 non d ame     -36.313   9.348  27.468  0.00  0.00    -0.035 C 
ATOM     91  H21 non d ame     -36.111  10.391  27.711  0.00  0.00     0.037 H 
ATOM     92  H22 non d ame     -36.830   9.095  26.543  0.00  0.00     0.037 H 
BRANCH  90  93
ATOM     93  C17 non d ame     -37.190   8.786  28.632  0.00  0.00    -0.059 C 
ATOM     94  H23 non d ame     -36.746   7.846  28.958  0.00  0.00     0.038 H 
BRANCH  93  95
ATOM     95  C18 non d ame     -37.225   9.750  29.861  0.00  0.00    -0.073 C 
ATOM     96  H24 non d ame     -36.219   9.859  30.266  0.00  0.00     0.028 H 
ATOM     97  H25 non d ame     -37.597  10.726  29.547  0.00  0.00     0.028 H 
ATOM     98  H26 non d ame     -37.883   9.339  30.626  0.00  0.00     0.028 H 
ENDBRANCH  93  95
BRANCH  93  99
ATOM     99  C19 non d ame     -38.608   8.474  28.145  0.00  0.00    -0.073 C 
ATOM    100  H27 non d ame     -39.208   8.112  28.981  0.00  0.00     0.028 H 
ATOM    101  H28 non d ame     -39.061   9.378  27.739  0.00  0.00     0.028 H 
ATOM    102  H29 non d ame     -38.566   7.710  27.369  0.00  0.00     0.028 H 
ENDBRANCH  93  99
ENDBRANCH  90  93
ENDBRANCH   1  90
TORSDOF 26
ENDMDL
