MODEL 1
REMARK VINA RESULT:      -7.2      0.000      0.000
REMARK  26 active torsions:
REMARK  status: ('A' for Active; 'I' for Inactive)
REMARK    1  A    between atoms: C2_2  and  C3_3 
REMARK    2  A    between atoms: C4_6  and  C5_7 
REMARK       I    between atoms: C5_7  and  N2_9 
REMARK    3  A    between atoms: N2_9  and  C6_10 
REMARK    4  A    between atoms: C6_10  and  C7_11 
REMARK    5  A    between atoms: C6_10  and  C8_13 
REMARK       I    between atoms: C7_11  and  N3_14 
REMARK    6  A    between atoms: N3_14  and  C9_15 
REMARK    7  A    between atoms: C9_15  and  C10_16 
REMARK    8  A    between atoms: C9_15  and  C11_18 
REMARK       I    between atoms: C10_16  and  N4_21 
REMARK    9  A    between atoms: C11_18  and  C12_19 
REMARK   10  A    between atoms: C11_18  and  C13_20 
REMARK   11  A    between atoms: N4_21  and  C14_22 
REMARK   12  A    between atoms: C14_22  and  C15_23 
REMARK   13  A    between atoms: C14_22  and  C16_25 
REMARK       I    between atoms: C15_23  and  N6_40 
REMARK   14  A    between atoms: C16_25  and  C17_26 
REMARK   15  A    between atoms: C17_26  and  C18_27 
REMARK   16  A    between atoms: C17_26  and  C19_28 
REMARK   17  A    between atoms: C20_29  and  C21_30 
REMARK   18  A    between atoms: C20_29  and  C24_33 
REMARK   19  A    between atoms: C20_29  and  N6_40 
REMARK   20  A    between atoms: C21_30  and  C22_31 
REMARK   21  A    between atoms: C22_31  and  C23_32 
REMARK   22  A    between atoms: C23_32  and  O8_43 
REMARK   23  A    between atoms: C24_33  and  C25_34 
REMARK   24  A    between atoms: C28_38  and  O6_39 
REMARK   25  A    between atoms: C29_42  and  O8_43 
REMARK   26  A    between atoms: C29_42  and  C35_49 
ROOT
ATOM      1  C14 non d ame     -31.049  14.030  24.463  0.00  0.00     0.089 C 
ATOM      2  H20 non d ame     -30.054  13.614  24.626  0.00  0.00     0.087 H 
ENDROOT
BRANCH   1   3
ATOM      3  N4  non d ame     -32.008  12.952  24.652  0.00  0.00    -0.346 N 
ATOM      4  C10 non d ame     -31.809  11.937  25.749  0.00  0.00     0.241 C 
ATOM      5  O4  non d ame     -30.866  12.006  26.466  0.00  0.00    -0.271 OA
ATOM      6  H19 non d ame     -32.803  12.910  24.030  0.00  0.00     0.163 HD
BRANCH   4   7
ATOM      7  C9  non d ame     -32.816  10.832  25.933  0.00  0.00     0.092 C 
ATOM      8  H11 non d ame     -33.012  10.699  26.998  0.00  0.00     0.088 H 
BRANCH   7   9
ATOM      9  N3  non d ame     -34.082  11.214  25.303  0.00  0.00    -0.346 N 
ATOM     10  C7  non d ame     -35.327  10.998  25.997  0.00  0.00     0.240 C 
ATOM     11  O3  non d ame     -35.329  10.515  27.064  0.00  0.00    -0.271 OA
ATOM     12  H10 non d ame     -34.097  11.630  24.383  0.00  0.00     0.163 HD
BRANCH  10  13
ATOM     13  C6  non d ame     -36.673  11.404  25.319  0.00  0.00     0.086 C 
ATOM     14  H6  non d ame     -37.545  11.109  25.903  0.00  0.00     0.086 H 
BRANCH  13  15
ATOM     15  N2  non d ame     -36.723  12.852  25.201  0.00  0.00    -0.343 N 
ATOM     16  C5  non d ame     -37.325  13.643  26.277  0.00  0.00     0.273 C 
ATOM     17  O2  non d ame     -37.769  13.105  27.231  0.00  0.00    -0.266 OA
ATOM     18  H5  non d ame     -36.344  13.303  24.380  0.00  0.00     0.163 HD
BRANCH  16  19
ATOM     19  C4  non d ame     -37.383  15.174  26.166  0.00  0.00     0.154 A 
ATOM     20  C1  non d ame     -37.086  15.970  25.014  0.00  0.00    -0.017 A 
ATOM     21  C2  non d ame     -37.290  17.304  25.431  0.00  0.00     0.077 A 
ATOM     22  H1  non d ame     -36.770  15.631  24.027  0.00  0.00     0.091 H 
ATOM     23  O1  non d ame     -37.663  17.268  26.677  0.00  0.00    -0.218 OA
ATOM     24  N1  non d ame     -37.724  16.036  27.128  0.00  0.00    -0.123 NA
BRANCH  21  25
ATOM     25  C3  non d ame     -37.108  18.553  24.578  0.00  0.00    -0.029 C 
ATOM     26  H2  non d ame     -37.641  19.386  25.036  0.00  0.00     0.036 H 
ATOM     27  H3  non d ame     -36.048  18.795  24.510  0.00  0.00     0.036 H 
ATOM     28  H4  non d ame     -37.505  18.373  23.580  0.00  0.00     0.036 H 
ENDBRANCH  21  25
ENDBRANCH  16  19
ENDBRANCH  13  15
BRANCH  13  29
ATOM     29  C8  non d ame     -36.762  10.771  23.954  0.00  0.00    -0.049 C 
ATOM     30  H7  non d ame     -37.207  11.478  23.254  0.00  0.00     0.030 H 
ATOM     31  H8  non d ame     -35.762  10.502  23.612  0.00  0.00     0.030 H 
ATOM     32  H9  non d ame     -37.381   9.875  24.008  0.00  0.00     0.030 H 
ENDBRANCH  13  29
ENDBRANCH  10  13
ENDBRANCH   7   9
BRANCH   7  33
ATOM     33  C11 non d ame     -32.282   9.529  25.271  0.00  0.00    -0.033 C 
ATOM     34  H12 non d ame     -31.192   9.570  25.297  0.00  0.00     0.042 H 
BRANCH  33  35
ATOM     35  C12 non d ame     -32.723   8.262  26.069  0.00  0.00    -0.071 C 
ATOM     36  H13 non d ame     -32.064   7.430  25.822  0.00  0.00     0.028 H 
ATOM     37  H14 non d ame     -32.663   8.468  27.138  0.00  0.00     0.028 H 
ATOM     38  H15 non d ame     -33.748   8.005  25.805  0.00  0.00     0.028 H 
ENDBRANCH  33  35
BRANCH  33  39
ATOM     39  C13 non d ame     -32.725   9.439  23.776  0.00  0.00    -0.071 C 
ATOM     40  H16 non d ame     -32.920  10.441  23.393  0.00  0.00     0.028 H 
ATOM     41  H17 non d ame     -31.933   8.973  23.188  0.00  0.00     0.028 H 
ATOM     42  H18 non d ame     -33.631   8.838  23.701  0.00  0.00     0.028 H 
ENDBRANCH  33  39
ENDBRANCH   7  33
ENDBRANCH   4   7
ENDBRANCH   1   3
BRANCH   1  43
ATOM     43  C15 non d ame     -31.381  15.170  25.467  0.00  0.00     0.240 C 
ATOM     44  O5  non d ame     -31.003  16.276  25.250  0.00  0.00    -0.271 OA
ATOM     45  N6  non d ame     -32.177  14.886  26.694  0.00  0.00    -0.355 N 
ATOM     46  H46 non d ame     -32.508  13.951  26.886  0.00  0.00     0.162 HD
BRANCH  45  47
ATOM     47  C20 non d ame     -32.487  15.982  27.639  0.00  0.00     0.013 C 
ATOM     48  H30 non d ame     -31.780  16.791  27.456  0.00  0.00     0.072 H 
BRANCH  47  49
ATOM     49  C21 non d ame     -32.339  15.477  29.056  0.00  0.00    -0.038 C 
ATOM     50  H31 non d ame     -32.024  16.340  29.645  0.00  0.00     0.036 H 
ATOM     51  H32 non d ame     -33.275  14.971  29.288  0.00  0.00     0.036 H 
BRANCH  49  52
ATOM     52  C22 non d ame     -31.223  14.420  29.202  0.00  0.00     0.018 C 
ATOM     53  H33 non d ame     -31.018  14.066  28.193  0.00  0.00     0.048 H 
ATOM     54  H34 non d ame     -30.434  14.902  29.782  0.00  0.00     0.048 H 
BRANCH  52  55
ATOM     55  C23 non d ame     -31.650  13.168  30.018  0.00  0.00     0.259 C 
ATOM     56  O7  non d ame     -31.017  12.817  30.961  0.00  0.00    -0.265 OA
BRANCH  55  57
ATOM     57  O8  non d ame     -32.800  12.433  29.616  0.00  0.00    -0.317 OA
BRANCH  57  58
ATOM     58  C29 non d ame     -32.633  11.013  29.677  0.00  0.00     0.052 C 
ATOM     59  H47 non d ame     -32.856  10.647  28.675  0.00  0.00     0.082 H 
ATOM     60  H48 non d ame     -31.647  10.850  30.110  0.00  0.00     0.082 H 
BRANCH  58  61
ATOM     61  C35 non d ame     -33.698  10.447  30.655  0.00  0.00    -0.034 A 
ATOM     62  C30 non d ame     -34.109  11.201  31.749  0.00  0.00    -0.075 A 
ATOM     63  C31 non d ame     -35.065  10.693  32.628  0.00  0.00    -0.082 A 
ATOM     64  H49 non d ame     -33.682  12.189  31.920  0.00  0.00     0.084 H 
ATOM     65  C32 non d ame     -35.609   9.424  32.410  0.00  0.00    -0.083 A 
ATOM     66  H50 non d ame     -35.386  11.287  33.484  0.00  0.00     0.083 H 
ATOM     67  C33 non d ame     -35.193   8.674  31.318  0.00  0.00    -0.082 A 
ATOM     68  H51 non d ame     -36.357   9.020  33.091  0.00  0.00     0.083 H 
ATOM     69  C34 non d ame     -34.239   9.179  30.436  0.00  0.00    -0.075 A 
ATOM     70  H52 non d ame     -35.617   7.683  31.151  0.00  0.00     0.083 H 
ATOM     71  H53 non d ame     -33.919   8.584  29.581  0.00  0.00     0.084 H 
ENDBRANCH  58  61
ENDBRANCH  57  58
ENDBRANCH  55  57
ENDBRANCH  52  55
ENDBRANCH  49  52
ENDBRANCH  47  49
BRANCH  47  72
ATOM     72  C24 non d ame     -33.917  16.467  27.416  0.00  0.00    -0.039 C 
ATOM     73  H35 non d ame     -34.311  15.848  26.609  0.00  0.00     0.036 H 
ATOM     74  H36 non d ame     -34.387  16.444  28.399  0.00  0.00     0.036 H 
BRANCH  72  75
ATOM     75  C25 non d ame     -33.956  17.986  26.910  0.00  0.00    -0.001 C 
ATOM     76  C26 non d ame     -32.462  18.658  27.042  0.00  0.00    -0.035 C 
ATOM     77  C27 non d ame     -32.568  19.831  27.712  0.00  0.00     0.085 C 
ATOM     78  H38 non d ame     -31.834  18.049  27.692  0.00  0.00     0.036 H 
ATOM     79  H39 non d ame     -32.099  18.959  26.059  0.00  0.00     0.036 H 
ATOM     80  N5  non d ame     -33.943  19.861  28.334  0.00  0.00    -0.049 N 
ATOM     81  H40 non d ame     -31.820  19.782  28.504  0.00  0.00     0.075 H 
ATOM     82  H41 non d ame     -32.505  20.608  26.951  0.00  0.00     0.075 H 
ATOM     83  C28 non d ame     -34.785  18.691  27.607  0.00  0.00     0.193 C 
ATOM     84  H42 non d ame     -33.823  19.614  29.306  0.00  0.00     0.280 HD
ATOM     85  H43 non d ame     -34.349  20.752  28.086  0.00  0.00     0.280 HD
ATOM     86  H44 non d ame     -35.527  18.933  26.847  0.00  0.00     0.129 H 
ATOM     87  H37 non d ame     -34.463  18.089  25.951  0.00  0.00     0.046 H 
BRANCH  83  88
ATOM     88  O6  non d ame     -35.476  17.904  28.579  0.00  0.00    -0.369 OA
ATOM     89  H45 non d ame     -34.925  17.801  29.358  0.00  0.00     0.212 HD
ENDBRANCH  83  88
ENDBRANCH  72  75
ENDBRANCH  47  72
ENDBRANCH  45  47
ENDBRANCH   1  43
BRANCH   1  90
ATOM     90  C16 non d ame     -31.163  14.552  23.040  0.00  0.00    -0.035 C 
ATOM     91  H21 non d ame     -31.949  13.957  22.576  0.00  0.00     0.037 H 
ATOM     92  H22 non d ame     -31.282  15.630  23.137  0.00  0.00     0.037 H 
BRANCH  90  93
ATOM     93  C17 non d ame     -29.876  14.325  22.184  0.00  0.00    -0.059 C 
ATOM     94  H23 non d ame     -30.087  14.670  21.172  0.00  0.00     0.038 H 
BRANCH  93  95
ATOM     95  C18 non d ame     -28.658  15.142  22.723  0.00  0.00    -0.073 C 
ATOM     96  H24 non d ame     -28.622  16.111  22.226  0.00  0.00     0.028 H 
ATOM     97  H25 non d ame     -28.767  15.290  23.798  0.00  0.00     0.028 H 
ATOM     98  H26 non d ame     -27.737  14.596  22.523  0.00  0.00     0.028 H 
ENDBRANCH  93  95
BRANCH  93  99
ATOM     99  C19 non d ame     -29.535  12.835  22.095  0.00  0.00    -0.073 C 
ATOM    100  H27 non d ame     -30.298  12.322  21.508  0.00  0.00     0.028 H 
ATOM    101  H28 non d ame     -28.565  12.712  21.613  0.00  0.00     0.028 H 
ATOM    102  H29 non d ame     -29.499  12.410  23.097  0.00  0.00     0.028 H 
ENDBRANCH  93  99
ENDBRANCH  90  93
ENDBRANCH   1  90
TORSDOF 26
ENDMDL
MODEL 2
REMARK VINA RESULT:      -7.1      1.565      2.064
REMARK  26 active torsions:
REMARK  status: ('A' for Active; 'I' for Inactive)
REMARK    1  A    between atoms: C2_2  and  C3_3 
REMARK    2  A    between atoms: C4_6  and  C5_7 
REMARK       I    between atoms: C5_7  and  N2_9 
REMARK    3  A    between atoms: N2_9  and  C6_10 
REMARK    4  A    between atoms: C6_10  and  C7_11 
REMARK    5  A    between atoms: C6_10  and  C8_13 
REMARK       I    between atoms: C7_11  and  N3_14 
REMARK    6  A    between atoms: N3_14  and  C9_15 
REMARK    7  A    between atoms: C9_15  and  C10_16 
REMARK    8  A    between atoms: C9_15  and  C11_18 
REMARK       I    between atoms: C10_16  and  N4_21 
REMARK    9  A    between atoms: C11_18  and  C12_19 
REMARK   10  A    between atoms: C11_18  and  C13_20 
REMARK   11  A    between atoms: N4_21  and  C14_22 
REMARK   12  A    between atoms: C14_22  and  C15_23 
REMARK   13  A    between atoms: C14_22  and  C16_25 
REMARK       I    between atoms: C15_23  and  N6_40 
REMARK   14  A    between atoms: C16_25  and  C17_26 
REMARK   15  A    between atoms: C17_26  and  C18_27 
REMARK   16  A    between atoms: C17_26  and  C19_28 
REMARK   17  A    between atoms: C20_29  and  C21_30 
REMARK   18  A    between atoms: C20_29  and  C24_33 
REMARK   19  A    between atoms: C20_29  and  N6_40 
REMARK   20  A    between atoms: C21_30  and  C22_31 
REMARK   21  A    between atoms: C22_31  and  C23_32 
REMARK   22  A    between atoms: C23_32  and  O8_43 
REMARK   23  A    between atoms: C24_33  and  C25_34 
REMARK   24  A    between atoms: C28_38  and  O6_39 
REMARK   25  A    between atoms: C29_42  and  O8_43 
REMARK   26  A    between atoms: C29_42  and  C35_49 
ROOT
ATOM      1  C14 non d ame     -30.798  14.391  23.813  0.00  0.00     0.089 C 
ATOM      2  H20 non d ame     -29.711  14.417  23.735  0.00  0.00     0.087 H 
ENDROOT
BRANCH   1   3
ATOM      3  N4  non d ame     -31.183  13.017  24.098  0.00  0.00    -0.346 N 
ATOM      4  C10 non d ame     -30.552  11.876  23.341  0.00  0.00     0.241 C 
ATOM      5  O4  non d ame     -29.739  12.088  22.504  0.00  0.00    -0.271 OA
ATOM      6  H19 non d ame     -31.879  12.858  24.814  0.00  0.00     0.163 HD
BRANCH   4   7
ATOM      7  C9  non d ame     -30.959  10.460  23.655  0.00  0.00     0.092 C 
ATOM      8  H11 non d ame     -30.379  10.100  24.505  0.00  0.00     0.088 H 
BRANCH   7   9
ATOM      9  N3  non d ame     -32.370  10.432  24.048  0.00  0.00    -0.346 N 
ATOM     10  C7  non d ame     -32.734  10.570  25.437  0.00  0.00     0.240 C 
ATOM     11  O3  non d ame     -31.903  10.702  26.251  0.00  0.00    -0.271 OA
ATOM     12  H10 non d ame     -33.098  10.316  23.358  0.00  0.00     0.163 HD
BRANCH  10  13
ATOM     13  C6  non d ame     -34.238  10.536  25.851  0.00  0.00     0.086 C 
ATOM     14  H6  non d ame     -34.377  10.422  26.926  0.00  0.00     0.086 H 
BRANCH  13  15
ATOM     15  N2  non d ame     -34.855  11.800  25.484  0.00  0.00    -0.343 N 
ATOM     16  C5  non d ame     -35.834  12.413  26.386  0.00  0.00     0.273 C 
ATOM     17  O2  non d ame     -36.119  11.880  27.401  0.00  0.00    -0.266 OA
ATOM     18  H5  non d ame     -34.608  12.246  24.613  0.00  0.00     0.163 HD
BRANCH  16  19
ATOM     19  C4  non d ame     -36.494  13.749  26.011  0.00  0.00     0.154 A 
ATOM     20  C1  non d ame     -36.679  14.284  24.697  0.00  0.00    -0.017 A 
ATOM     21  C2  non d ame     -37.327  15.523  24.896  0.00  0.00     0.077 A 
ATOM     22  H1  non d ame     -36.386  13.842  23.745  0.00  0.00     0.091 H 
ATOM     23  O1  non d ame     -37.494  15.671  26.179  0.00  0.00    -0.218 OA
ATOM     24  N1  non d ame     -37.014  14.649  26.849  0.00  0.00    -0.123 NA
BRANCH  21  25
ATOM     25  C3  non d ame     -37.754  16.502  23.811  0.00  0.00    -0.029 C 
ATOM     26  H2  non d ame     -38.362  15.982  23.071  0.00  0.00     0.036 H 
ATOM     27  H3  non d ame     -38.338  17.308  24.258  0.00  0.00     0.036 H 
ATOM     28  H4  non d ame     -36.871  16.918  23.328  0.00  0.00     0.036 H 
ENDBRANCH  21  25
ENDBRANCH  16  19
ENDBRANCH  13  15
BRANCH  13  29
ATOM     29  C8  non d ame     -34.931   9.398  25.145  0.00  0.00    -0.049 C 
ATOM     30  H7  non d ame     -34.252   8.550  25.069  0.00  0.00     0.030 H 
ATOM     31  H8  non d ame     -35.815   9.105  25.711  0.00  0.00     0.030 H 
ATOM     32  H9  non d ame     -35.228   9.718  24.146  0.00  0.00     0.030 H 
ENDBRANCH  13  29
ENDBRANCH  10  13
ENDBRANCH   7   9
BRANCH   7  33
ATOM     33  C11 non d ame     -30.757   9.571  22.392  0.00  0.00    -0.033 C 
ATOM     34  H12 non d ame     -30.714  10.234  21.528  0.00  0.00     0.042 H 
BRANCH  33  35
ATOM     35  C12 non d ame     -29.406   8.792  22.454  0.00  0.00    -0.071 C 
ATOM     36  H13 non d ame     -28.906   9.008  23.398  0.00  0.00     0.028 H 
ATOM     37  H14 non d ame     -29.601   7.723  22.381  0.00  0.00     0.028 H 
ATOM     38  H15 non d ame     -28.769   9.104  21.626  0.00  0.00     0.028 H 
ENDBRANCH  33  35
BRANCH  33  39
ATOM     39  C13 non d ame     -31.963   8.598  22.195  0.00  0.00    -0.071 C 
ATOM     40  H16 non d ame     -31.597   7.629  21.854  0.00  0.00     0.028 H 
ATOM     41  H17 non d ame     -32.491   8.475  23.141  0.00  0.00     0.028 H 
ATOM     42  H18 non d ame     -32.645   9.011  21.452  0.00  0.00     0.028 H 
ENDBRANCH  33  39
ENDBRANCH   7  33
ENDBRANCH   4   7
ENDBRANCH   1   3
BRANCH   1  43
ATOM     43  C15 non d ame     -31.327  15.302  24.957  0.00  0.00     0.240 C 
ATOM     44  O5  non d ame     -30.810  16.352  25.163  0.00  0.00    -0.271 OA
ATOM     45  N6  non d ame     -32.485  14.871  25.789  0.00  0.00    -0.355 N 
ATOM     46  H46 non d ame     -32.937  13.983  25.619  0.00  0.00     0.162 HD
BRANCH  45  47
ATOM     47  C20 non d ame     -32.979  15.749  26.873  0.00  0.00     0.013 C 
ATOM     48  H30 non d ame     -32.142  16.355  27.219  0.00  0.00     0.072 H 
BRANCH  47  49
ATOM     49  C21 non d ame     -33.504  14.898  28.006  0.00  0.00    -0.038 C 
ATOM     50  H31 non d ame     -34.368  15.435  28.402  0.00  0.00     0.036 H 
ATOM     51  H32 non d ame     -33.629  13.898  27.590  0.00  0.00     0.036 H 
BRANCH  49  52
ATOM     52  C22 non d ame     -32.501  14.765  29.172  0.00  0.00     0.018 C 
ATOM     53  H33 non d ame     -32.090  15.762  29.323  0.00  0.00     0.048 H 
ATOM     54  H34 non d ame     -33.049  14.274  29.977  0.00  0.00     0.048 H 
BRANCH  52  55
ATOM     55  C23 non d ame     -31.290  13.844  28.855  0.00  0.00     0.259 C 
ATOM     56  O7  non d ame     -30.366  14.256  28.231  0.00  0.00    -0.265 OA
BRANCH  55  57
ATOM     57  O8  non d ame     -31.304  12.495  29.305  0.00  0.00    -0.317 OA
BRANCH  57  58
ATOM     58  C29 non d ame     -31.818  12.329  30.630  0.00  0.00     0.052 C 
ATOM     59  H47 non d ame     -30.992  11.932  31.219  0.00  0.00     0.082 H 
ATOM     60  H48 non d ame     -32.266  13.287  30.894  0.00  0.00     0.082 H 
BRANCH  58  61
ATOM     61  C35 non d ame     -32.942  11.260  30.578  0.00  0.00    -0.034 A 
ATOM     62  C30 non d ame     -33.907  11.215  31.579  0.00  0.00    -0.075 A 
ATOM     63  C31 non d ame     -34.917  10.253  31.531  0.00  0.00    -0.082 A 
ATOM     64  H49 non d ame     -33.873  11.930  32.399  0.00  0.00     0.084 H 
ATOM     65  C32 non d ame     -34.957   9.334  30.480  0.00  0.00    -0.083 A 
ATOM     66  H50 non d ame     -35.673  10.221  32.317  0.00  0.00     0.083 H 
ATOM     67  C33 non d ame     -33.990   9.381  29.485  0.00  0.00    -0.082 A 
ATOM     68  H51 non d ame     -35.743   8.581  30.435  0.00  0.00     0.083 H 
ATOM     69  C34 non d ame     -32.980  10.341  29.527  0.00  0.00    -0.075 A 
ATOM     70  H52 non d ame     -34.022   8.662  28.667  0.00  0.00     0.083 H 
ATOM     71  H53 non d ame     -32.225  10.373  28.741  0.00  0.00     0.084 H 
ENDBRANCH  58  61
ENDBRANCH  57  58
ENDBRANCH  55  57
ENDBRANCH  52  55
ENDBRANCH  49  52
ENDBRANCH  47  49
BRANCH  47  72
ATOM     72  C24 non d ame     -34.098  16.643  26.344  0.00  0.00    -0.039 C 
ATOM     73  H35 non d ame     -34.293  16.294  25.329  0.00  0.00     0.036 H 
ATOM     74  H36 non d ame     -34.885  16.597  27.096  0.00  0.00     0.036 H 
BRANCH  72  75
ATOM     75  C25 non d ame     -33.635  18.173  26.237  0.00  0.00    -0.001 C 
ATOM     76  C26 non d ame     -32.517  18.501  27.397  0.00  0.00    -0.035 C 
ATOM     77  C27 non d ame     -32.902  19.610  28.073  0.00  0.00     0.085 C 
ATOM     78  H38 non d ame     -32.528  17.721  28.159  0.00  0.00     0.036 H 
ATOM     79  H39 non d ame     -31.575  18.798  26.935  0.00  0.00     0.036 H 
ATOM     80  N5  non d ame     -34.339  19.878  27.699  0.00  0.00    -0.049 N 
ATOM     81  H40 non d ame     -32.854  19.339  29.129  0.00  0.00     0.075 H 
ATOM     82  H41 non d ame     -32.279  20.417  27.688  0.00  0.00     0.075 H 
ATOM     83  C28 non d ame     -34.634  18.976  26.393  0.00  0.00     0.193 C 
ATOM     84  H42 non d ame     -34.904  19.532  28.462  0.00  0.00     0.280 HD
ATOM     85  H43 non d ame     -34.389  20.852  27.436  0.00  0.00     0.280 HD
ATOM     86  H44 non d ame     -34.678  19.431  25.404  0.00  0.00     0.129 H 
ATOM     87  H37 non d ame     -33.388  18.459  25.215  0.00  0.00     0.046 H 
BRANCH  83  88
ATOM     88  O6  non d ame     -35.870  18.276  26.545  0.00  0.00    -0.369 OA
ATOM     89  H45 non d ame     -36.305  18.566  27.350  0.00  0.00     0.212 HD
ENDBRANCH  83  88
ENDBRANCH  72  75
ENDBRANCH  47  72
ENDBRANCH  45  47
ENDBRANCH   1  43
BRANCH   1  90
ATOM     90  C16 non d ame     -31.419  14.816  22.492  0.00  0.00    -0.035 C 
ATOM     91  H21 non d ame     -31.596  13.890  21.945  0.00  0.00     0.037 H 
ATOM     92  H22 non d ame     -32.258  15.458  22.761  0.00  0.00     0.037 H 
BRANCH  90  93
ATOM     93  C17 non d ame     -30.470  15.679  21.601  0.00  0.00    -0.059 C 
ATOM     94  H23 non d ame     -30.745  16.724  21.740  0.00  0.00     0.038 H 
BRANCH  93  95
ATOM     95  C18 non d ame     -28.971  15.520  22.012  0.00  0.00    -0.073 C 
ATOM     96  H24 non d ame     -28.567  14.610  21.568  0.00  0.00     0.028 H 
ATOM     97  H25 non d ame     -28.404  16.380  21.655  0.00  0.00     0.028 H 
ATOM     98  H26 non d ame     -28.896  15.461  23.097  0.00  0.00     0.028 H 
ENDBRANCH  93  95
BRANCH  93  99
ATOM     99  C19 non d ame     -30.665  15.351  20.118  0.00  0.00    -0.073 C 
ATOM    100  H27 non d ame     -29.835  15.761  19.542  0.00  0.00     0.028 H 
ATOM    101  H28 non d ame     -30.698  14.270  19.986  0.00  0.00     0.028 H 
ATOM    102  H29 non d ame     -31.600  15.788  19.769  0.00  0.00     0.028 H 
ENDBRANCH  93  99
ENDBRANCH  90  93
ENDBRANCH   1  90
TORSDOF 26
ENDMDL
MODEL 3
REMARK VINA RESULT:      -7.0      3.363      7.055
REMARK  26 active torsions:
REMARK  status: ('A' for Active; 'I' for Inactive)
REMARK    1  A    between atoms: C2_2  and  C3_3 
REMARK    2  A    between atoms: C4_6  and  C5_7 
REMARK       I    between atoms: C5_7  and  N2_9 
REMARK    3  A    between atoms: N2_9  and  C6_10 
REMARK    4  A    between atoms: C6_10  and  C7_11 
REMARK    5  A    between atoms: C6_10  and  C8_13 
REMARK       I    between atoms: C7_11  and  N3_14 
REMARK    6  A    between atoms: N3_14  and  C9_15 
REMARK    7  A    between atoms: C9_15  and  C10_16 
REMARK    8  A    between atoms: C9_15  and  C11_18 
REMARK       I    between atoms: C10_16  and  N4_21 
REMARK    9  A    between atoms: C11_18  and  C12_19 
REMARK   10  A    between atoms: C11_18  and  C13_20 
REMARK   11  A    between atoms: N4_21  and  C14_22 
REMARK   12  A    between atoms: C14_22  and  C15_23 
REMARK   13  A    between atoms: C14_22  and  C16_25 
REMARK       I    between atoms: C15_23  and  N6_40 
REMARK   14  A    between atoms: C16_25  and  C17_26 
REMARK   15  A    between atoms: C17_26  and  C18_27 
REMARK   16  A    between atoms: C17_26  and  C19_28 
REMARK   17  A    between atoms: C20_29  and  C21_30 
REMARK   18  A    between atoms: C20_29  and  C24_33 
REMARK   19  A    between atoms: C20_29  and  N6_40 
REMARK   20  A    between atoms: C21_30  and  C22_31 
REMARK   21  A    between atoms: C22_31  and  C23_32 
REMARK   22  A    between atoms: C23_32  and  O8_43 
REMARK   23  A    between atoms: C24_33  and  C25_34 
REMARK   24  A    between atoms: C28_38  and  O6_39 
REMARK   25  A    between atoms: C29_42  and  O8_43 
REMARK   26  A    between atoms: C29_42  and  C35_49 
ROOT
ATOM      1  C14 non d ame     -32.683  10.394  25.718  0.00  0.00     0.089 C 
ATOM      2  H20 non d ame     -33.548  10.466  25.058  0.00  0.00     0.087 H 
ENDROOT
BRANCH   1   3
ATOM      3  N4  non d ame     -32.163   9.039  25.613  0.00  0.00    -0.346 N 
ATOM      4  C10 non d ame     -32.984   7.957  24.957  0.00  0.00     0.241 C 
ATOM      5  O4  non d ame     -34.061   8.200  24.524  0.00  0.00    -0.271 OA
ATOM      6  H19 non d ame     -31.245   8.852  25.990  0.00  0.00     0.163 HD
BRANCH   4   7
ATOM      7  C9  non d ame     -32.428   6.561  24.852  0.00  0.00     0.092 C 
ATOM      8  H11 non d ame     -31.362   6.581  25.081  0.00  0.00     0.088 H 
BRANCH   7   9
ATOM      9  N3  non d ame     -33.070   5.702  25.850  0.00  0.00    -0.346 N 
ATOM     10  C7  non d ame     -32.694   5.805  27.239  0.00  0.00     0.240 C 
ATOM     11  O3  non d ame     -31.874   6.573  27.570  0.00  0.00    -0.271 OA
ATOM     12  H10 non d ame     -33.777   5.034  25.580  0.00  0.00     0.163 HD
BRANCH  10  13
ATOM     13  C6  non d ame     -33.379   4.885  28.297  0.00  0.00     0.086 C 
ATOM     14  H6  non d ame     -32.763   4.731  29.183  0.00  0.00     0.086 H 
BRANCH  13  15
ATOM     15  N2  non d ame     -34.605   5.521  28.749  0.00  0.00    -0.343 N 
ATOM     16  C5  non d ame     -34.937   5.516  30.176  0.00  0.00     0.273 C 
ATOM     17  O2  non d ame     -34.211   4.997  30.951  0.00  0.00    -0.266 OA
ATOM     18  H5  non d ame     -35.221   5.959  28.079  0.00  0.00     0.163 HD
BRANCH  16  19
ATOM     19  C4  non d ame     -36.229   6.185  30.668  0.00  0.00     0.154 A 
ATOM     20  C1  non d ame     -36.512   7.587  30.721  0.00  0.00    -0.017 A 
ATOM     21  C2  non d ame     -37.821   7.675  31.245  0.00  0.00     0.077 A 
ATOM     22  H1  non d ame     -35.866   8.414  30.427  0.00  0.00     0.091 H 
ATOM     23  O1  non d ame     -38.234   6.460  31.461  0.00  0.00    -0.218 OA
ATOM     24  N1  non d ame     -37.322   5.574  31.133  0.00  0.00    -0.123 NA
BRANCH  21  25
ATOM     25  C3  non d ame     -38.604   8.955  31.506  0.00  0.00    -0.029 C 
ATOM     26  H2  non d ame     -39.402   8.753  32.220  0.00  0.00     0.036 H 
ATOM     27  H3  non d ame     -37.935   9.713  31.914  0.00  0.00     0.036 H 
ATOM     28  H4  non d ame     -39.034   9.314  30.572  0.00  0.00     0.036 H 
ENDBRANCH  21  25
ENDBRANCH  16  19
ENDBRANCH  13  15
BRANCH  13  29
ATOM     29  C8  non d ame     -33.689   3.546  27.678  0.00  0.00    -0.049 C 
ATOM     30  H7  non d ame     -34.767   3.396  27.658  0.00  0.00     0.030 H 
ATOM     31  H8  non d ame     -33.299   3.518  26.660  0.00  0.00     0.030 H 
ATOM     32  H9  non d ame     -33.222   2.756  28.267  0.00  0.00     0.030 H 
ENDBRANCH  13  29
ENDBRANCH  10  13
ENDBRANCH   7   9
BRANCH   7  33
ATOM     33  C11 non d ame     -32.708   5.997  23.429  0.00  0.00    -0.033 C 
ATOM     34  H12 non d ame     -33.542   6.562  23.010  0.00  0.00     0.042 H 
BRANCH  33  35
ATOM     35  C12 non d ame     -31.483   6.200  22.484  0.00  0.00    -0.071 C 
ATOM     36  H13 non d ame     -31.676   5.712  21.529  0.00  0.00     0.028 H 
ATOM     37  H14 non d ame     -31.322   7.266  22.322  0.00  0.00     0.028 H 
ATOM     38  H15 non d ame     -30.595   5.764  22.941  0.00  0.00     0.028 H 
ENDBRANCH  33  35
BRANCH  33  39
ATOM     39  C13 non d ame     -33.129   4.494  23.495  0.00  0.00    -0.071 C 
ATOM     40  H16 non d ame     -34.074   4.404  24.031  0.00  0.00     0.028 H 
ATOM     41  H17 non d ame     -33.247   4.104  22.484  0.00  0.00     0.028 H 
ATOM     42  H18 non d ame     -32.360   3.924  24.015  0.00  0.00     0.028 H 
ENDBRANCH  33  39
ENDBRANCH   7  33
ENDBRANCH   4   7
ENDBRANCH   1   3
BRANCH   1  43
ATOM     43  C15 non d ame     -31.556  11.389  25.320  0.00  0.00     0.240 C 
ATOM     44  O5  non d ame     -30.441  10.997  25.189  0.00  0.00    -0.271 OA
ATOM     45  N6  non d ame     -31.867  12.828  25.092  0.00  0.00    -0.355 N 
ATOM     46  H46 non d ame     -32.811  13.171  25.195  0.00  0.00     0.162 HD
BRANCH  45  47
ATOM     47  C20 non d ame     -30.784  13.762  24.711  0.00  0.00     0.013 C 
ATOM     48  H30 non d ame     -29.848  13.369  25.108  0.00  0.00     0.072 H 
BRANCH  47  49
ATOM     49  C21 non d ame     -31.066  15.123  25.306  0.00  0.00    -0.038 C 
ATOM     50  H31 non d ame     -30.531  15.146  26.257  0.00  0.00     0.036 H 
ATOM     51  H32 non d ame     -30.821  15.842  24.525  0.00  0.00     0.036 H 
BRANCH  49  52
ATOM     52  C22 non d ame     -32.558  15.334  25.642  0.00  0.00     0.018 C 
ATOM     53  H33 non d ame     -33.007  15.754  24.743  0.00  0.00     0.048 H 
ATOM     54  H34 non d ame     -32.911  14.377  26.030  0.00  0.00     0.048 H 
BRANCH  52  55
ATOM     55  C23 non d ame     -32.807  16.371  26.771  0.00  0.00     0.259 C 
ATOM     56  O7  non d ame     -32.971  17.519  26.511  0.00  0.00    -0.265 OA
BRANCH  55  57
ATOM     57  O8  non d ame     -32.822  15.937  28.126  0.00  0.00    -0.317 OA
BRANCH  57  58
ATOM     58  C29 non d ame     -33.504  14.696  28.331  0.00  0.00     0.052 C 
ATOM     59  H47 non d ame     -34.327  14.920  29.009  0.00  0.00     0.082 H 
ATOM     60  H48 non d ame     -33.708  14.303  27.335  0.00  0.00     0.082 H 
BRANCH  58  61
ATOM     61  C35 non d ame     -32.527  13.725  29.049  0.00  0.00    -0.034 A 
ATOM     62  C30 non d ame     -31.200  13.644  28.639  0.00  0.00    -0.075 A 
ATOM     63  C31 non d ame     -30.323  12.772  29.284  0.00  0.00    -0.082 A 
ATOM     64  H49 non d ame     -30.847  14.261  27.813  0.00  0.00     0.084 H 
ATOM     65  C32 non d ame     -30.778  11.979  30.340  0.00  0.00    -0.083 A 
ATOM     66  H50 non d ame     -29.283  12.711  28.961  0.00  0.00     0.083 H 
ATOM     67  C33 non d ame     -32.104  12.062  30.743  0.00  0.00    -0.082 A 
ATOM     68  H51 non d ame     -30.099  11.296  30.850  0.00  0.00     0.083 H 
ATOM     69  C34 non d ame     -32.983  12.933  30.103  0.00  0.00    -0.075 A 
ATOM     70  H52 non d ame     -32.457  11.440  31.567  0.00  0.00     0.083 H 
ATOM     71  H53 non d ame     -34.023  12.993  30.427  0.00  0.00     0.084 H 
ENDBRANCH  58  61
ENDBRANCH  57  58
ENDBRANCH  55  57
ENDBRANCH  52  55
ENDBRANCH  49  52
ENDBRANCH  47  49
BRANCH  47  72
ATOM     72  C24 non d ame     -30.710  13.875  23.190  0.00  0.00    -0.039 C 
ATOM     73  H35 non d ame     -30.003  13.106  22.877  0.00  0.00     0.036 H 
ATOM     74  H36 non d ame     -31.743  13.839  22.846  0.00  0.00     0.036 H 
BRANCH  72  75
ATOM     75  C25 non d ame     -30.108  15.287  22.729  0.00  0.00    -0.001 C 
ATOM     76  C26 non d ame     -31.249  16.141  21.910  0.00  0.00    -0.035 C 
ATOM     77  C27 non d ame     -30.722  16.556  20.734  0.00  0.00     0.085 C 
ATOM     78  H38 non d ame     -32.063  15.482  21.607  0.00  0.00     0.036 H 
ATOM     79  H39 non d ame     -31.467  17.071  22.434  0.00  0.00     0.036 H 
ATOM     80  N5  non d ame     -29.439  15.788  20.529  0.00  0.00    -0.049 N 
ATOM     81  H40 non d ame     -31.441  16.256  19.970  0.00  0.00     0.075 H 
ATOM     82  H41 non d ame     -30.486  17.611  20.876  0.00  0.00     0.075 H 
ATOM     83  C28 non d ame     -29.083  15.129  21.959  0.00  0.00     0.193 C 
ATOM     84  H42 non d ame     -29.649  15.047  19.876  0.00  0.00     0.280 HD
ATOM     85  H43 non d ame     -28.729  16.472  20.305  0.00  0.00     0.280 HD
ATOM     86  H44 non d ame     -28.298  15.552  22.584  0.00  0.00     0.129 H 
ATOM     87  H37 non d ame     -29.591  15.800  23.540  0.00  0.00     0.046 H 
BRANCH  83  88
ATOM     88  O6  non d ame     -28.739  13.751  21.795  0.00  0.00    -0.369 OA
ATOM     89  H45 non d ame     -27.946  13.557  22.299  0.00  0.00     0.212 HD
ENDBRANCH  83  88
ENDBRANCH  72  75
ENDBRANCH  47  72
ENDBRANCH  45  47
ENDBRANCH   1  43
BRANCH   1  90
ATOM     90  C16 non d ame     -33.108  10.652  27.155  0.00  0.00    -0.035 C 
ATOM     91  H21 non d ame     -32.691   9.828  27.732  0.00  0.00     0.037 H 
ATOM     92  H22 non d ame     -32.802  11.676  27.367  0.00  0.00     0.037 H 
BRANCH  90  93
ATOM     93  C17 non d ame     -34.655  10.601  27.369  0.00  0.00    -0.059 C 
ATOM     94  H23 non d ame     -35.049   9.797  26.747  0.00  0.00     0.038 H 
BRANCH  93  95
ATOM     95  C18 non d ame     -35.034  10.287  28.852  0.00  0.00    -0.073 C 
ATOM     96  H24 non d ame     -36.097  10.058  28.915  0.00  0.00     0.028 H 
ATOM     97  H25 non d ame     -34.458   9.429  29.200  0.00  0.00     0.028 H 
ATOM     98  H26 non d ame     -34.810  11.151  29.475  0.00  0.00     0.028 H 
ENDBRANCH  93  95
BRANCH  93  99
ATOM     99  C19 non d ame     -35.315  11.901  26.903  0.00  0.00    -0.073 C 
ATOM    100  H27 non d ame     -35.624  12.484  27.771  0.00  0.00     0.028 H 
ATOM    101  H28 non d ame     -34.603  12.480  26.314  0.00  0.00     0.028 H 
ATOM    102  H29 non d ame     -36.186  11.668  26.291  0.00  0.00     0.028 H 
ENDBRANCH  93  99
ENDBRANCH  90  93
ENDBRANCH   1  90
TORSDOF 26
ENDMDL
MODEL 4
REMARK VINA RESULT:      -6.9      2.589      5.675
REMARK  26 active torsions:
REMARK  status: ('A' for Active; 'I' for Inactive)
REMARK    1  A    between atoms: C2_2  and  C3_3 
REMARK    2  A    between atoms: C4_6  and  C5_7 
REMARK       I    between atoms: C5_7  and  N2_9 
REMARK    3  A    between atoms: N2_9  and  C6_10 
REMARK    4  A    between atoms: C6_10  and  C7_11 
REMARK    5  A    between atoms: C6_10  and  C8_13 
REMARK       I    between atoms: C7_11  and  N3_14 
REMARK    6  A    between atoms: N3_14  and  C9_15 
REMARK    7  A    between atoms: C9_15  and  C10_16 
REMARK    8  A    between atoms: C9_15  and  C11_18 
REMARK       I    between atoms: C10_16  and  N4_21 
REMARK    9  A    between atoms: C11_18  and  C12_19 
REMARK   10  A    between atoms: C11_18  and  C13_20 
REMARK   11  A    between atoms: N4_21  and  C14_22 
REMARK   12  A    between atoms: C14_22  and  C15_23 
REMARK   13  A    between atoms: C14_22  and  C16_25 
REMARK       I    between atoms: C15_23  and  N6_40 
REMARK   14  A    between atoms: C16_25  and  C17_26 
REMARK   15  A    between atoms: C17_26  and  C18_27 
REMARK   16  A    between atoms: C17_26  and  C19_28 
REMARK   17  A    between atoms: C20_29  and  C21_30 
REMARK   18  A    between atoms: C20_29  and  C24_33 
REMARK   19  A    between atoms: C20_29  and  N6_40 
REMARK   20  A    between atoms: C21_30  and  C22_31 
REMARK   21  A    between atoms: C22_31  and  C23_32 
REMARK   22  A    between atoms: C23_32  and  O8_43 
REMARK   23  A    between atoms: C24_33  and  C25_34 
REMARK   24  A    between atoms: C28_38  and  O6_39 
REMARK   25  A    between atoms: C29_42  and  O8_43 
REMARK   26  A    between atoms: C29_42  and  C35_49 
ROOT
ATOM      1  C14 non d ame     -33.012  10.130  26.417  0.00  0.00     0.089 C 
ATOM      2  H20 non d ame     -33.845  10.450  25.790  0.00  0.00     0.087 H 
ENDROOT
BRANCH   1   3
ATOM      3  N4  non d ame     -32.299   9.086  25.698  0.00  0.00    -0.346 N 
ATOM      4  C10 non d ame     -33.036   8.174  24.749  0.00  0.00     0.241 C 
ATOM      5  O4  non d ame     -34.204   8.298  24.584  0.00  0.00    -0.271 OA
ATOM      6  H19 non d ame     -31.305   8.996  25.854  0.00  0.00     0.163 HD
BRANCH   4   7
ATOM      7  C9  non d ame     -32.280   7.103  24.008  0.00  0.00     0.092 C 
ATOM      8  H11 non d ame     -32.816   6.854  23.091  0.00  0.00     0.088 H 
BRANCH   7   9
ATOM      9  N3  non d ame     -30.964   7.615  23.616  0.00  0.00    -0.346 N 
ATOM     10  C7  non d ame     -30.728   8.028  22.254  0.00  0.00     0.240 C 
ATOM     11  O3  non d ame     -31.586   7.954  21.461  0.00  0.00    -0.271 OA
ATOM     12  H10 non d ame     -30.214   7.683  24.288  0.00  0.00     0.163 HD
BRANCH  10  13
ATOM     13  C6  non d ame     -29.324   8.570  21.842  0.00  0.00     0.086 C 
ATOM     14  H6  non d ame     -28.981   8.170  20.887  0.00  0.00     0.086 H 
BRANCH  13  15
ATOM     15  N2  non d ame     -29.403  10.012  21.683  0.00  0.00    -0.343 N 
ATOM     16  C5  non d ame     -29.905  10.833  22.788  0.00  0.00     0.273 C 
ATOM     17  O2  non d ame     -30.244  10.323  23.798  0.00  0.00    -0.266 OA
ATOM     18  H5  non d ame     -29.115  10.439  20.814  0.00  0.00     0.163 HD
BRANCH  16  19
ATOM     19  C4  non d ame     -29.993  12.359  22.634  0.00  0.00     0.154 A 
ATOM     20  C1  non d ame     -30.722  13.271  23.462  0.00  0.00    -0.017 A 
ATOM     21  C2  non d ame     -30.478  14.545  22.902  0.00  0.00     0.077 A 
ATOM     22  H1  non d ame     -31.335  13.044  24.334  0.00  0.00     0.091 H 
ATOM     23  O1  non d ame     -29.697  14.374  21.875  0.00  0.00    -0.218 OA
ATOM     24  N1  non d ame     -29.401  13.107  21.699  0.00  0.00    -0.123 NA
BRANCH  21  25
ATOM     25  C3  non d ame     -31.026  15.873  23.408  0.00  0.00    -0.029 C 
ATOM     26  H2  non d ame     -30.369  16.265  24.185  0.00  0.00     0.036 H 
ATOM     27  H3  non d ame     -31.077  16.583  22.583  0.00  0.00     0.036 H 
ATOM     28  H4  non d ame     -32.023  15.721  23.819  0.00  0.00     0.036 H 
ENDBRANCH  21  25
ENDBRANCH  16  19
ENDBRANCH  13  15
BRANCH  13  29
ATOM     29  C8  non d ame     -28.315   8.222  22.907  0.00  0.00    -0.049 C 
ATOM     30  H7  non d ame     -27.330   8.114  22.454  0.00  0.00     0.030 H 
ATOM     31  H8  non d ame     -28.287   9.017  23.653  0.00  0.00     0.030 H 
ATOM     32  H9  non d ame     -28.600   7.285  23.386  0.00  0.00     0.030 H 
ENDBRANCH  13  29
ENDBRANCH  10  13
ENDBRANCH   7   9
BRANCH   7  33
ATOM     33  C11 non d ame     -32.098   5.864  24.932  0.00  0.00    -0.033 C 
ATOM     34  H12 non d ame     -31.121   5.431  24.712  0.00  0.00     0.042 H 
BRANCH  33  35
ATOM     35  C12 non d ame     -32.102   6.271  26.438  0.00  0.00    -0.071 C 
ATOM     36  H13 non d ame     -32.010   7.354  26.522  0.00  0.00     0.028 H 
ATOM     37  H14 non d ame     -33.036   5.950  26.898  0.00  0.00     0.028 H 
ATOM     38  H15 non d ame     -31.264   5.795  26.946  0.00  0.00     0.028 H 
ENDBRANCH  33  35
BRANCH  33  39
ATOM     39  C13 non d ame     -33.184   4.780  24.635  0.00  0.00    -0.071 C 
ATOM     40  H16 non d ame     -34.084   5.262  24.253  0.00  0.00     0.028 H 
ATOM     41  H17 non d ame     -32.804   4.078  23.892  0.00  0.00     0.028 H 
ATOM     42  H18 non d ame     -33.421   4.242  25.553  0.00  0.00     0.028 H 
ENDBRANCH  33  39
ENDBRANCH   7  33
ENDBRANCH   4   7
ENDBRANCH   1   3
BRANCH   1  43
ATOM     43  C15 non d ame     -32.022  11.291  26.717  0.00  0.00     0.240 C 
ATOM     44  O5  non d ame     -30.874  11.177  26.430  0.00  0.00    -0.271 OA
ATOM     45  N6  non d ame     -32.505  12.549  27.354  0.00  0.00    -0.355 N 
ATOM     46  H46 non d ame     -33.479  12.659  27.597  0.00  0.00     0.162 HD
BRANCH  45  47
ATOM     47  C20 non d ame     -31.551  13.645  27.631  0.00  0.00     0.013 C 
ATOM     48  H30 non d ame     -30.638  13.444  27.071  0.00  0.00     0.072 H 
BRANCH  47  49
ATOM     49  C21 non d ame     -31.251  13.684  29.112  0.00  0.00    -0.038 C 
ATOM     50  H31 non d ame     -30.332  13.110  29.242  0.00  0.00     0.036 H 
ATOM     51  H32 non d ame     -31.279  14.737  29.391  0.00  0.00     0.036 H 
BRANCH  49  52
ATOM     52  C22 non d ame     -32.330  12.978  29.961  0.00  0.00     0.018 C 
ATOM     53  H33 non d ame     -32.638  13.705  30.711  0.00  0.00     0.048 H 
ATOM     54  H34 non d ame     -33.058  12.588  29.248  0.00  0.00     0.048 H 
BRANCH  52  55
ATOM     55  C23 non d ame     -31.801  11.747  30.749  0.00  0.00     0.259 C 
ATOM     56  O7  non d ame     -30.650  11.659  31.029  0.00  0.00    -0.265 OA
BRANCH  55  57
ATOM     57  O8  non d ame     -32.708  10.716  31.121  0.00  0.00    -0.317 OA
BRANCH  57  58
ATOM     58  C29 non d ame     -33.995  11.192  31.527  0.00  0.00     0.052 C 
ATOM     59  H47 non d ame     -33.886  11.478  32.573  0.00  0.00     0.082 H 
ATOM     60  H48 non d ame     -34.283  11.936  30.785  0.00  0.00     0.082 H 
BRANCH  58  61
ATOM     61  C35 non d ame     -34.993  10.005  31.445  0.00  0.00    -0.034 A 
ATOM     62  C30 non d ame     -36.363  10.247  31.445  0.00  0.00    -0.075 A 
ATOM     63  C31 non d ame     -37.259   9.181  31.372  0.00  0.00    -0.082 A 
ATOM     64  H49 non d ame     -36.735  11.269  31.504  0.00  0.00     0.084 H 
ATOM     65  C32 non d ame     -36.780   7.870  31.300  0.00  0.00    -0.083 A 
ATOM     66  H50 non d ame     -38.332   9.373  31.371  0.00  0.00     0.083 H 
ATOM     67  C33 non d ame     -35.412   7.634  31.304  0.00  0.00    -0.082 A 
ATOM     68  H51 non d ame     -37.474   7.031  31.242  0.00  0.00     0.083 H 
ATOM     69  C34 non d ame     -34.513   8.696  31.375  0.00  0.00    -0.075 A 
ATOM     70  H52 non d ame     -35.041   6.610  31.250  0.00  0.00     0.083 H 
ATOM     71  H53 non d ame     -33.440   8.503  31.376  0.00  0.00     0.084 H 
ENDBRANCH  58  61
ENDBRANCH  57  58
ENDBRANCH  55  57
ENDBRANCH  52  55
ENDBRANCH  49  52
ENDBRANCH  47  49
BRANCH  47  72
ATOM     72  C24 non d ame     -32.156  14.979  27.197  0.00  0.00    -0.039 C 
ATOM     73  H35 non d ame     -31.988  15.658  28.034  0.00  0.00     0.036 H 
ATOM     74  H36 non d ame     -31.715  15.194  26.224  0.00  0.00     0.036 H 
BRANCH  72  75
ATOM     75  C25 non d ame     -33.740  14.871  26.986  0.00  0.00    -0.001 C 
ATOM     76  C26 non d ame     -34.120  15.219  25.425  0.00  0.00    -0.035 C 
ATOM     77  C27 non d ame     -35.096  16.159  25.413  0.00  0.00     0.085 C 
ATOM     78  H38 non d ame     -33.282  15.715  24.937  0.00  0.00     0.036 H 
ATOM     79  H39 non d ame     -34.593  14.356  24.954  0.00  0.00     0.036 H 
ATOM     80  N5  non d ame     -35.184  16.721  26.811  0.00  0.00    -0.049 N 
ATOM     81  H40 non d ame     -34.740  16.939  24.738  0.00  0.00     0.075 H 
ATOM     82  H41 non d ame     -36.016  15.621  25.187  0.00  0.00     0.075 H 
ATOM     83  C28 non d ame     -34.372  15.694  27.755  0.00  0.00     0.193 C 
ATOM     84  H42 non d ame     -34.692  17.603  26.797  0.00  0.00     0.280 HD
ATOM     85  H43 non d ame     -36.160  16.692  27.069  0.00  0.00     0.280 HD
ATOM     86  H44 non d ame     -34.903  14.995  28.399  0.00  0.00     0.129 H 
ATOM     87  H37 non d ame     -34.151  13.952  27.404  0.00  0.00     0.046 H 
BRANCH  83  88
ATOM     88  O6  non d ame     -33.487  16.412  28.618  0.00  0.00    -0.369 OA
ATOM     89  H45 non d ame     -33.986  17.063  29.117  0.00  0.00     0.212 HD
ENDBRANCH  83  88
ENDBRANCH  72  75
ENDBRANCH  47  72
ENDBRANCH  45  47
ENDBRANCH   1  43
BRANCH   1  90
ATOM     90  C16 non d ame     -33.541   9.559  27.723  0.00  0.00    -0.035 C 
ATOM     91  H21 non d ame     -33.292   8.499  27.698  0.00  0.00     0.037 H 
ATOM     92  H22 non d ame     -33.129  10.197  28.505  0.00  0.00     0.037 H 
BRANCH  90  93
ATOM     93  C17 non d ame     -35.095   9.642  27.860  0.00  0.00    -0.059 C 
ATOM     94  H23 non d ame     -35.321   9.972  28.873  0.00  0.00     0.038 H 
BRANCH  93  95
ATOM     95  C18 non d ame     -35.719  10.677  26.870  0.00  0.00    -0.073 C 
ATOM     96  H24 non d ame     -34.976  11.433  26.619  0.00  0.00     0.028 H 
ATOM     97  H25 non d ame     -36.036  10.165  25.961  0.00  0.00     0.028 H 
ATOM     98  H26 non d ame     -36.580  11.154  27.338  0.00  0.00     0.028 H 
ENDBRANCH  93  95
BRANCH  93  99
ATOM     99  C19 non d ame     -35.733   8.262  27.678  0.00  0.00    -0.073 C 
ATOM    100  H27 non d ame     -36.449   8.298  26.856  0.00  0.00     0.028 H 
ATOM    101  H28 non d ame     -34.959   7.530  27.452  0.00  0.00     0.028 H 
ATOM    102  H29 non d ame     -36.246   7.975  28.595  0.00  0.00     0.028 H 
ENDBRANCH  93  99
ENDBRANCH  90  93
ENDBRANCH   1  90
TORSDOF 26
ENDMDL
MODEL 5
REMARK VINA RESULT:      -6.9      2.206      5.024
REMARK  26 active torsions:
REMARK  status: ('A' for Active; 'I' for Inactive)
REMARK    1  A    between atoms: C2_2  and  C3_3 
REMARK    2  A    between atoms: C4_6  and  C5_7 
REMARK       I    between atoms: C5_7  and  N2_9 
REMARK    3  A    between atoms: N2_9  and  C6_10 
REMARK    4  A    between atoms: C6_10  and  C7_11 
REMARK    5  A    between atoms: C6_10  and  C8_13 
REMARK       I    between atoms: C7_11  and  N3_14 
REMARK    6  A    between atoms: N3_14  and  C9_15 
REMARK    7  A    between atoms: C9_15  and  C10_16 
REMARK    8  A    between atoms: C9_15  and  C11_18 
REMARK       I    between atoms: C10_16  and  N4_21 
REMARK    9  A    between atoms: C11_18  and  C12_19 
REMARK   10  A    between atoms: C11_18  and  C13_20 
REMARK   11  A    between atoms: N4_21  and  C14_22 
REMARK   12  A    between atoms: C14_22  and  C15_23 
REMARK   13  A    between atoms: C14_22  and  C16_25 
REMARK       I    between atoms: C15_23  and  N6_40 
REMARK   14  A    between atoms: C16_25  and  C17_26 
REMARK   15  A    between atoms: C17_26  and  C18_27 
REMARK   16  A    between atoms: C17_26  and  C19_28 
REMARK   17  A    between atoms: C20_29  and  C21_30 
REMARK   18  A    between atoms: C20_29  and  C24_33 
REMARK   19  A    between atoms: C20_29  and  N6_40 
REMARK   20  A    between atoms: C21_30  and  C22_31 
REMARK   21  A    between atoms: C22_31  and  C23_32 
REMARK   22  A    between atoms: C23_32  and  O8_43 
REMARK   23  A    between atoms: C24_33  and  C25_34 
REMARK   24  A    between atoms: C28_38  and  O6_39 
REMARK   25  A    between atoms: C29_42  and  O8_43 
REMARK   26  A    between atoms: C29_42  and  C35_49 
ROOT
ATOM      1  C14 non d ame     -31.040  14.226  24.595  0.00  0.00     0.089 C 
ATOM      2  H20 non d ame     -30.133  13.659  24.807  0.00  0.00     0.087 H 
ENDROOT
BRANCH   1   3
ATOM      3  N4  non d ame     -32.149  13.283  24.570  0.00  0.00    -0.346 N 
ATOM      4  C10 non d ame     -32.123  12.053  25.442  0.00  0.00     0.241 C 
ATOM      5  O4  non d ame     -31.197  11.841  26.153  0.00  0.00    -0.271 OA
ATOM      6  H19 non d ame     -32.926  13.481  23.957  0.00  0.00     0.163 HD
BRANCH   4   7
ATOM      7  C9  non d ame     -33.282  11.092  25.408  0.00  0.00     0.092 C 
ATOM      8  H11 non d ame     -33.721  11.095  24.410  0.00  0.00     0.088 H 
BRANCH   7   9
ATOM      9  N3  non d ame     -32.798   9.733  25.664  0.00  0.00    -0.346 N 
ATOM     10  C7  non d ame     -32.776   8.762  24.597  0.00  0.00     0.240 C 
ATOM     11  O3  non d ame     -33.146   9.058  23.527  0.00  0.00    -0.271 OA
ATOM     12  H10 non d ame     -32.478   9.462  26.582  0.00  0.00     0.163 HD
BRANCH  10  13
ATOM     13  C6  non d ame     -32.263   7.315  24.877  0.00  0.00     0.086 C 
ATOM     14  H6  non d ame     -31.291   7.301  25.370  0.00  0.00     0.086 H 
BRANCH  13  15
ATOM     15  N2  non d ame     -33.194   6.651  25.774  0.00  0.00    -0.343 N 
ATOM     16  C5  non d ame     -33.150   6.947  27.208  0.00  0.00     0.273 C 
ATOM     17  O2  non d ame     -32.362   7.719  27.630  0.00  0.00    -0.266 OA
ATOM     18  H5  non d ame     -33.862   5.989  25.405  0.00  0.00     0.163 HD
BRANCH  16  19
ATOM     19  C4  non d ame     -34.130   6.253  28.167  0.00  0.00     0.154 A 
ATOM     20  C1  non d ame     -35.514   6.558  28.360  0.00  0.00    -0.017 A 
ATOM     21  C2  non d ame     -35.956   5.640  29.339  0.00  0.00     0.077 A 
ATOM     22  H1  non d ame     -36.107   7.328  27.867  0.00  0.00     0.091 H 
ATOM     23  O1  non d ame     -34.937   4.897  29.661  0.00  0.00    -0.218 OA
ATOM     24  N1  non d ame     -33.860   5.236  28.991  0.00  0.00    -0.123 NA
BRANCH  21  25
ATOM     25  C3  non d ame     -37.365   5.538  29.909  0.00  0.00    -0.029 C 
ATOM     26  H2  non d ame     -38.071   5.348  29.101  0.00  0.00     0.036 H 
ATOM     27  H3  non d ame     -37.407   4.720  30.627  0.00  0.00     0.036 H 
ATOM     28  H4  non d ame     -37.624   6.472  30.405  0.00  0.00     0.036 H 
ENDBRANCH  21  25
ENDBRANCH  16  19
ENDBRANCH  13  15
BRANCH  13  29
ATOM     29  C8  non d ame     -32.163   6.555  23.579  0.00  0.00    -0.049 C 
ATOM     30  H7  non d ame     -33.016   6.801  22.947  0.00  0.00     0.030 H 
ATOM     31  H8  non d ame     -31.241   6.830  23.067  0.00  0.00     0.030 H 
ATOM     32  H9  non d ame     -32.160   5.484  23.784  0.00  0.00     0.030 H 
ENDBRANCH  13  29
ENDBRANCH  10  13
ENDBRANCH   7   9
BRANCH   7  33
ATOM     33  C11 non d ame     -34.315  11.487  26.502  0.00  0.00    -0.033 C 
ATOM     34  H12 non d ame     -33.760  11.905  27.343  0.00  0.00     0.042 H 
BRANCH  33  35
ATOM     35  C12 non d ame     -35.293  12.591  25.991  0.00  0.00    -0.071 C 
ATOM     36  H13 non d ame     -36.131  12.683  26.681  0.00  0.00     0.028 H 
ATOM     37  H14 non d ame     -34.765  13.543  25.932  0.00  0.00     0.028 H 
ATOM     38  H15 non d ame     -35.664  12.319  25.003  0.00  0.00     0.028 H 
ENDBRANCH  33  35
BRANCH  33  39
ATOM     39  C13 non d ame     -35.095  10.234  27.014  0.00  0.00    -0.071 C 
ATOM     40  H16 non d ame     -34.839   9.370  26.400  0.00  0.00     0.028 H 
ATOM     41  H17 non d ame     -34.825  10.035  28.051  0.00  0.00     0.028 H 
ATOM     42  H18 non d ame     -36.167  10.421  26.949  0.00  0.00     0.028 H 
ENDBRANCH  33  39
ENDBRANCH   7  33
ENDBRANCH   4   7
ENDBRANCH   1   3
BRANCH   1  43
ATOM     43  C15 non d ame     -31.328  15.301  25.681  0.00  0.00     0.240 C 
ATOM     44  O5  non d ame     -30.969  16.422  25.513  0.00  0.00    -0.271 OA
ATOM     45  N6  non d ame     -32.062  14.937  26.926  0.00  0.00    -0.355 N 
ATOM     46  H46 non d ame     -32.377  13.990  27.077  0.00  0.00     0.162 HD
BRANCH  45  47
ATOM     47  C20 non d ame     -32.330  15.972  27.949  0.00  0.00     0.013 C 
ATOM     48  H30 non d ame     -31.654  16.807  27.766  0.00  0.00     0.072 H 
BRANCH  47  49
ATOM     49  C21 non d ame     -32.078  15.394  29.323  0.00  0.00    -0.038 C 
ATOM     50  H31 non d ame     -30.993  15.317  29.415  0.00  0.00     0.036 H 
ATOM     51  H32 non d ame     -32.640  16.021  30.014  0.00  0.00     0.036 H 
BRANCH  49  52
ATOM     52  C22 non d ame     -32.631  13.961  29.482  0.00  0.00     0.018 C 
ATOM     53  H33 non d ame     -33.194  13.964  30.415  0.00  0.00     0.048 H 
ATOM     54  H34 non d ame     -33.137  13.735  28.542  0.00  0.00     0.048 H 
BRANCH  52  55
ATOM     55  C23 non d ame     -31.530  12.879  29.648  0.00  0.00     0.259 C 
ATOM     56  O7  non d ame     -30.478  13.000  29.109  0.00  0.00    -0.265 OA
BRANCH  55  57
ATOM     57  O8  non d ame     -31.797  11.728  30.441  0.00  0.00    -0.317 OA
BRANCH  57  58
ATOM     58  C29 non d ame     -32.607  10.746  29.788  0.00  0.00     0.052 C 
ATOM     59  H47 non d ame     -33.091  11.267  28.962  0.00  0.00     0.082 H 
ATOM     60  H48 non d ame     -31.946   9.903  29.589  0.00  0.00     0.082 H 
BRANCH  58  61
ATOM     61  C35 non d ame     -33.702  10.286  30.787  0.00  0.00    -0.034 A 
ATOM     62  C30 non d ame     -34.212   8.994  30.715  0.00  0.00    -0.075 A 
ATOM     63  C31 non d ame     -35.196   8.581  31.612  0.00  0.00    -0.082 A 
ATOM     64  H49 non d ame     -33.842   8.305  29.956  0.00  0.00     0.084 H 
ATOM     65  C32 non d ame     -35.672   9.466  32.583  0.00  0.00    -0.083 A 
ATOM     66  H50 non d ame     -35.593   7.566  31.554  0.00  0.00     0.083 H 
ATOM     67  C33 non d ame     -35.163  10.756  32.649  0.00  0.00    -0.082 A 
ATOM     68  H51 non d ame     -36.440   9.151  33.288  0.00  0.00     0.083 H 
ATOM     69  C34 non d ame     -34.178  11.173  31.755  0.00  0.00    -0.075 A 
ATOM     70  H52 non d ame     -35.537  11.446  33.406  0.00  0.00     0.083 H 
ATOM     71  H53 non d ame     -33.782  12.187  31.814  0.00  0.00     0.084 H 
ENDBRANCH  58  61
ENDBRANCH  57  58
ENDBRANCH  55  57
ENDBRANCH  52  55
ENDBRANCH  49  52
ENDBRANCH  47  49
BRANCH  47  72
ATOM     72  C24 non d ame     -33.783  16.434  27.849  0.00  0.00    -0.039 C 
ATOM     73  H35 non d ame     -34.273  15.707  27.199  0.00  0.00     0.036 H 
ATOM     74  H36 non d ame     -34.119  16.559  28.878  0.00  0.00     0.036 H 
BRANCH  72  75
ATOM     75  C25 non d ame     -33.902  17.863  27.136  0.00  0.00    -0.001 C 
ATOM     76  C26 non d ame     -32.502  18.702  27.327  0.00  0.00    -0.035 C 
ATOM     77  C27 non d ame     -32.793  19.932  27.813  0.00  0.00     0.085 C 
ATOM     78  H38 non d ame     -31.900  18.251  28.115  0.00  0.00     0.036 H 
ATOM     79  H39 non d ame     -32.056  18.913  26.354  0.00  0.00     0.036 H 
ATOM     80  N5  non d ame     -34.227  19.894  28.281  0.00  0.00    -0.049 N 
ATOM     81  H40 non d ame     -32.141  20.065  28.678  0.00  0.00     0.075 H 
ATOM     82  H41 non d ame     -32.714  20.609  26.963  0.00  0.00     0.075 H 
ATOM     83  C28 non d ame     -34.868  18.558  27.639  0.00  0.00     0.193 C 
ATOM     84  H42 non d ame     -34.200  19.787  29.285  0.00  0.00     0.280 HD
ATOM     85  H43 non d ame     -34.683  20.697  27.871  0.00  0.00     0.280 HD
ATOM     86  H44 non d ame     -35.535  18.620  26.781  0.00  0.00     0.129 H 
ATOM     87  H37 non d ame     -34.302  17.788  26.125  0.00  0.00     0.046 H 
BRANCH  83  88
ATOM     88  O6  non d ame     -35.592  17.832  28.635  0.00  0.00    -0.369 OA
ATOM     89  H45 non d ame     -35.062  17.765  29.432  0.00  0.00     0.212 HD
ENDBRANCH  83  88
ENDBRANCH  72  75
ENDBRANCH  47  72
ENDBRANCH  45  47
ENDBRANCH   1  43
BRANCH   1  90
ATOM     90  C16 non d ame     -30.925  14.892  23.233  0.00  0.00    -0.035 C 
ATOM     91  H21 non d ame     -31.662  14.393  22.604  0.00  0.00     0.037 H 
ATOM     92  H22 non d ame     -31.010  15.961  23.427  0.00  0.00     0.037 H 
BRANCH  90  93
ATOM     93  C17 non d ame     -29.540  14.676  22.545  0.00  0.00    -0.059 C 
ATOM     94  H23 non d ame     -28.768  14.836  23.296  0.00  0.00     0.038 H 
BRANCH  93  95
ATOM     95  C18 non d ame     -29.376  13.223  21.994  0.00  0.00    -0.073 C 
ATOM     96  H24 non d ame     -29.140  12.548  22.816  0.00  0.00     0.028 H 
ATOM     97  H25 non d ame     -30.306  12.907  21.521  0.00  0.00     0.028 H 
ATOM     98  H26 non d ame     -28.570  13.201  21.262  0.00  0.00     0.028 H 
ENDBRANCH  93  95
BRANCH  93  99
ATOM     99  C19 non d ame     -29.315  15.707  21.435  0.00  0.00    -0.073 C 
ATOM    100  H27 non d ame     -29.571  16.701  21.804  0.00  0.00     0.028 H 
ATOM    101  H28 non d ame     -28.268  15.692  21.132  0.00  0.00     0.028 H 
ATOM    102  H29 non d ame     -29.944  15.463  20.579  0.00  0.00     0.028 H 
ENDBRANCH  93  99
ENDBRANCH  90  93
ENDBRANCH   1  90
TORSDOF 26
ENDMDL
MODEL 6
REMARK VINA RESULT:      -6.9      2.018      8.381
REMARK  26 active torsions:
REMARK  status: ('A' for Active; 'I' for Inactive)
REMARK    1  A    between atoms: C2_2  and  C3_3 
REMARK    2  A    between atoms: C4_6  and  C5_7 
REMARK       I    between atoms: C5_7  and  N2_9 
REMARK    3  A    between atoms: N2_9  and  C6_10 
REMARK    4  A    between atoms: C6_10  and  C7_11 
REMARK    5  A    between atoms: C6_10  and  C8_13 
REMARK       I    between atoms: C7_11  and  N3_14 
REMARK    6  A    between atoms: N3_14  and  C9_15 
REMARK    7  A    between atoms: C9_15  and  C10_16 
REMARK    8  A    between atoms: C9_15  and  C11_18 
REMARK       I    between atoms: C10_16  and  N4_21 
REMARK    9  A    between atoms: C11_18  and  C12_19 
REMARK   10  A    between atoms: C11_18  and  C13_20 
REMARK   11  A    between atoms: N4_21  and  C14_22 
REMARK   12  A    between atoms: C14_22  and  C15_23 
REMARK   13  A    between atoms: C14_22  and  C16_25 
REMARK       I    between atoms: C15_23  and  N6_40 
REMARK   14  A    between atoms: C16_25  and  C17_26 
REMARK   15  A    between atoms: C17_26  and  C18_27 
REMARK   16  A    between atoms: C17_26  and  C19_28 
REMARK   17  A    between atoms: C20_29  and  C21_30 
REMARK   18  A    between atoms: C20_29  and  C24_33 
REMARK   19  A    between atoms: C20_29  and  N6_40 
REMARK   20  A    between atoms: C21_30  and  C22_31 
REMARK   21  A    between atoms: C22_31  and  C23_32 
REMARK   22  A    between atoms: C23_32  and  O8_43 
REMARK   23  A    between atoms: C24_33  and  C25_34 
REMARK   24  A    between atoms: C28_38  and  O6_39 
REMARK   25  A    between atoms: C29_42  and  O8_43 
REMARK   26  A    between atoms: C29_42  and  C35_49 
ROOT
ATOM      1  C14 non d ame     -36.463  15.992  26.513  0.00  0.00     0.089 C 
ATOM      2  H20 non d ame     -37.078  16.554  27.216  0.00  0.00     0.087 H 
ENDROOT
BRANCH   1   3
ATOM      3  N4  non d ame     -35.074  16.162  26.913  0.00  0.00    -0.346 N 
ATOM      4  C10 non d ame     -34.690  17.241  27.895  0.00  0.00     0.241 C 
ATOM      5  O4  non d ame     -35.517  17.963  28.346  0.00  0.00    -0.271 OA
ATOM      6  H19 non d ame     -34.386  15.539  26.516  0.00  0.00     0.163 HD
BRANCH   4   7
ATOM      7  C9  non d ame     -33.249  17.399  28.302  0.00  0.00     0.092 C 
ATOM      8  H11 non d ame     -33.203  17.887  29.276  0.00  0.00     0.088 H 
BRANCH   7   9
ATOM      9  N3  non d ame     -32.636  16.076  28.450  0.00  0.00    -0.346 N 
ATOM     10  C7  non d ame     -31.731  15.820  29.544  0.00  0.00     0.240 C 
ATOM     11  O3  non d ame     -31.484  16.667  30.313  0.00  0.00    -0.271 OA
ATOM     12  H10 non d ame     -32.837  15.336  27.794  0.00  0.00     0.163 HD
BRANCH  10  13
ATOM     13  C6  non d ame     -31.078  14.411  29.695  0.00  0.00     0.086 C 
ATOM     14  H6  non d ame     -30.422  14.340  30.563  0.00  0.00     0.086 H 
BRANCH  13  15
ATOM     15  N2  non d ame     -32.127  13.423  29.886  0.00  0.00    -0.343 N 
ATOM     16  C5  non d ame     -31.827  12.180  30.599  0.00  0.00     0.273 C 
ATOM     17  O2  non d ame     -30.738  11.982  31.012  0.00  0.00    -0.266 OA
ATOM     18  H5  non d ame     -33.054  13.599  29.525  0.00  0.00     0.163 HD
BRANCH  16  19
ATOM     19  C4  non d ame     -32.927  11.128  30.809  0.00  0.00     0.154 A 
ATOM     20  C1  non d ame     -33.318  10.092  29.903  0.00  0.00    -0.017 A 
ATOM     21  C2  non d ame     -34.362   9.406  30.563  0.00  0.00     0.077 A 
ATOM     22  H1  non d ame     -32.908   9.872  28.917  0.00  0.00     0.091 H 
ATOM     23  O1  non d ame     -34.540   9.986  31.714  0.00  0.00    -0.218 OA
ATOM     24  N1  non d ame     -33.715  10.994  31.880  0.00  0.00    -0.123 NA
BRANCH  21  25
ATOM     25  C3  non d ame     -35.134   8.208  30.027  0.00  0.00    -0.029 C 
ATOM     26  H2  non d ame     -34.554   7.299  30.191  0.00  0.00     0.036 H 
ATOM     27  H3  non d ame     -36.088   8.128  30.547  0.00  0.00     0.036 H 
ATOM     28  H4  non d ame     -35.311   8.337  28.960  0.00  0.00     0.036 H 
ENDBRANCH  21  25
ENDBRANCH  16  19
ENDBRANCH  13  15
BRANCH  13  29
ATOM     29  C8  non d ame     -30.283  14.086  28.455  0.00  0.00    -0.049 C 
ATOM     30  H7  non d ame     -30.445  14.861  27.706  0.00  0.00     0.030 H 
ATOM     31  H8  non d ame     -29.223  14.039  28.706  0.00  0.00     0.030 H 
ATOM     32  H9  non d ame     -30.606  13.124  28.058  0.00  0.00     0.030 H 
ENDBRANCH  13  29
ENDBRANCH  10  13
ENDBRANCH   7   9
BRANCH   7  33
ATOM     33  C11 non d ame     -32.486  18.202  27.209  0.00  0.00    -0.033 C 
ATOM     34  H12 non d ame     -31.426  17.970  27.310  0.00  0.00     0.042 H 
BRANCH  33  35
ATOM     35  C12 non d ame     -32.926  17.772  25.775  0.00  0.00    -0.071 C 
ATOM     36  H13 non d ame     -33.385  18.620  25.266  0.00  0.00     0.028 H 
ATOM     37  H14 non d ame     -32.054  17.440  25.212  0.00  0.00     0.028 H 
ATOM     38  H15 non d ame     -33.647  16.957  25.844  0.00  0.00     0.028 H 
ENDBRANCH  33  35
BRANCH  33  39
ATOM     39  C13 non d ame     -32.665  19.740  27.419  0.00  0.00    -0.071 C 
ATOM     40  H16 non d ame     -33.578  19.927  27.985  0.00  0.00     0.028 H 
ATOM     41  H17 non d ame     -31.809  20.134  27.969  0.00  0.00     0.028 H 
ATOM     42  H18 non d ame     -32.730  20.234  26.450  0.00  0.00     0.028 H 
ENDBRANCH  33  39
ENDBRANCH   7  33
ENDBRANCH   4   7
ENDBRANCH   1   3
BRANCH   1  43
ATOM     43  C15 non d ame     -36.798  14.474  26.520  0.00  0.00     0.240 C 
ATOM     44  O5  non d ame     -37.860  14.105  26.907  0.00  0.00    -0.271 OA
ATOM     45  N6  non d ame     -35.800  13.479  26.035  0.00  0.00    -0.355 N 
ATOM     46  H46 non d ame     -34.897  13.781  25.698  0.00  0.00     0.162 HD
BRANCH  45  47
ATOM     47  C20 non d ame     -36.135  12.038  26.046  0.00  0.00     0.013 C 
ATOM     48  H30 non d ame     -37.045  11.910  26.631  0.00  0.00     0.072 H 
BRANCH  47  49
ATOM     49  C21 non d ame     -35.000  11.267  26.680  0.00  0.00    -0.038 C 
ATOM     50  H31 non d ame     -34.793  11.771  27.625  0.00  0.00     0.036 H 
ATOM     51  H32 non d ame     -35.315  10.224  26.677  0.00  0.00     0.036 H 
BRANCH  49  52
ATOM     52  C22 non d ame     -33.696  11.332  25.856  0.00  0.00     0.018 C 
ATOM     53  H33 non d ame     -33.070  10.522  26.229  0.00  0.00     0.048 H 
ATOM     54  H34 non d ame     -34.008  11.342  24.811  0.00  0.00     0.048 H 
BRANCH  52  55
ATOM     55  C23 non d ame     -32.882  12.637  26.073  0.00  0.00     0.259 C 
ATOM     56  O7  non d ame     -33.133  13.361  26.981  0.00  0.00    -0.265 OA
BRANCH  55  57
ATOM     57  O8  non d ame     -31.839  12.968  25.163  0.00  0.00    -0.317 OA
BRANCH  57  58
ATOM     58  C29 non d ame     -31.618  14.374  25.019  0.00  0.00     0.052 C 
ATOM     59  H47 non d ame     -32.602  14.836  25.087  0.00  0.00     0.082 H 
ATOM     60  H48 non d ame     -30.844  14.626  25.743  0.00  0.00     0.082 H 
BRANCH  58  61
ATOM     61  C35 non d ame     -31.056  14.626  23.594  0.00  0.00    -0.034 A 
ATOM     62  C30 non d ame     -31.374  15.801  22.918  0.00  0.00    -0.075 A 
ATOM     63  C31 non d ame     -30.869  16.027  21.638  0.00  0.00    -0.082 A 
ATOM     64  H49 non d ame     -32.018  16.542  23.390  0.00  0.00     0.084 H 
ATOM     65  C32 non d ame     -30.046  15.074  21.033  0.00  0.00    -0.083 A 
ATOM     66  H50 non d ame     -31.119  16.949  21.111  0.00  0.00     0.083 H 
ATOM     67  C33 non d ame     -29.734  13.903  21.710  0.00  0.00    -0.082 A 
ATOM     68  H51 non d ame     -29.647  15.244  20.033  0.00  0.00     0.083 H 
ATOM     69  C34 non d ame     -30.235  13.673  22.990  0.00  0.00    -0.075 A 
ATOM     70  H52 non d ame     -29.094  13.159  21.235  0.00  0.00     0.083 H 
ATOM     71  H53 non d ame     -29.984  12.751  23.516  0.00  0.00     0.084 H 
ENDBRANCH  58  61
ENDBRANCH  57  58
ENDBRANCH  55  57
ENDBRANCH  52  55
ENDBRANCH  49  52
ENDBRANCH  47  49
BRANCH  47  72
ATOM     72  C24 non d ame     -36.350  11.546  24.616  0.00  0.00    -0.039 C 
ATOM     73  H35 non d ame     -35.745  12.203  23.990  0.00  0.00     0.036 H 
ATOM     74  H36 non d ame     -36.142  10.477  24.643  0.00  0.00     0.036 H 
BRANCH  72  75
ATOM     75  C25 non d ame     -37.873  11.720  24.152  0.00  0.00    -0.001 C 
ATOM     76  C26 non d ame     -38.402  10.336  23.440  0.00  0.00    -0.035 C 
ATOM     77  C27 non d ame     -38.951  10.644  22.241  0.00  0.00     0.085 C 
ATOM     78  H38 non d ame     -37.555   9.703  23.178  0.00  0.00     0.036 H 
ATOM     79  H39 non d ame     -39.239   9.922  24.004  0.00  0.00     0.036 H 
ATOM     80  N5  non d ame     -38.550  12.065  21.924  0.00  0.00    -0.049 N 
ATOM     81  H40 non d ame     -38.478   9.973  21.523  0.00  0.00     0.075 H 
ATOM     82  H41 non d ame     -40.029  10.605  22.394  0.00  0.00     0.075 H 
ATOM     83  C28 non d ame     -37.997  12.689  23.306  0.00  0.00     0.193 C 
ATOM     84  H42 non d ame     -37.785  12.007  21.268  0.00  0.00     0.280 HD
ATOM     85  H43 non d ame     -39.399  12.551  21.669  0.00  0.00     0.280 HD
ATOM     86  H44 non d ame     -38.607  13.380  23.886  0.00  0.00     0.129 H 
ATOM     87  H37 non d ame     -38.498  12.145  24.937  0.00  0.00     0.046 H 
BRANCH  83  88
ATOM     88  O6  non d ame     -36.760  13.368  23.080  0.00  0.00    -0.369 OA
ATOM     89  H45 non d ame     -36.272  12.922  22.385  0.00  0.00     0.212 HD
ENDBRANCH  83  88
ENDBRANCH  72  75
ENDBRANCH  47  72
ENDBRANCH  45  47
ENDBRANCH   1  43
BRANCH   1  90
ATOM     90  C16 non d ame     -36.646  16.550  25.110  0.00  0.00    -0.035 C 
ATOM     91  H21 non d ame     -35.638  16.699  24.724  0.00  0.00     0.037 H 
ATOM     92  H22 non d ame     -37.323  15.858  24.610  0.00  0.00     0.037 H 
BRANCH  90  93
ATOM     93  C17 non d ame     -37.341  17.948  25.077  0.00  0.00    -0.059 C 
ATOM     94  H23 non d ame     -37.953  18.035  25.974  0.00  0.00     0.038 H 
BRANCH  93  95
ATOM     95  C18 non d ame     -36.308  19.120  25.089  0.00  0.00    -0.073 C 
ATOM     96  H24 non d ame     -35.931  19.283  24.079  0.00  0.00     0.028 H 
ATOM     97  H25 non d ame     -36.793  20.029  25.445  0.00  0.00     0.028 H 
ATOM     98  H26 non d ame     -35.479  18.868  25.750  0.00  0.00     0.028 H 
ENDBRANCH  93  95
BRANCH  93  99
ATOM     99  C19 non d ame     -38.280  18.063  23.873  0.00  0.00    -0.073 C 
ATOM    100  H27 non d ame     -39.256  17.650  24.132  0.00  0.00     0.028 H 
ATOM    101  H28 non d ame     -38.392  19.112  23.599  0.00  0.00     0.028 H 
ATOM    102  H29 non d ame     -37.862  17.511  23.032  0.00  0.00     0.028 H 
ENDBRANCH  93  99
ENDBRANCH  90  93
ENDBRANCH   1  90
TORSDOF 26
ENDMDL
MODEL 7
REMARK VINA RESULT:      -6.9      3.370      7.725
REMARK  26 active torsions:
REMARK  status: ('A' for Active; 'I' for Inactive)
REMARK    1  A    between atoms: C2_2  and  C3_3 
REMARK    2  A    between atoms: C4_6  and  C5_7 
REMARK       I    between atoms: C5_7  and  N2_9 
REMARK    3  A    between atoms: N2_9  and  C6_10 
REMARK    4  A    between atoms: C6_10  and  C7_11 
REMARK    5  A    between atoms: C6_10  and  C8_13 
REMARK       I    between atoms: C7_11  and  N3_14 
REMARK    6  A    between atoms: N3_14  and  C9_15 
REMARK    7  A    between atoms: C9_15  and  C10_16 
REMARK    8  A    between atoms: C9_15  and  C11_18 
REMARK       I    between atoms: C10_16  and  N4_21 
REMARK    9  A    between atoms: C11_18  and  C12_19 
REMARK   10  A    between atoms: C11_18  and  C13_20 
REMARK   11  A    between atoms: N4_21  and  C14_22 
REMARK   12  A    between atoms: C14_22  and  C15_23 
REMARK   13  A    between atoms: C14_22  and  C16_25 
REMARK       I    between atoms: C15_23  and  N6_40 
REMARK   14  A    between atoms: C16_25  and  C17_26 
REMARK   15  A    between atoms: C17_26  and  C18_27 
REMARK   16  A    between atoms: C17_26  and  C19_28 
REMARK   17  A    between atoms: C20_29  and  C21_30 
REMARK   18  A    between atoms: C20_29  and  C24_33 
REMARK   19  A    between atoms: C20_29  and  N6_40 
REMARK   20  A    between atoms: C21_30  and  C22_31 
REMARK   21  A    between atoms: C22_31  and  C23_32 
REMARK   22  A    between atoms: C23_32  and  O8_43 
REMARK   23  A    between atoms: C24_33  and  C25_34 
REMARK   24  A    between atoms: C28_38  and  O6_39 
REMARK   25  A    between atoms: C29_42  and  O8_43 
REMARK   26  A    between atoms: C29_42  and  C35_49 
ROOT
ATOM      1  C14 non d ame     -32.982  10.253  25.445  0.00  0.00     0.089 C 
ATOM      2  H20 non d ame     -33.665  10.328  24.598  0.00  0.00     0.087 H 
ENDROOT
BRANCH   1   3
ATOM      3  N4  non d ame     -32.418   8.912  25.434  0.00  0.00    -0.346 N 
ATOM      4  C10 non d ame     -33.178   7.769  24.808  0.00  0.00     0.241 C 
ATOM      5  O4  non d ame     -34.245   7.953  24.322  0.00  0.00    -0.271 OA
ATOM      6  H19 non d ame     -31.509   8.776  25.855  0.00  0.00     0.163 HD
BRANCH   4   7
ATOM      7  C9  non d ame     -32.575   6.389  24.801  0.00  0.00     0.092 C 
ATOM      8  H11 non d ame     -31.508   6.463  25.012  0.00  0.00     0.088 H 
BRANCH   7   9
ATOM      9  N3  non d ame     -33.174   5.588  25.872  0.00  0.00    -0.346 N 
ATOM     10  C7  non d ame     -32.705   5.731  27.228  0.00  0.00     0.240 C 
ATOM     11  O3  non d ame     -31.845   6.486  27.475  0.00  0.00    -0.271 OA
ATOM     12  H10 non d ame     -33.916   4.932  25.674  0.00  0.00     0.163 HD
BRANCH  10  13
ATOM     13  C6  non d ame     -33.345   4.873  28.363  0.00  0.00     0.086 C 
ATOM     14  H6  non d ame     -32.707   4.796  29.244  0.00  0.00     0.086 H 
BRANCH  13  15
ATOM     15  N2  non d ame     -34.577   5.511  28.798  0.00  0.00    -0.343 N 
ATOM     16  C5  non d ame     -34.924   5.514  30.222  0.00  0.00     0.273 C 
ATOM     17  O2  non d ame     -34.207   5.000  31.007  0.00  0.00    -0.266 OA
ATOM     18  H5  non d ame     -35.186   5.945  28.119  0.00  0.00     0.163 HD
BRANCH  16  19
ATOM     19  C4  non d ame     -36.222   6.186  30.695  0.00  0.00     0.154 A 
ATOM     20  C1  non d ame     -36.503   7.588  30.744  0.00  0.00    -0.017 A 
ATOM     21  C2  non d ame     -37.819   7.679  31.249  0.00  0.00     0.077 A 
ATOM     22  H1  non d ame     -35.852   8.414  30.458  0.00  0.00     0.091 H 
ATOM     23  O1  non d ame     -38.237   6.464  31.460  0.00  0.00    -0.218 OA
ATOM     24  N1  non d ame     -37.322   5.577  31.145  0.00  0.00    -0.123 NA
BRANCH  21  25
ATOM     25  C3  non d ame     -38.603   8.960  31.498  0.00  0.00    -0.029 C 
ATOM     26  H2  non d ame     -38.341   9.362  32.477  0.00  0.00     0.036 H 
ATOM     27  H3  non d ame     -38.358   9.692  30.729  0.00  0.00     0.036 H 
ATOM     28  H4  non d ame     -39.670   8.745  31.468  0.00  0.00     0.036 H 
ENDBRANCH  21  25
ENDBRANCH  16  19
ENDBRANCH  13  15
BRANCH  13  29
ATOM     29  C8  non d ame     -33.635   3.487  27.847  0.00  0.00    -0.049 C 
ATOM     30  H7  non d ame     -32.829   2.814  28.137  0.00  0.00     0.030 H 
ATOM     31  H8  non d ame     -34.575   3.131  28.271  0.00  0.00     0.030 H 
ATOM     32  H9  non d ame     -33.714   3.513  26.760  0.00  0.00     0.030 H 
ENDBRANCH  13  29
ENDBRANCH  10  13
ENDBRANCH   7   9
BRANCH   7  33
ATOM     33  C11 non d ame     -32.854   5.709  23.429  0.00  0.00    -0.033 C 
ATOM     34  H12 non d ame     -33.732   6.191  22.996  0.00  0.00     0.042 H 
BRANCH  33  35
ATOM     35  C12 non d ame     -31.667   5.919  22.438  0.00  0.00    -0.071 C 
ATOM     36  H13 non d ame     -31.192   6.879  22.637  0.00  0.00     0.028 H 
ATOM     37  H14 non d ame     -30.939   5.119  22.569  0.00  0.00     0.028 H 
ATOM     38  H15 non d ame     -32.042   5.906  21.414  0.00  0.00     0.028 H 
ENDBRANCH  33  35
BRANCH  33  39
ATOM     39  C13 non d ame     -33.177   4.192  23.613  0.00  0.00    -0.071 C 
ATOM     40  H16 non d ame     -32.477   3.754  24.325  0.00  0.00     0.028 H 
ATOM     41  H17 non d ame     -34.195   4.079  23.987  0.00  0.00     0.028 H 
ATOM     42  H18 non d ame     -33.087   3.682  22.654  0.00  0.00     0.028 H 
ENDBRANCH  33  39
ENDBRANCH   7  33
ENDBRANCH   4   7
ENDBRANCH   1   3
BRANCH   1  43
ATOM     43  C15 non d ame     -31.819  11.281  25.356  0.00  0.00     0.240 C 
ATOM     44  O5  non d ame     -30.743  10.992  25.767  0.00  0.00    -0.271 OA
ATOM     45  N6  non d ame     -32.045  12.623  24.748  0.00  0.00    -0.355 N 
ATOM     46  H46 non d ame     -32.954  12.878  24.389  0.00  0.00     0.162 HD
BRANCH  45  47
ATOM     47  C20 non d ame     -30.928  13.590  24.668  0.00  0.00     0.013 C 
ATOM     48  H30 non d ame     -30.105  13.201  25.268  0.00  0.00     0.072 H 
BRANCH  47  49
ATOM     49  C21 non d ame     -31.382  14.924  25.216  0.00  0.00    -0.038 C 
ATOM     50  H31 non d ame     -30.610  15.639  24.927  0.00  0.00     0.036 H 
ATOM     51  H32 non d ame     -32.404  15.054  24.863  0.00  0.00     0.036 H 
BRANCH  49  52
ATOM     52  C22 non d ame     -31.444  14.949  26.758  0.00  0.00     0.018 C 
ATOM     53  H33 non d ame     -30.885  14.076  27.091  0.00  0.00     0.048 H 
ATOM     54  H34 non d ame     -31.117  15.948  27.050  0.00  0.00     0.048 H 
BRANCH  52  55
ATOM     55  C23 non d ame     -32.879  14.784  27.330  0.00  0.00     0.259 C 
ATOM     56  O7  non d ame     -33.614  13.962  26.888  0.00  0.00    -0.265 OA
BRANCH  55  57
ATOM     57  O8  non d ame     -33.313  15.639  28.381  0.00  0.00    -0.317 OA
BRANCH  57  58
ATOM     58  C29 non d ame     -34.493  16.388  28.073  0.00  0.00     0.052 C 
ATOM     59  H47 non d ame     -34.942  15.889  27.214  0.00  0.00     0.082 H 
ATOM     60  H48 non d ame     -35.046  16.467  29.008  0.00  0.00     0.082 H 
BRANCH  58  61
ATOM     61  C35 non d ame     -34.056  17.813  27.639  0.00  0.00    -0.034 A 
ATOM     62  C30 non d ame     -34.924  18.613  26.903  0.00  0.00    -0.075 A 
ATOM     63  C31 non d ame     -34.532  19.893  26.513  0.00  0.00    -0.082 A 
ATOM     64  H49 non d ame     -35.911  18.238  26.631  0.00  0.00     0.084 H 
ATOM     65  C32 non d ame     -33.266  20.371  26.860  0.00  0.00    -0.083 A 
ATOM     66  H50 non d ame     -35.215  20.519  25.937  0.00  0.00     0.083 H 
ATOM     67  C33 non d ame     -32.402  19.568  27.592  0.00  0.00    -0.082 A 
ATOM     68  H51 non d ame     -32.952  21.371  26.560  0.00  0.00     0.083 H 
ATOM     69  C34 non d ame     -32.791  18.289  27.985  0.00  0.00    -0.075 A 
ATOM     70  H52 non d ame     -31.414  19.942  27.859  0.00  0.00     0.083 H 
ATOM     71  H53 non d ame     -32.107  17.664  28.561  0.00  0.00     0.084 H 
ENDBRANCH  58  61
ENDBRANCH  57  58
ENDBRANCH  55  57
ENDBRANCH  52  55
ENDBRANCH  49  52
ENDBRANCH  47  49
BRANCH  47  72
ATOM     72  C24 non d ame     -30.491  13.757  23.214  0.00  0.00    -0.039 C 
ATOM     73  H35 non d ame     -29.544  13.222  23.133  0.00  0.00     0.036 H 
ATOM     74  H36 non d ame     -31.347  13.443  22.617  0.00  0.00     0.036 H 
BRANCH  72  75
ATOM     75  C25 non d ame     -30.201  15.291  22.855  0.00  0.00    -0.001 C 
ATOM     76  C26 non d ame     -31.294  15.821  21.747  0.00  0.00    -0.035 C 
ATOM     77  C27 non d ame     -30.627  16.397  20.717  0.00  0.00     0.085 C 
ATOM     78  H38 non d ame     -31.798  14.974  21.283  0.00  0.00     0.036 H 
ATOM     79  H39 non d ame     -31.878  16.643  22.162  0.00  0.00     0.036 H 
ATOM     80  N5  non d ame     -29.174  16.015  20.864  0.00  0.00    -0.049 N 
ATOM     81  H40 non d ame     -31.027  15.932  19.815  0.00  0.00     0.075 H 
ATOM     82  H41 non d ame     -30.729  17.471  20.868  0.00  0.00     0.075 H 
ATOM     83  C28 non d ame     -29.015  15.440  22.364  0.00  0.00     0.193 C 
ATOM     84  H42 non d ame     -29.008  15.262  20.212  0.00  0.00     0.280 HD
ATOM     85  H43 non d ame     -28.644  16.872  20.791  0.00  0.00     0.280 HD
ATOM     86  H44 non d ame     -28.554  16.044  23.144  0.00  0.00     0.129 H 
ATOM     87  H37 non d ame     -30.058  15.904  23.744  0.00  0.00     0.046 H 
BRANCH  83  88
ATOM     88  O6  non d ame     -28.281  14.214  22.347  0.00  0.00    -0.369 OA
ATOM     89  H45 non d ame     -28.284  13.852  21.459  0.00  0.00     0.212 HD
ENDBRANCH  83  88
ENDBRANCH  72  75
ENDBRANCH  47  72
ENDBRANCH  45  47
ENDBRANCH   1  43
BRANCH   1  90
ATOM     90  C16 non d ame     -33.748  10.458  26.742  0.00  0.00    -0.035 C 
ATOM     91  H21 non d ame     -33.882  11.536  26.832  0.00  0.00     0.037 H 
ATOM     92  H22 non d ame     -34.618   9.806  26.670  0.00  0.00     0.037 H 
BRANCH  90  93
ATOM     93  C17 non d ame     -32.962  10.005  28.013  0.00  0.00    -0.059 C 
ATOM     94  H23 non d ame     -32.070   9.474  27.679  0.00  0.00     0.038 H 
BRANCH  93  95
ATOM     95  C18 non d ame     -32.498  11.218  28.882  0.00  0.00    -0.073 C 
ATOM     96  H24 non d ame     -31.845  11.860  28.291  0.00  0.00     0.028 H 
ATOM     97  H25 non d ame     -33.369  11.788  29.205  0.00  0.00     0.028 H 
ATOM     98  H26 non d ame     -31.957  10.854  29.755  0.00  0.00     0.028 H 
ENDBRANCH  93  95
BRANCH  93  99
ATOM     99  C19 non d ame     -33.789   9.024  28.847  0.00  0.00    -0.073 C 
ATOM    100  H27 non d ame     -34.735   8.823  28.341  0.00  0.00     0.028 H 
ATOM    101  H28 non d ame     -33.237   8.091  28.965  0.00  0.00     0.028 H 
ATOM    102  H29 non d ame     -33.986   9.456  29.828  0.00  0.00     0.028 H 
ENDBRANCH  93  99
ENDBRANCH  90  93
ENDBRANCH   1  90
TORSDOF 26
ENDMDL
MODEL 8
REMARK VINA RESULT:      -6.9      1.931      5.919
REMARK  26 active torsions:
REMARK  status: ('A' for Active; 'I' for Inactive)
REMARK    1  A    between atoms: C2_2  and  C3_3 
REMARK    2  A    between atoms: C4_6  and  C5_7 
REMARK       I    between atoms: C5_7  and  N2_9 
REMARK    3  A    between atoms: N2_9  and  C6_10 
REMARK    4  A    between atoms: C6_10  and  C7_11 
REMARK    5  A    between atoms: C6_10  and  C8_13 
REMARK       I    between atoms: C7_11  and  N3_14 
REMARK    6  A    between atoms: N3_14  and  C9_15 
REMARK    7  A    between atoms: C9_15  and  C10_16 
REMARK    8  A    between atoms: C9_15  and  C11_18 
REMARK       I    between atoms: C10_16  and  N4_21 
REMARK    9  A    between atoms: C11_18  and  C12_19 
REMARK   10  A    between atoms: C11_18  and  C13_20 
REMARK   11  A    between atoms: N4_21  and  C14_22 
REMARK   12  A    between atoms: C14_22  and  C15_23 
REMARK   13  A    between atoms: C14_22  and  C16_25 
REMARK       I    between atoms: C15_23  and  N6_40 
REMARK   14  A    between atoms: C16_25  and  C17_26 
REMARK   15  A    between atoms: C17_26  and  C18_27 
REMARK   16  A    between atoms: C17_26  and  C19_28 
REMARK   17  A    between atoms: C20_29  and  C21_30 
REMARK   18  A    between atoms: C20_29  and  C24_33 
REMARK   19  A    between atoms: C20_29  and  N6_40 
REMARK   20  A    between atoms: C21_30  and  C22_31 
REMARK   21  A    between atoms: C22_31  and  C23_32 
REMARK   22  A    between atoms: C23_32  and  O8_43 
REMARK   23  A    between atoms: C24_33  and  C25_34 
REMARK   24  A    between atoms: C28_38  and  O6_39 
REMARK   25  A    between atoms: C29_42  and  O8_43 
REMARK   26  A    between atoms: C29_42  and  C35_49 
ROOT
ATOM      1  C14 non d ame     -30.973  13.631  24.708  0.00  0.00     0.089 C 
ATOM      2  H20 non d ame     -29.992  13.427  25.138  0.00  0.00     0.087 H 
ENDROOT
BRANCH   1   3
ATOM      3  N4  non d ame     -31.427  12.411  24.057  0.00  0.00    -0.346 N 
ATOM      4  C10 non d ame     -31.265  11.076  24.741  0.00  0.00     0.241 C 
ATOM      5  O4  non d ame     -30.763  11.009  25.813  0.00  0.00    -0.271 OA
ATOM      6  H19 non d ame     -31.850  12.490  23.143  0.00  0.00     0.163 HD
BRANCH   4   7
ATOM      7  C9  non d ame     -31.747   9.825  24.054  0.00  0.00     0.092 C 
ATOM      8  H11 non d ame     -31.610   8.974  24.722  0.00  0.00     0.088 H 
BRANCH   7   9
ATOM      9  N3  non d ame     -33.182   9.938  23.783  0.00  0.00    -0.346 N 
ATOM     10  C7  non d ame     -34.133   9.297  24.657  0.00  0.00     0.240 C 
ATOM     11  O3  non d ame     -33.761   8.685  25.582  0.00  0.00    -0.271 OA
ATOM     12  H10 non d ame     -33.519  10.461  22.987  0.00  0.00     0.163 HD
BRANCH  10  13
ATOM     13  C6  non d ame     -35.661   9.417  24.361  0.00  0.00     0.086 C 
ATOM     14  H6  non d ame     -36.273   8.865  25.073  0.00  0.00     0.086 H 
BRANCH  13  15
ATOM     15  N2  non d ame     -36.053  10.813  24.470  0.00  0.00    -0.343 N 
ATOM     16  C5  non d ame     -36.491  11.339  25.765  0.00  0.00     0.273 C 
ATOM     17  O2  non d ame     -36.526  10.632  26.711  0.00  0.00    -0.266 OA
ATOM     18  H5  non d ame     -36.023  11.409  23.656  0.00  0.00     0.163 HD
BRANCH  16  19
ATOM     19  C4  non d ame     -36.907  12.812  25.896  0.00  0.00     0.154 A 
ATOM     20  C1  non d ame     -36.725  13.851  24.928  0.00  0.00    -0.017 A 
ATOM     21  C2  non d ame     -37.274  15.007  25.528  0.00  0.00     0.077 A 
ATOM     22  H1  non d ame     -36.265  13.779  23.943  0.00  0.00     0.091 H 
ATOM     23  O1  non d ame     -37.719  14.660  26.701  0.00  0.00    -0.218 OA
ATOM     24  N1  non d ame     -37.515  13.385  26.938  0.00  0.00    -0.123 NA
BRANCH  21  25
ATOM     25  C3  non d ame     -37.336  16.399  24.914  0.00  0.00    -0.029 C 
ATOM     26  H2  non d ame     -36.420  16.941  25.149  0.00  0.00     0.036 H 
ATOM     27  H3  non d ame     -37.440  16.314  23.832  0.00  0.00     0.036 H 
ATOM     28  H4  non d ame     -38.190  16.938  25.320  0.00  0.00     0.036 H 
ENDBRANCH  21  25
ENDBRANCH  16  19
ENDBRANCH  13  15
BRANCH  13  29
ATOM     29  C8  non d ame     -35.948   8.908  22.971  0.00  0.00    -0.049 C 
ATOM     30  H7  non d ame     -36.407   7.921  23.033  0.00  0.00     0.030 H 
ATOM     31  H8  non d ame     -36.629   9.594  22.467  0.00  0.00     0.030 H 
ATOM     32  H9  non d ame     -35.017   8.841  22.408  0.00  0.00     0.030 H 
ENDBRANCH  13  29
ENDBRANCH  10  13
ENDBRANCH   7   9
BRANCH   7  33
ATOM     33  C11 non d ame     -30.980   9.643  22.712  0.00  0.00    -0.033 C 
ATOM     34  H12 non d ame     -31.161  10.532  22.107  0.00  0.00     0.042 H 
BRANCH  33  35
ATOM     35  C12 non d ame     -29.440   9.541  22.945  0.00  0.00    -0.071 C 
ATOM     36  H13 non d ame     -29.240   8.834  23.750  0.00  0.00     0.028 H 
ATOM     37  H14 non d ame     -28.957   9.197  22.031  0.00  0.00     0.028 H 
ATOM     38  H15 non d ame     -29.048  10.521  23.218  0.00  0.00     0.028 H 
ENDBRANCH  33  35
BRANCH  33  39
ATOM     39  C13 non d ame     -31.517   8.405  21.925  0.00  0.00    -0.071 C 
ATOM     40  H16 non d ame     -32.297   8.724  21.233  0.00  0.00     0.028 H 
ATOM     41  H17 non d ame     -30.700   7.947  21.365  0.00  0.00     0.028 H 
ATOM     42  H18 non d ame     -31.926   7.679  22.625  0.00  0.00     0.028 H 
ENDBRANCH  33  39
ENDBRANCH   7  33
ENDBRANCH   4   7
ENDBRANCH   1   3
BRANCH   1  43
ATOM     43  C15 non d ame     -32.016  14.033  25.789  0.00  0.00     0.240 C 
ATOM     44  O5  non d ame     -33.177  13.965  25.544  0.00  0.00    -0.271 OA
ATOM     45  N6  non d ame     -31.568  14.494  27.134  0.00  0.00    -0.355 N 
ATOM     46  H46 non d ame     -30.584  14.551  27.355  0.00  0.00     0.162 HD
BRANCH  45  47
ATOM     47  C20 non d ame     -32.572  14.872  28.152  0.00  0.00     0.013 C 
ATOM     48  H30 non d ame     -33.542  14.504  27.819  0.00  0.00     0.072 H 
BRANCH  47  49
ATOM     49  C21 non d ame     -32.608  16.378  28.284  0.00  0.00    -0.038 C 
ATOM     50  H31 non d ame     -33.001  16.577  29.283  0.00  0.00     0.036 H 
ATOM     51  H32 non d ame     -31.611  16.721  28.012  0.00  0.00     0.036 H 
BRANCH  49  52
ATOM     52  C22 non d ame     -33.585  17.043  27.292  0.00  0.00     0.018 C 
ATOM     53  H33 non d ame     -34.091  16.225  26.781  0.00  0.00     0.048 H 
ATOM     54  H34 non d ame     -34.163  17.757  27.881  0.00  0.00     0.048 H 
BRANCH  52  55
ATOM     55  C23 non d ame     -32.883  17.873  26.182  0.00  0.00     0.259 C 
ATOM     56  O7  non d ame     -32.021  17.391  25.522  0.00  0.00    -0.265 OA
BRANCH  55  57
ATOM     57  O8  non d ame     -33.272  19.226  25.972  0.00  0.00    -0.317 OA
BRANCH  57  58
ATOM     58  C29 non d ame     -34.080  19.768  27.020  0.00  0.00     0.052 C 
ATOM     59  H47 non d ame     -34.228  18.954  27.729  0.00  0.00     0.082 H 
ATOM     60  H48 non d ame     -33.578  20.683  27.337  0.00  0.00     0.082 H 
BRANCH  58  61
ATOM     61  C35 non d ame     -35.458  20.149  26.415  0.00  0.00    -0.034 A 
ATOM     62  C30 non d ame     -35.785  19.750  25.123  0.00  0.00    -0.075 A 
ATOM     63  C31 non d ame     -37.023  20.093  24.579  0.00  0.00    -0.082 A 
ATOM     64  H49 non d ame     -35.072  19.171  24.536  0.00  0.00     0.084 H 
ATOM     65  C32 non d ame     -37.933  20.838  25.332  0.00  0.00    -0.083 A 
ATOM     66  H50 non d ame     -37.276  19.778  23.566  0.00  0.00     0.083 H 
ATOM     67  C33 non d ame     -37.601  21.236  26.620  0.00  0.00    -0.082 A 
ATOM     68  H51 non d ame     -38.903  21.109  24.914  0.00  0.00     0.083 H 
ATOM     69  C34 non d ame     -36.367  20.895  27.168  0.00  0.00    -0.075 A 
ATOM     70  H52 non d ame     -38.313  21.820  27.204  0.00  0.00     0.083 H 
ATOM     71  H53 non d ame     -36.114  21.210  28.181  0.00  0.00     0.084 H 
ENDBRANCH  58  61
ENDBRANCH  57  58
ENDBRANCH  55  57
ENDBRANCH  52  55
ENDBRANCH  49  52
ENDBRANCH  47  49
BRANCH  47  72
ATOM     72  C24 non d ame     -32.203  14.251  29.498  0.00  0.00    -0.039 C 
ATOM     73  H35 non d ame     -31.390  14.865  29.887  0.00  0.00     0.036 H 
ATOM     74  H36 non d ame     -33.140  14.175  30.049  0.00  0.00     0.036 H 
BRANCH  72  75
ATOM     75  C25 non d ame     -31.633  12.763  29.327  0.00  0.00    -0.001 C 
ATOM     76  C26 non d ame     -32.872  11.717  29.060  0.00  0.00    -0.035 C 
ATOM     77  C27 non d ame     -32.767  10.685  29.932  0.00  0.00     0.085 C 
ATOM     78  H38 non d ame     -33.820  12.183  29.329  0.00  0.00     0.036 H 
ATOM     79  H39 non d ame     -32.756  11.240  28.087  0.00  0.00     0.036 H 
ATOM     80  N5  non d ame     -31.764  11.095  30.982  0.00  0.00    -0.049 N 
ATOM     81  H40 non d ame     -33.750  10.594  30.395  0.00  0.00     0.075 H 
ATOM     82  H41 non d ame     -32.358   9.856  29.355  0.00  0.00     0.075 H 
ATOM     83  C28 non d ame     -30.996  12.383  30.385  0.00  0.00     0.193 C 
ATOM     84  H42 non d ame     -32.297  11.384  31.790  0.00  0.00     0.280 HD
ATOM     85  H43 non d ame     -31.104  10.334  31.060  0.00  0.00     0.280 HD
ATOM     86  H44 non d ame     -29.987  12.290  29.985  0.00  0.00     0.129 H 
ATOM     87  H37 non d ame     -30.790  12.720  28.638  0.00  0.00     0.046 H 
BRANCH  83  88
ATOM     88  O6  non d ame     -30.923  13.415  31.371  0.00  0.00    -0.369 OA
ATOM     89  H45 non d ame     -30.083  13.874  31.292  0.00  0.00     0.212 HD
ENDBRANCH  83  88
ENDBRANCH  72  75
ENDBRANCH  47  72
ENDBRANCH  45  47
ENDBRANCH   1  43
BRANCH   1  90
ATOM     90  C16 non d ame     -30.861  14.735  23.669  0.00  0.00    -0.035 C 
ATOM     91  H21 non d ame     -31.862  14.842  23.252  0.00  0.00     0.037 H 
ATOM     92  H22 non d ame     -30.395  15.573  24.188  0.00  0.00     0.037 H 
BRANCH  90  93
ATOM     93  C17 non d ame     -29.922  14.378  22.473  0.00  0.00    -0.059 C 
ATOM     94  H23 non d ame     -29.858  13.292  22.416  0.00  0.00     0.038 H 
BRANCH  93  95
ATOM     95  C18 non d ame     -30.482  14.896  21.110  0.00  0.00    -0.073 C 
ATOM     96  H24 non d ame     -30.939  14.069  20.567  0.00  0.00     0.028 H 
ATOM     97  H25 non d ame     -31.230  15.667  21.294  0.00  0.00     0.028 H 
ATOM     98  H26 non d ame     -29.668  15.314  20.518  0.00  0.00     0.028 H 
ENDBRANCH  93  95
BRANCH  93  99
ATOM     99  C19 non d ame     -28.505  14.905  22.715  0.00  0.00    -0.073 C 
ATOM    100  H27 non d ame     -28.352  15.816  22.136  0.00  0.00     0.028 H 
ATOM    101  H28 non d ame     -28.374  15.123  23.775  0.00  0.00     0.028 H 
ATOM    102  H29 non d ame     -27.780  14.152  22.408  0.00  0.00     0.028 H 
ENDBRANCH  93  99
ENDBRANCH  90  93
ENDBRANCH   1  90
TORSDOF 26
ENDMDL
MODEL 9
REMARK VINA RESULT:      -6.8      2.158      4.567
REMARK  26 active torsions:
REMARK  status: ('A' for Active; 'I' for Inactive)
REMARK    1  A    between atoms: C2_2  and  C3_3 
REMARK    2  A    between atoms: C4_6  and  C5_7 
REMARK       I    between atoms: C5_7  and  N2_9 
REMARK    3  A    between atoms: N2_9  and  C6_10 
REMARK    4  A    between atoms: C6_10  and  C7_11 
REMARK    5  A    between atoms: C6_10  and  C8_13 
REMARK       I    between atoms: C7_11  and  N3_14 
REMARK    6  A    between atoms: N3_14  and  C9_15 
REMARK    7  A    between atoms: C9_15  and  C10_16 
REMARK    8  A    between atoms: C9_15  and  C11_18 
REMARK       I    between atoms: C10_16  and  N4_21 
REMARK    9  A    between atoms: C11_18  and  C12_19 
REMARK   10  A    between atoms: C11_18  and  C13_20 
REMARK   11  A    between atoms: N4_21  and  C14_22 
REMARK   12  A    between atoms: C14_22  and  C15_23 
REMARK   13  A    between atoms: C14_22  and  C16_25 
REMARK       I    between atoms: C15_23  and  N6_40 
REMARK   14  A    between atoms: C16_25  and  C17_26 
REMARK   15  A    between atoms: C17_26  and  C18_27 
REMARK   16  A    between atoms: C17_26  and  C19_28 
REMARK   17  A    between atoms: C20_29  and  C21_30 
REMARK   18  A    between atoms: C20_29  and  C24_33 
REMARK   19  A    between atoms: C20_29  and  N6_40 
REMARK   20  A    between atoms: C21_30  and  C22_31 
REMARK   21  A    between atoms: C22_31  and  C23_32 
REMARK   22  A    between atoms: C23_32  and  O8_43 
REMARK   23  A    between atoms: C24_33  and  C25_34 
REMARK   24  A    between atoms: C28_38  and  O6_39 
REMARK   25  A    between atoms: C29_42  and  O8_43 
REMARK   26  A    between atoms: C29_42  and  C35_49 
ROOT
ATOM      1  C14 non d ame     -30.684  14.266  23.684  0.00  0.00     0.089 C 
ATOM      2  H20 non d ame     -29.597  14.195  23.641  0.00  0.00     0.087 H 
ENDROOT
BRANCH   1   3
ATOM      3  N4  non d ame     -31.199  12.938  23.981  0.00  0.00    -0.346 N 
ATOM      4  C10 non d ame     -30.586  11.721  23.334  0.00  0.00     0.241 C 
ATOM      5  O4  non d ame     -29.683  11.836  22.574  0.00  0.00    -0.271 OA
ATOM      6  H19 non d ame     -31.970  12.862  24.629  0.00  0.00     0.163 HD
BRANCH   4   7
ATOM      7  C9  non d ame     -31.128  10.354  23.658  0.00  0.00     0.092 C 
ATOM      8  H11 non d ame     -30.637   9.977  24.556  0.00  0.00     0.088 H 
BRANCH   7   9
ATOM      9  N3  non d ame     -32.559  10.452  23.955  0.00  0.00    -0.346 N 
ATOM     10  C7  non d ame     -33.049  10.111  25.268  0.00  0.00     0.240 C 
ATOM     11  O3  non d ame     -32.304   9.754  26.098  0.00  0.00    -0.271 OA
ATOM     12  H10 non d ame     -33.214  10.757  23.250  0.00  0.00     0.163 HD
BRANCH  10  13
ATOM     13  C6  non d ame     -34.574  10.215  25.578  0.00  0.00     0.086 C 
ATOM     14  H6  non d ame     -35.196   9.830  24.769  0.00  0.00     0.086 H 
BRANCH  13  15
ATOM     15  N2  non d ame     -34.873   9.410  26.750  0.00  0.00    -0.343 N 
ATOM     16  C5  non d ame     -35.295   8.017  26.580  0.00  0.00     0.273 C 
ATOM     17  O2  non d ame     -35.393   7.556  25.497  0.00  0.00    -0.266 OA
ATOM     18  H5  non d ame     -34.790   9.813  27.672  0.00  0.00     0.163 HD
BRANCH  16  19
ATOM     19  C4  non d ame     -35.612   7.154  27.811  0.00  0.00     0.154 A 
ATOM     20  C1  non d ame     -36.822   7.149  28.576  0.00  0.00    -0.017 A 
ATOM     21  C2  non d ame     -36.608   6.189  29.589  0.00  0.00     0.077 A 
ATOM     22  H1  non d ame     -37.717   7.751  28.421  0.00  0.00     0.091 H 
ATOM     23  O1  non d ame     -35.413   5.702  29.416  0.00  0.00    -0.218 OA
ATOM     24  N1  non d ame     -34.813   6.251  28.385  0.00  0.00    -0.123 NA
BRANCH  21  25
ATOM     25  C3  non d ame     -37.594   5.795  30.681  0.00  0.00    -0.029 C 
ATOM     26  H2  non d ame     -38.530   5.471  30.226  0.00  0.00     0.036 H 
ATOM     27  H3  non d ame     -37.177   4.978  31.270  0.00  0.00     0.036 H 
ATOM     28  H4  non d ame     -37.781   6.651  31.328  0.00  0.00     0.036 H 
ENDBRANCH  21  25
ENDBRANCH  16  19
ENDBRANCH  13  15
BRANCH  13  29
ATOM     29  C8  non d ame     -34.941  11.655  25.833  0.00  0.00    -0.049 C 
ATOM     30  H7  non d ame     -36.016  11.733  25.994  0.00  0.00     0.030 H 
ATOM     31  H8  non d ame     -34.415  12.012  26.719  0.00  0.00     0.030 H 
ATOM     32  H9  non d ame     -34.657  12.261  24.973  0.00  0.00     0.030 H 
ENDBRANCH  13  29
ENDBRANCH  10  13
ENDBRANCH   7   9
BRANCH   7  33
ATOM     33  C11 non d ame     -30.917   9.410  22.438  0.00  0.00    -0.033 C 
ATOM     34  H12 non d ame     -30.719  10.037  21.569  0.00  0.00     0.042 H 
BRANCH  33  35
ATOM     35  C12 non d ame     -29.677   8.484  22.642  0.00  0.00    -0.071 C 
ATOM     36  H13 non d ame     -29.372   8.069  21.681  0.00  0.00     0.028 H 
ATOM     37  H14 non d ame     -28.857   9.064  23.064  0.00  0.00     0.028 H 
ATOM     38  H15 non d ame     -29.937   7.673  23.321  0.00  0.00     0.028 H 
ENDBRANCH  33  35
BRANCH  33  39
ATOM     39  C13 non d ame     -32.206   8.575  22.147  0.00  0.00    -0.071 C 
ATOM     40  H16 non d ame     -32.170   7.643  22.711  0.00  0.00     0.028 H 
ATOM     41  H17 non d ame     -33.085   9.147  22.446  0.00  0.00     0.028 H 
ATOM     42  H18 non d ame     -32.263   8.355  21.082  0.00  0.00     0.028 H 
ENDBRANCH  33  39
ENDBRANCH   7  33
ENDBRANCH   4   7
ENDBRANCH   1   3
BRANCH   1  43
ATOM     43  C15 non d ame     -31.166  15.244  24.793  0.00  0.00     0.240 C 
ATOM     44  O5  non d ame     -31.070  16.417  24.629  0.00  0.00    -0.271 OA
ATOM     45  N6  non d ame     -31.755  14.718  26.057  0.00  0.00    -0.355 N 
ATOM     46  H46 non d ame     -31.847  13.723  26.205  0.00  0.00     0.162 HD
BRANCH  45  47
ATOM     47  C20 non d ame     -32.211  15.661  27.102  0.00  0.00     0.013 C 
ATOM     48  H30 non d ame     -31.621  16.573  27.010  0.00  0.00     0.072 H 
BRANCH  47  49
ATOM     49  C21 non d ame     -31.994  15.040  28.464  0.00  0.00    -0.038 C 
ATOM     50  H31 non d ame     -31.024  14.542  28.409  0.00  0.00     0.036 H 
ATOM     51  H32 non d ame     -32.154  15.844  29.182  0.00  0.00     0.036 H 
BRANCH  49  52
ATOM     52  C22 non d ame     -33.029  13.945  28.796  0.00  0.00     0.018 C 
ATOM     53  H33 non d ame     -33.162  13.981  29.876  0.00  0.00     0.048 H 
ATOM     54  H34 non d ame     -33.878  14.132  28.136  0.00  0.00     0.048 H 
BRANCH  52  55
ATOM     55  C23 non d ame     -32.545  12.505  28.470  0.00  0.00     0.259 C 
ATOM     56  O7  non d ame     -31.500  12.327  27.932  0.00  0.00    -0.265 OA
BRANCH  55  57
ATOM     57  O8  non d ame     -33.371  11.398  28.811  0.00  0.00    -0.317 OA
BRANCH  57  58
ATOM     58  C29 non d ame     -32.774  10.493  29.745  0.00  0.00     0.052 C 
ATOM     59  H47 non d ame     -32.576   9.580  29.184  0.00  0.00     0.082 H 
ATOM     60  H48 non d ame     -31.952  11.041  30.204  0.00  0.00     0.082 H 
BRANCH  58  61
ATOM     61  C35 non d ame     -33.825  10.176  30.843  0.00  0.00    -0.034 A 
ATOM     62  C30 non d ame     -34.411   8.915  30.902  0.00  0.00    -0.075 A 
ATOM     63  C31 non d ame     -35.355   8.630  31.888  0.00  0.00    -0.082 A 
ATOM     64  H49 non d ame     -34.131   8.151  30.178  0.00  0.00     0.084 H 
ATOM     65  C32 non d ame     -35.715   9.613  32.815  0.00  0.00    -0.083 A 
ATOM     66  H50 non d ame     -35.812   7.641  31.933  0.00  0.00     0.083 H 
ATOM     67  C33 non d ame     -35.130  10.870  32.749  0.00  0.00    -0.082 A 
ATOM     68  H51 non d ame     -36.452   9.398  33.589  0.00  0.00     0.083 H 
ATOM     69  C34 non d ame     -34.185  11.158  31.767  0.00  0.00    -0.075 A 
ATOM     70  H52 non d ame     -35.415  11.635  33.472  0.00  0.00     0.083 H 
ATOM     71  H53 non d ame     -33.729  12.148  31.722  0.00  0.00     0.084 H 
ENDBRANCH  58  61
ENDBRANCH  57  58
ENDBRANCH  55  57
ENDBRANCH  52  55
ENDBRANCH  49  52
ENDBRANCH  47  49
BRANCH  47  72
ATOM     72  C24 non d ame     -33.695  15.967  26.911  0.00  0.00    -0.039 C 
ATOM     73  H35 non d ame     -34.006  15.368  26.054  0.00  0.00     0.036 H 
ATOM     74  H36 non d ame     -34.153  15.801  27.886  0.00  0.00     0.036 H 
BRANCH  72  75
ATOM     75  C25 non d ame     -33.939  17.503  26.530  0.00  0.00    -0.001 C 
ATOM     76  C26 non d ame     -32.616  18.395  26.925  0.00  0.00    -0.035 C 
ATOM     77  C27 non d ame     -33.011  19.457  27.667  0.00  0.00     0.085 C 
ATOM     78  H38 non d ame     -31.975  17.833  27.605  0.00  0.00     0.036 H 
ATOM     79  H39 non d ame     -32.192  18.852  26.030  0.00  0.00     0.036 H 
ATOM     80  N5  non d ame     -34.436  19.195  28.090  0.00  0.00    -0.049 N 
ATOM     81  H40 non d ame     -32.371  19.450  28.550  0.00  0.00     0.075 H 
ATOM     82  H41 non d ame     -32.993  20.310  26.988  0.00  0.00     0.075 H 
ATOM     83  C28 non d ame     -34.960  17.985  27.158  0.00  0.00     0.193 C 
ATOM     84  H42 non d ame     -34.396  18.871  29.045  0.00  0.00     0.280 HD
ATOM     85  H43 non d ame     -34.960  20.028  27.860  0.00  0.00     0.280 HD
ATOM     86  H44 non d ame     -35.632  18.179  26.324  0.00  0.00     0.129 H 
ATOM     87  H37 non d ame     -34.333  17.621  25.521  0.00  0.00     0.046 H 
BRANCH  83  88
ATOM     88  O6  non d ame     -35.616  16.998  27.956  0.00  0.00    -0.369 OA
ATOM     89  H45 non d ame     -35.355  16.122  27.661  0.00  0.00     0.212 HD
ENDBRANCH  83  88
ENDBRANCH  72  75
ENDBRANCH  47  72
ENDBRANCH  45  47
ENDBRANCH   1  43
BRANCH   1  90
ATOM     90  C16 non d ame     -31.223  14.717  22.336  0.00  0.00    -0.035 C 
ATOM     91  H21 non d ame     -31.862  13.903  21.993  0.00  0.00     0.037 H 
ATOM     92  H22 non d ame     -31.648  15.705  22.510  0.00  0.00     0.037 H 
BRANCH  90  93
ATOM     93  C17 non d ame     -30.118  14.897  21.247  0.00  0.00    -0.059 C 
ATOM     94  H23 non d ame     -29.886  13.911  20.845  0.00  0.00     0.038 H 
BRANCH  93  95
ATOM     95  C18 non d ame     -30.600  15.794  20.062  0.00  0.00    -0.073 C 
ATOM     96  H24 non d ame     -31.554  15.423  19.689  0.00  0.00     0.028 H 
ATOM     97  H25 non d ame     -30.722  16.820  20.410  0.00  0.00     0.028 H 
ATOM     98  H26 non d ame     -29.861  15.768  19.262  0.00  0.00     0.028 H 
ENDBRANCH  93  95
BRANCH  93  99
ATOM     99  C19 non d ame     -28.831  15.452  21.862  0.00  0.00    -0.073 C 
ATOM    100  H27 non d ame     -29.067  15.975  22.789  0.00  0.00     0.028 H 
ATOM    101  H28 non d ame     -28.146  14.631  22.074  0.00  0.00     0.028 H 
ATOM    102  H29 non d ame     -28.363  16.143  21.162  0.00  0.00     0.028 H 
ENDBRANCH  93  99
ENDBRANCH  90  93
ENDBRANCH   1  90
TORSDOF 26
ENDMDL
MODEL 10
REMARK VINA RESULT:      -6.8      1.942      8.570
REMARK  26 active torsions:
REMARK  status: ('A' for Active; 'I' for Inactive)
REMARK    1  A    between atoms: C2_2  and  C3_3 
REMARK    2  A    between atoms: C4_6  and  C5_7 
REMARK       I    between atoms: C5_7  and  N2_9 
REMARK    3  A    between atoms: N2_9  and  C6_10 
REMARK    4  A    between atoms: C6_10  and  C7_11 
REMARK    5  A    between atoms: C6_10  and  C8_13 
REMARK       I    between atoms: C7_11  and  N3_14 
REMARK    6  A    between atoms: N3_14  and  C9_15 
REMARK    7  A    between atoms: C9_15  and  C10_16 
REMARK    8  A    between atoms: C9_15  and  C11_18 
REMARK       I    between atoms: C10_16  and  N4_21 
REMARK    9  A    between atoms: C11_18  and  C12_19 
REMARK   10  A    between atoms: C11_18  and  C13_20 
REMARK   11  A    between atoms: N4_21  and  C14_22 
REMARK   12  A    between atoms: C14_22  and  C15_23 
REMARK   13  A    between atoms: C14_22  and  C16_25 
REMARK       I    between atoms: C15_23  and  N6_40 
REMARK   14  A    between atoms: C16_25  and  C17_26 
REMARK   15  A    between atoms: C17_26  and  C18_27 
REMARK   16  A    between atoms: C17_26  and  C19_28 
REMARK   17  A    between atoms: C20_29  and  C21_30 
REMARK   18  A    between atoms: C20_29  and  C24_33 
REMARK   19  A    between atoms: C20_29  and  N6_40 
REMARK   20  A    between atoms: C21_30  and  C22_31 
REMARK   21  A    between atoms: C22_31  and  C23_32 
REMARK   22  A    between atoms: C23_32  and  O8_43 
REMARK   23  A    between atoms: C24_33  and  C25_34 
REMARK   24  A    between atoms: C28_38  and  O6_39 
REMARK   25  A    between atoms: C29_42  and  O8_43 
REMARK   26  A    between atoms: C29_42  and  C35_49 
ROOT
ATOM      1  C14 non d ame     -37.529  14.011  24.963  0.00  0.00     0.089 C 
ATOM      2  H20 non d ame     -38.580  14.074  25.247  0.00  0.00     0.087 H 
ENDROOT
BRANCH   1   3
ATOM      3  N4  non d ame     -36.957  15.341  25.108  0.00  0.00    -0.346 N 
ATOM      4  C10 non d ame     -37.458  16.274  26.182  0.00  0.00     0.241 C 
ATOM      5  O4  non d ame     -38.326  15.933  26.915  0.00  0.00    -0.271 OA
ATOM      6  H19 non d ame     -36.221  15.613  24.471  0.00  0.00     0.163 HD
BRANCH   4   7
ATOM      7  C9  non d ame     -36.850  17.645  26.320  0.00  0.00     0.092 C 
ATOM      8  H11 non d ame     -37.226  18.114  27.229  0.00  0.00     0.088 H 
BRANCH   7   9
ATOM      9  N3  non d ame     -35.397  17.523  26.464  0.00  0.00    -0.346 N 
ATOM     10  C7  non d ame     -34.756  17.946  27.685  0.00  0.00     0.240 C 
ATOM     11  O3  non d ame     -35.394  18.389  28.561  0.00  0.00    -0.271 OA
ATOM     12  H10 non d ame     -34.833  17.145  25.717  0.00  0.00     0.163 HD
BRANCH  10  13
ATOM     13  C6  non d ame     -33.208  17.817  27.832  0.00  0.00     0.086 C 
ATOM     14  H6  non d ame     -32.819  18.362  28.692  0.00  0.00     0.086 H 
BRANCH  13  15
ATOM     15  N2  non d ame     -32.869  16.419  28.038  0.00  0.00    -0.343 N 
ATOM     16  C5  non d ame     -32.090  16.031  29.217  0.00  0.00     0.273 C 
ATOM     17  O2  non d ame     -31.739  16.852  29.990  0.00  0.00    -0.266 OA
ATOM     18  H5  non d ame     -33.170  15.724  27.370  0.00  0.00     0.163 HD
BRANCH  16  19
ATOM     19  C4  non d ame     -31.727  14.557  29.448  0.00  0.00     0.154 A 
ATOM     20  C1  non d ame     -32.610  13.498  29.829  0.00  0.00    -0.017 A 
ATOM     21  C2  non d ame     -31.790  12.350  29.908  0.00  0.00     0.077 A 
ATOM     22  H1  non d ame     -33.682  13.553  30.019  0.00  0.00     0.091 H 
ATOM     23  O1  non d ame     -30.579  12.718  29.604  0.00  0.00    -0.218 OA
ATOM     24  N1  non d ame     -30.518  14.001  29.333  0.00  0.00    -0.123 NA
BRANCH  21  25
ATOM     25  C3  non d ame     -32.241  10.943  30.279  0.00  0.00    -0.029 C 
ATOM     26  H2  non d ame     -32.483  10.907  31.341  0.00  0.00     0.036 H 
ATOM     27  H3  non d ame     -33.124  10.680  29.697  0.00  0.00     0.036 H 
ATOM     28  H4  non d ame     -31.440  10.237  30.065  0.00  0.00     0.036 H 
ENDBRANCH  21  25
ENDBRANCH  16  19
ENDBRANCH  13  15
BRANCH  13  29
ATOM     29  C8  non d ame     -32.537  18.332  26.583  0.00  0.00    -0.049 C 
ATOM     30  H7  non d ame     -31.496  18.010  26.571  0.00  0.00     0.030 H 
ATOM     31  H8  non d ame     -33.049  17.935  25.706  0.00  0.00     0.030 H 
ATOM     32  H9  non d ame     -32.582  19.421  26.569  0.00  0.00     0.030 H 
ENDBRANCH  13  29
ENDBRANCH  10  13
ENDBRANCH   7   9
BRANCH   7  33
ATOM     33  C11 non d ame     -37.174  18.486  25.051  0.00  0.00    -0.033 C 
ATOM     34  H12 non d ame     -36.757  17.959  24.192  0.00  0.00     0.042 H 
BRANCH  33  35
ATOM     35  C12 non d ame     -38.714  18.606  24.825  0.00  0.00    -0.071 C 
ATOM     36  H13 non d ame     -39.240  18.072  25.617  0.00  0.00     0.028 H 
ATOM     37  H14 non d ame     -39.002  19.657  24.842  0.00  0.00     0.028 H 
ATOM     38  H15 non d ame     -38.975  18.172  23.860  0.00  0.00     0.028 H 
ENDBRANCH  33  35
BRANCH  33  39
ATOM     39  C13 non d ame     -36.502  19.894  25.127  0.00  0.00    -0.071 C 
ATOM     40  H16 non d ame     -35.714  19.881  25.880  0.00  0.00     0.028 H 
ATOM     41  H17 non d ame     -36.073  20.146  24.156  0.00  0.00     0.028 H 
ATOM     42  H18 non d ame     -37.249  20.640  25.396  0.00  0.00     0.028 H 
ENDBRANCH  33  39
ENDBRANCH   7  33
ENDBRANCH   4   7
ENDBRANCH   1   3
BRANCH   1  43
ATOM     43  C15 non d ame     -36.733  13.028  25.868  0.00  0.00     0.240 C 
ATOM     44  O5  non d ame     -37.016  12.924  27.018  0.00  0.00    -0.271 OA
ATOM     45  N6  non d ame     -35.625  12.210  25.300  0.00  0.00    -0.355 N 
ATOM     46  H46 non d ame     -35.380  12.286  24.323  0.00  0.00     0.162 HD
BRANCH  45  47
ATOM     47  C20 non d ame     -34.879  11.278  26.173  0.00  0.00     0.013 C 
ATOM     48  H30 non d ame     -35.591  10.817  26.858  0.00  0.00     0.072 H 
BRANCH  47  49
ATOM     49  C21 non d ame     -33.837  12.048  26.952  0.00  0.00    -0.038 C 
ATOM     50  H31 non d ame     -34.393  12.640  27.682  0.00  0.00     0.036 H 
ATOM     51  H32 non d ame     -33.114  11.307  27.290  0.00  0.00     0.036 H 
BRANCH  49  52
ATOM     52  C22 non d ame     -33.057  13.054  26.079  0.00  0.00     0.018 C 
ATOM     53  H33 non d ame     -33.388  12.876  25.056  0.00  0.00     0.048 H 
ATOM     54  H34 non d ame     -33.216  14.030  26.540  0.00  0.00     0.048 H 
BRANCH  52  55
ATOM     55  C23 non d ame     -31.521  12.825  26.078  0.00  0.00     0.259 C 
ATOM     56  O7  non d ame     -31.063  11.801  26.471  0.00  0.00    -0.265 OA
BRANCH  55  57
ATOM     57  O8  non d ame     -30.662  13.861  25.617  0.00  0.00    -0.317 OA
BRANCH  57  58
ATOM     58  C29 non d ame     -31.347  14.946  24.984  0.00  0.00     0.052 C 
ATOM     59  H47 non d ame     -32.404  14.684  25.013  0.00  0.00     0.082 H 
ATOM     60  H48 non d ame     -30.994  15.849  25.482  0.00  0.00     0.082 H 
BRANCH  58  61
ATOM     61  C35 non d ame     -30.895  14.996  23.499  0.00  0.00    -0.034 A 
ATOM     62  C30 non d ame     -30.127  13.964  22.970  0.00  0.00    -0.075 A 
ATOM     63  C31 non d ame     -29.721  14.009  21.636  0.00  0.00    -0.082 A 
ATOM     64  H49 non d ame     -29.843  13.120  23.598  0.00  0.00     0.084 H 
ATOM     65  C32 non d ame     -30.084  15.094  20.833  0.00  0.00    -0.083 A 
ATOM     66  H50 non d ame     -29.120  13.198  21.224  0.00  0.00     0.083 H 
ATOM     67  C33 non d ame     -30.847  16.123  21.367  0.00  0.00    -0.082 A 
ATOM     68  H51 non d ame     -29.771  15.136  19.790  0.00  0.00     0.083 H 
ATOM     69  C34 non d ame     -31.257  16.080  22.698  0.00  0.00    -0.075 A 
ATOM     70  H52 non d ame     -31.127  16.969  20.738  0.00  0.00     0.083 H 
ATOM     71  H53 non d ame     -31.858  16.892  23.109  0.00  0.00     0.084 H 
ENDBRANCH  58  61
ENDBRANCH  57  58
ENDBRANCH  55  57
ENDBRANCH  52  55
ENDBRANCH  49  52
ENDBRANCH  47  49
BRANCH  47  72
ATOM     72  C24 non d ame     -34.194  10.209  25.324  0.00  0.00    -0.039 C 
ATOM     73  H35 non d ame     -34.801  10.123  24.422  0.00  0.00     0.036 H 
ATOM     74  H36 non d ame     -33.152  10.521  25.251  0.00  0.00     0.036 H 
BRANCH  72  75
ATOM     75  C25 non d ame     -34.210   8.779  26.044  0.00  0.00    -0.001 C 
ATOM     76  C26 non d ame     -35.039   8.875  27.460  0.00  0.00    -0.035 C 
ATOM     77  C27 non d ame     -34.275   8.354  28.450  0.00  0.00     0.085 C 
ATOM     78  H38 non d ame     -35.160   9.917  27.753  0.00  0.00     0.036 H 
ATOM     79  H39 non d ame     -35.905   8.213  27.432  0.00  0.00     0.036 H 
ATOM     80  N5  non d ame     -32.877   8.213  27.899  0.00  0.00    -0.049 N 
ATOM     81  H40 non d ame     -34.271   9.104  29.241  0.00  0.00     0.075 H 
ATOM     82  H41 non d ame     -34.683   7.362  28.641  0.00  0.00     0.075 H 
ATOM     83  C28 non d ame     -33.011   8.369  26.298  0.00  0.00     0.193 C 
ATOM     84  H42 non d ame     -32.347   8.995  28.256  0.00  0.00     0.280 HD
ATOM     85  H43 non d ame     -32.582   7.268  28.106  0.00  0.00     0.280 HD
ATOM     86  H44 non d ame     -32.958   7.496  25.649  0.00  0.00     0.129 H 
ATOM     87  H37 non d ame     -34.486   7.975  25.361  0.00  0.00     0.046 H 
BRANCH  83  88
ATOM     88  O6  non d ame     -32.018   9.272  25.806  0.00  0.00    -0.369 OA
ATOM     89  H45 non d ame     -31.619   9.740  26.542  0.00  0.00     0.212 HD
ENDBRANCH  83  88
ENDBRANCH  72  75
ENDBRANCH  47  72
ENDBRANCH  45  47
ENDBRANCH   1  43
BRANCH   1  90
ATOM     90  C16 non d ame     -37.413  13.577  23.511  0.00  0.00    -0.035 C 
ATOM     91  H21 non d ame     -36.352  13.645  23.272  0.00  0.00     0.037 H 
ATOM     92  H22 non d ame     -37.922  12.615  23.456  0.00  0.00     0.037 H 
BRANCH  90  93
ATOM     93  C17 non d ame     -38.150  14.525  22.512  0.00  0.00    -0.059 C 
ATOM     94  H23 non d ame     -37.676  15.504  22.574  0.00  0.00     0.038 H 
BRANCH  93  95
ATOM     95  C18 non d ame     -38.032  14.030  21.035  0.00  0.00    -0.073 C 
ATOM     96  H24 non d ame     -39.016  13.741  20.668  0.00  0.00     0.028 H 
ATOM     97  H25 non d ame     -37.637  14.834  20.413  0.00  0.00     0.028 H 
ATOM     98  H26 non d ame     -37.360  13.174  20.990  0.00  0.00     0.028 H 
ENDBRANCH  93  95
BRANCH  93  99
ATOM     99  C19 non d ame     -39.617  14.704  22.910  0.00  0.00    -0.073 C 
ATOM    100  H27 non d ame     -39.674  15.064  23.938  0.00  0.00     0.028 H 
ATOM    101  H28 non d ame     -40.089  15.428  22.246  0.00  0.00     0.028 H 
ATOM    102  H29 non d ame     -40.135  13.748  22.830  0.00  0.00     0.028 H 
ENDBRANCH  93  99
ENDBRANCH  90  93
ENDBRANCH   1  90
TORSDOF 26
ENDMDL
MODEL 11
REMARK VINA RESULT:      -6.8      2.691      6.834
REMARK  26 active torsions:
REMARK  status: ('A' for Active; 'I' for Inactive)
REMARK    1  A    between atoms: C2_2  and  C3_3 
REMARK    2  A    between atoms: C4_6  and  C5_7 
REMARK       I    between atoms: C5_7  and  N2_9 
REMARK    3  A    between atoms: N2_9  and  C6_10 
REMARK    4  A    between atoms: C6_10  and  C7_11 
REMARK    5  A    between atoms: C6_10  and  C8_13 
REMARK       I    between atoms: C7_11  and  N3_14 
REMARK    6  A    between atoms: N3_14  and  C9_15 
REMARK    7  A    between atoms: C9_15  and  C10_16 
REMARK    8  A    between atoms: C9_15  and  C11_18 
REMARK       I    between atoms: C10_16  and  N4_21 
REMARK    9  A    between atoms: C11_18  and  C12_19 
REMARK   10  A    between atoms: C11_18  and  C13_20 
REMARK   11  A    between atoms: N4_21  and  C14_22 
REMARK   12  A    between atoms: C14_22  and  C15_23 
REMARK   13  A    between atoms: C14_22  and  C16_25 
REMARK       I    between atoms: C15_23  and  N6_40 
REMARK   14  A    between atoms: C16_25  and  C17_26 
REMARK   15  A    between atoms: C17_26  and  C18_27 
REMARK   16  A    between atoms: C17_26  and  C19_28 
REMARK   17  A    between atoms: C20_29  and  C21_30 
REMARK   18  A    between atoms: C20_29  and  C24_33 
REMARK   19  A    between atoms: C20_29  and  N6_40 
REMARK   20  A    between atoms: C21_30  and  C22_31 
REMARK   21  A    between atoms: C22_31  and  C23_32 
REMARK   22  A    between atoms: C23_32  and  O8_43 
REMARK   23  A    between atoms: C24_33  and  C25_34 
REMARK   24  A    between atoms: C28_38  and  O6_39 
REMARK   25  A    between atoms: C29_42  and  O8_43 
REMARK   26  A    between atoms: C29_42  and  C35_49 
ROOT
ATOM      1  C14 non d ame     -32.519   9.457  24.508  0.00  0.00     0.089 C 
ATOM      2  H20 non d ame     -32.175   8.552  25.009  0.00  0.00     0.087 H 
ENDROOT
BRANCH   1   3
ATOM      3  N4  non d ame     -33.848   9.762  25.017  0.00  0.00    -0.346 N 
ATOM      4  C10 non d ame     -34.706   8.671  25.608  0.00  0.00     0.241 C 
ATOM      5  O4  non d ame     -34.307   7.556  25.660  0.00  0.00    -0.271 OA
ATOM      6  H19 non d ame     -34.169  10.718  24.961  0.00  0.00     0.163 HD
BRANCH   4   7
ATOM      7  C9  non d ame     -36.076   9.007  26.136  0.00  0.00     0.092 C 
ATOM      8  H11 non d ame     -36.631   8.084  26.305  0.00  0.00     0.088 H 
BRANCH   7   9
ATOM      9  N3  non d ame     -35.950   9.681  27.431  0.00  0.00    -0.346 N 
ATOM     10  C7  non d ame     -36.357   9.004  28.638  0.00  0.00     0.240 C 
ATOM     11  O3  non d ame     -36.788   7.918  28.585  0.00  0.00    -0.271 OA
ATOM     12  H10 non d ame     -35.582  10.619  27.492  0.00  0.00     0.163 HD
BRANCH  10  13
ATOM     13  C6  non d ame     -36.223   9.729  30.014  0.00  0.00     0.086 C 
ATOM     14  H6  non d ame     -35.973   9.047  30.826  0.00  0.00     0.086 H 
BRANCH  13  15
ATOM     15  N2  non d ame     -35.141  10.696  29.934  0.00  0.00    -0.343 N 
ATOM     16  C5  non d ame     -33.894  10.445  30.661  0.00  0.00     0.273 C 
ATOM     17  O2  non d ame     -33.773   9.464  31.308  0.00  0.00    -0.266 OA
ATOM     18  H5  non d ame     -35.255  11.534  29.381  0.00  0.00     0.163 HD
BRANCH  16  19
ATOM     19  C4  non d ame     -32.742  11.458  30.584  0.00  0.00     0.154 A 
ATOM     20  C1  non d ame     -32.757  12.738  29.945  0.00  0.00    -0.017 A 
ATOM     21  C2  non d ame     -31.465  13.268  30.159  0.00  0.00     0.077 A 
ATOM     22  H1  non d ame     -33.578  13.211  29.406  0.00  0.00     0.091 H 
ATOM     23  O1  non d ame     -30.795  12.387  30.845  0.00  0.00    -0.218 OA
ATOM     24  N1  non d ame     -31.519  11.323  31.104  0.00  0.00    -0.123 NA
BRANCH  21  25
ATOM     25  C3  non d ame     -30.952  14.618  29.678  0.00  0.00    -0.029 C 
ATOM     26  H2  non d ame     -31.690  15.072  29.016  0.00  0.00     0.036 H 
ATOM     27  H3  non d ame     -30.785  15.270  30.536  0.00  0.00     0.036 H 
ATOM     28  H4  non d ame     -30.016  14.481  29.139  0.00  0.00     0.036 H 
ENDBRANCH  21  25
ENDBRANCH  16  19
ENDBRANCH  13  15
BRANCH  13  29
ATOM     29  C8  non d ame     -37.518  10.428  30.345  0.00  0.00    -0.049 C 
ATOM     30  H7  non d ame     -37.304  11.361  30.865  0.00  0.00     0.030 H 
ATOM     31  H8  non d ame     -38.060  10.642  29.423  0.00  0.00     0.030 H 
ATOM     32  H9  non d ame     -38.125   9.785  30.983  0.00  0.00     0.030 H 
ENDBRANCH  13  29
ENDBRANCH  10  13
ENDBRANCH   7   9
BRANCH   7  33
ATOM     33  C11 non d ame     -36.802   9.949  25.131  0.00  0.00    -0.033 C 
ATOM     34  H12 non d ame     -36.086  10.210  24.351  0.00  0.00     0.042 H 
BRANCH  33  35
ATOM     35  C12 non d ame     -38.005   9.230  24.444  0.00  0.00    -0.071 C 
ATOM     36  H13 non d ame     -38.896   9.343  25.062  0.00  0.00     0.028 H 
ATOM     37  H14 non d ame     -38.182   9.676  23.466  0.00  0.00     0.028 H 
ATOM     38  H15 non d ame     -37.777   8.171  24.326  0.00  0.00     0.028 H 
ENDBRANCH  33  35
BRANCH  33  39
ATOM     39  C13 non d ame     -37.255  11.270  25.831  0.00  0.00    -0.071 C 
ATOM     40  H16 non d ame     -38.239  11.125  26.279  0.00  0.00     0.028 H 
ATOM     41  H17 non d ame     -36.538  11.535  26.608  0.00  0.00     0.028 H 
ATOM     42  H18 non d ame     -37.305  12.072  25.096  0.00  0.00     0.028 H 
ENDBRANCH  33  39
ENDBRANCH   7  33
ENDBRANCH   4   7
ENDBRANCH   1   3
BRANCH   1  43
ATOM     43  C15 non d ame     -31.590  10.672  24.787  0.00  0.00     0.240 C 
ATOM     44  O5  non d ame     -30.813  10.628  25.685  0.00  0.00    -0.271 OA
ATOM     45  N6  non d ame     -31.663  11.889  23.930  0.00  0.00    -0.355 N 
ATOM     46  H46 non d ame     -32.316  11.936  23.161  0.00  0.00     0.162 HD
BRANCH  45  47
ATOM     47  C20 non d ame     -30.771  13.037  24.207  0.00  0.00     0.013 C 
ATOM     48  H30 non d ame     -30.052  12.727  24.965  0.00  0.00     0.072 H 
BRANCH  47  49
ATOM     49  C21 non d ame     -31.594  14.197  24.720  0.00  0.00    -0.038 C 
ATOM     50  H31 non d ame     -30.928  15.061  24.704  0.00  0.00     0.036 H 
ATOM     51  H32 non d ame     -32.505  14.199  24.122  0.00  0.00     0.036 H 
BRANCH  49  52
ATOM     52  C22 non d ame     -32.036  14.015  26.188  0.00  0.00     0.018 C 
ATOM     53  H33 non d ame     -31.526  13.121  26.542  0.00  0.00     0.048 H 
ATOM     54  H34 non d ame     -31.851  14.975  26.673  0.00  0.00     0.048 H 
BRANCH  52  55
ATOM     55  C23 non d ame     -33.555  13.737  26.356  0.00  0.00     0.259 C 
ATOM     56  O7  non d ame     -33.986  12.637  26.225  0.00  0.00    -0.265 OA
BRANCH  55  57
ATOM     57  O8  non d ame     -34.433  14.817  26.654  0.00  0.00    -0.317 OA
BRANCH  57  58
ATOM     58  C29 non d ame     -34.047  15.579  27.801  0.00  0.00     0.052 C 
ATOM     59  H47 non d ame     -34.948  15.676  28.407  0.00  0.00     0.082 H 
ATOM     60  H48 non d ame     -33.168  15.079  28.207  0.00  0.00     0.082 H 
BRANCH  58  61
ATOM     61  C35 non d ame     -33.628  16.994  27.318  0.00  0.00    -0.034 A 
ATOM     62  C30 non d ame     -34.005  17.438  26.054  0.00  0.00    -0.075 A 
ATOM     63  C31 non d ame     -33.628  18.708  25.620  0.00  0.00    -0.082 A 
ATOM     64  H49 non d ame     -34.595  16.792  25.405  0.00  0.00     0.084 H 
ATOM     65  C32 non d ame     -32.868  19.534  26.453  0.00  0.00    -0.083 A 
ATOM     66  H50 non d ame     -33.926  19.054  24.630  0.00  0.00     0.083 H 
ATOM     67  C33 non d ame     -32.491  19.085  27.711  0.00  0.00    -0.082 A 
ATOM     68  H51 non d ame     -32.570  20.528  26.121  0.00  0.00     0.083 H 
ATOM     69  C34 non d ame     -32.868  17.817  28.150  0.00  0.00    -0.075 A 
ATOM     70  H52 non d ame     -31.896  19.730  28.358  0.00  0.00     0.083 H 
ATOM     71  H53 non d ame     -32.569  17.472  29.140  0.00  0.00     0.084 H 
ENDBRANCH  58  61
ENDBRANCH  57  58
ENDBRANCH  55  57
ENDBRANCH  52  55
ENDBRANCH  49  52
ENDBRANCH  47  49
BRANCH  47  72
ATOM     72  C24 non d ame     -30.048  13.451  22.927  0.00  0.00    -0.039 C 
ATOM     73  H35 non d ame     -28.997  13.218  23.101  0.00  0.00     0.036 H 
ATOM     74  H36 non d ame     -30.588  12.961  22.118  0.00  0.00     0.036 H 
BRANCH  72  75
ATOM     75  C25 non d ame     -30.148  15.030  22.674  0.00  0.00    -0.001 C 
ATOM     76  C26 non d ame     -31.105  15.328  21.372  0.00  0.00    -0.035 C 
ATOM     77  C27 non d ame     -30.442  16.149  20.522  0.00  0.00     0.085 C 
ATOM     78  H38 non d ame     -31.241  14.416  20.790  0.00  0.00     0.036 H 
ATOM     79  H39 non d ame     -31.971  15.917  21.672  0.00  0.00     0.036 H 
ATOM     80  N5  non d ame     -29.000  16.174  20.967  0.00  0.00    -0.049 N 
ATOM     81  H40 non d ame     -30.504  15.669  19.545  0.00  0.00     0.075 H 
ATOM     82  H41 non d ame     -30.877  17.137  20.673  0.00  0.00     0.075 H 
ATOM     83  C28 non d ame     -28.983  15.542  22.453  0.00  0.00     0.193 C 
ATOM     84  H42 non d ame     -28.498  15.554  20.348  0.00  0.00     0.280 HD
ATOM     85  H43 non d ame     -28.737  17.148  21.029  0.00  0.00     0.280 HD
ATOM     86  H44 non d ame     -28.879  16.183  23.327  0.00  0.00     0.129 H 
ATOM     87  H37 non d ame     -30.367  15.581  23.588  0.00  0.00     0.046 H 
BRANCH  83  88
ATOM     88  O6  non d ame     -27.938  14.573  22.564  0.00  0.00    -0.369 OA
ATOM     89  H45 non d ame     -28.088  14.028  23.339  0.00  0.00     0.212 HD
ENDBRANCH  83  88
ENDBRANCH  72  75
ENDBRANCH  47  72
ENDBRANCH  45  47
ENDBRANCH   1  43
BRANCH   1  90
ATOM     90  C16 non d ame     -32.606   9.214  23.009  0.00  0.00    -0.035 C 
ATOM     91  H21 non d ame     -33.623   8.867  22.831  0.00  0.00     0.037 H 
ATOM     92  H22 non d ame     -32.256  10.136  22.547  0.00  0.00     0.037 H 
BRANCH  90  93
ATOM     93  C17 non d ame     -31.660   8.079  22.502  0.00  0.00    -0.059 C 
ATOM     94  H23 non d ame     -30.699   8.532  22.260  0.00  0.00     0.038 H 
BRANCH  93  95
ATOM     95  C18 non d ame     -31.411   6.988  23.593  0.00  0.00    -0.073 C 
ATOM     96  H24 non d ame     -32.204   7.033  24.340  0.00  0.00     0.028 H 
ATOM     97  H25 non d ame     -31.408   6.003  23.127  0.00  0.00     0.028 H 
ATOM     98  H26 non d ame     -30.449   7.166  24.072  0.00  0.00     0.028 H 
ENDBRANCH  93  95
BRANCH  93  99
ATOM     99  C19 non d ame     -32.203   7.449  21.217  0.00  0.00    -0.073 C 
ATOM    100  H27 non d ame     -31.957   6.387  21.200  0.00  0.00     0.028 H 
ATOM    101  H28 non d ame     -33.285   7.571  21.181  0.00  0.00     0.028 H 
ATOM    102  H29 non d ame     -31.754   7.940  20.354  0.00  0.00     0.028 H 
ENDBRANCH  93  99
ENDBRANCH  90  93
ENDBRANCH   1  90
TORSDOF 26
ENDMDL
MODEL 12
REMARK VINA RESULT:      -6.7      1.973      4.991
REMARK  26 active torsions:
REMARK  status: ('A' for Active; 'I' for Inactive)
REMARK    1  A    between atoms: C2_2  and  C3_3 
REMARK    2  A    between atoms: C4_6  and  C5_7 
REMARK       I    between atoms: C5_7  and  N2_9 
REMARK    3  A    between atoms: N2_9  and  C6_10 
REMARK    4  A    between atoms: C6_10  and  C7_11 
REMARK    5  A    between atoms: C6_10  and  C8_13 
REMARK       I    between atoms: C7_11  and  N3_14 
REMARK    6  A    between atoms: N3_14  and  C9_15 
REMARK    7  A    between atoms: C9_15  and  C10_16 
REMARK    8  A    between atoms: C9_15  and  C11_18 
REMARK       I    between atoms: C10_16  and  N4_21 
REMARK    9  A    between atoms: C11_18  and  C12_19 
REMARK   10  A    between atoms: C11_18  and  C13_20 
REMARK   11  A    between atoms: N4_21  and  C14_22 
REMARK   12  A    between atoms: C14_22  and  C15_23 
REMARK   13  A    between atoms: C14_22  and  C16_25 
REMARK       I    between atoms: C15_23  and  N6_40 
REMARK   14  A    between atoms: C16_25  and  C17_26 
REMARK   15  A    between atoms: C17_26  and  C18_27 
REMARK   16  A    between atoms: C17_26  and  C19_28 
REMARK   17  A    between atoms: C20_29  and  C21_30 
REMARK   18  A    between atoms: C20_29  and  C24_33 
REMARK   19  A    between atoms: C20_29  and  N6_40 
REMARK   20  A    between atoms: C21_30  and  C22_31 
REMARK   21  A    between atoms: C22_31  and  C23_32 
REMARK   22  A    between atoms: C23_32  and  O8_43 
REMARK   23  A    between atoms: C24_33  and  C25_34 
REMARK   24  A    between atoms: C28_38  and  O6_39 
REMARK   25  A    between atoms: C29_42  and  O8_43 
REMARK   26  A    between atoms: C29_42  and  C35_49 
ROOT
ATOM      1  C14 non d ame     -32.476   9.881  24.668  0.00  0.00     0.089 C 
ATOM      2  H20 non d ame     -32.267   9.058  25.352  0.00  0.00     0.087 H 
ENDROOT
BRANCH   1   3
ATOM      3  N4  non d ame     -33.858  10.285  24.878  0.00  0.00    -0.346 N 
ATOM      4  C10 non d ame     -34.525  10.054  26.210  0.00  0.00     0.241 C 
ATOM      5  O4  non d ame     -33.931   9.538  27.098  0.00  0.00    -0.271 OA
ATOM      6  H19 non d ame     -34.347  10.721  24.109  0.00  0.00     0.163 HD
BRANCH   4   7
ATOM      7  C9  non d ame     -35.955  10.484  26.411  0.00  0.00     0.092 C 
ATOM      8  H11 non d ame     -36.119  10.700  27.467  0.00  0.00     0.088 H 
BRANCH   7   9
ATOM      9  N3  non d ame     -36.201  11.725  25.671  0.00  0.00    -0.346 N 
ATOM     10  C7  non d ame     -36.994  12.773  26.265  0.00  0.00     0.240 C 
ATOM     11  O3  non d ame     -37.443  12.634  27.337  0.00  0.00    -0.271 OA
ATOM     12  H10 non d ame     -35.822  11.859  24.745  0.00  0.00     0.163 HD
BRANCH  10  13
ATOM     13  C6  non d ame     -37.255  14.091  25.471  0.00  0.00     0.086 C 
ATOM     14  H6  non d ame     -38.225  14.534  25.697  0.00  0.00     0.086 H 
BRANCH  13  15
ATOM     15  N2  non d ame     -36.251  15.073  25.845  0.00  0.00    -0.343 N 
ATOM     16  C5  non d ame     -36.589  16.115  26.818  0.00  0.00     0.273 C 
ATOM     17  O2  non d ame     -37.671  16.156  27.290  0.00  0.00    -0.266 OA
ATOM     18  H5  non d ame     -35.330  15.033  25.433  0.00  0.00     0.163 HD
BRANCH  16  19
ATOM     19  C4  non d ame     -35.537  17.159  27.223  0.00  0.00     0.154 A 
ATOM     20  C1  non d ame     -34.489  17.692  26.409  0.00  0.00    -0.017 A 
ATOM     21  C2  non d ame     -33.808  18.606  27.244  0.00  0.00     0.077 A 
ATOM     22  H1  non d ame     -34.256  17.452  25.372  0.00  0.00     0.091 H 
ATOM     23  O1  non d ame     -34.406  18.594  28.400  0.00  0.00    -0.218 OA
ATOM     24  N1  non d ame     -35.417  17.757  28.412  0.00  0.00    -0.123 NA
BRANCH  21  25
ATOM     25  C3  non d ame     -32.600  19.450  26.861  0.00  0.00    -0.029 C 
ATOM     26  H2  non d ame     -32.589  20.362  27.458  0.00  0.00     0.036 H 
ATOM     27  H3  non d ame     -31.687  18.884  27.048  0.00  0.00     0.036 H 
ATOM     28  H4  non d ame     -32.657  19.709  25.805  0.00  0.00     0.036 H 
ENDBRANCH  21  25
ENDBRANCH  16  19
ENDBRANCH  13  15
BRANCH  13  29
ATOM     29  C8  non d ame     -37.179  13.813  23.991  0.00  0.00    -0.049 C 
ATOM     30  H7  non d ame     -37.864  14.474  23.461  0.00  0.00     0.030 H 
ATOM     31  H8  non d ame     -36.161  13.989  23.641  0.00  0.00     0.030 H 
ATOM     32  H9  non d ame     -37.454  12.775  23.801  0.00  0.00     0.030 H 
ENDBRANCH  13  29
ENDBRANCH  10  13
ENDBRANCH   7   9
BRANCH   7  33
ATOM     33  C11 non d ame     -36.909   9.372  25.887  0.00  0.00    -0.033 C 
ATOM     34  H12 non d ame     -36.340   8.443  25.847  0.00  0.00     0.042 H 
BRANCH  33  35
ATOM     35  C12 non d ame     -38.109   9.147  26.858  0.00  0.00    -0.071 C 
ATOM     36  H13 non d ame     -37.910   8.279  27.487  0.00  0.00     0.028 H 
ATOM     37  H14 non d ame     -38.238  10.028  27.486  0.00  0.00     0.028 H 
ATOM     38  H15 non d ame     -39.018   8.975  26.281  0.00  0.00     0.028 H 
ENDBRANCH  33  35
BRANCH  33  39
ATOM     39  C13 non d ame     -37.404   9.696  24.441  0.00  0.00    -0.071 C 
ATOM     40  H16 non d ame     -36.631  10.250  23.907  0.00  0.00     0.028 H 
ATOM     41  H17 non d ame     -37.617   8.766  23.912  0.00  0.00     0.028 H 
ATOM     42  H18 non d ame     -38.311  10.297  24.493  0.00  0.00     0.028 H 
ENDBRANCH  33  39
ENDBRANCH   7  33
ENDBRANCH   4   7
ENDBRANCH   1   3
BRANCH   1  43
ATOM     43  C15 non d ame     -31.556  11.108  24.926  0.00  0.00     0.240 C 
ATOM     44  O5  non d ame     -30.859  11.132  25.888  0.00  0.00    -0.271 OA
ATOM     45  N6  non d ame     -31.536  12.249  23.968  0.00  0.00    -0.355 N 
ATOM     46  H46 non d ame     -32.120  12.238  23.143  0.00  0.00     0.162 HD
BRANCH  45  47
ATOM     47  C20 non d ame     -30.654  13.409  24.226  0.00  0.00     0.013 C 
ATOM     48  H30 non d ame     -29.968  13.136  25.027  0.00  0.00     0.072 H 
BRANCH  47  49
ATOM     49  C21 non d ame     -31.496  14.593  24.647  0.00  0.00    -0.038 C 
ATOM     50  H31 non d ame     -30.901  15.476  24.409  0.00  0.00     0.036 H 
ATOM     51  H32 non d ame     -32.466  14.446  24.175  0.00  0.00     0.036 H 
BRANCH  49  52
ATOM     52  C22 non d ame     -31.751  14.635  26.169  0.00  0.00     0.018 C 
ATOM     53  H33 non d ame     -31.024  13.955  26.609  0.00  0.00     0.048 H 
ATOM     54  H34 non d ame     -31.742  15.692  26.439  0.00  0.00     0.048 H 
BRANCH  52  55
ATOM     55  C23 non d ame     -33.148  14.098  26.585  0.00  0.00     0.259 C 
ATOM     56  O7  non d ame     -33.739  13.344  25.882  0.00  0.00    -0.265 OA
BRANCH  55  57
ATOM     57  O8  non d ame     -33.723  14.530  27.813  0.00  0.00    -0.317 OA
BRANCH  57  58
ATOM     58  C29 non d ame     -32.765  14.950  28.788  0.00  0.00     0.052 C 
ATOM     59  H47 non d ame     -31.919  15.340  28.222  0.00  0.00     0.082 H 
ATOM     60  H48 non d ame     -33.307  15.598  29.476  0.00  0.00     0.082 H 
BRANCH  58  61
ATOM     61  C35 non d ame     -32.294  13.693  29.568  0.00  0.00    -0.034 A 
ATOM     62  C30 non d ame     -33.209  12.703  29.911  0.00  0.00    -0.075 A 
ATOM     63  C31 non d ame     -32.786  11.574  30.613  0.00  0.00    -0.082 A 
ATOM     64  H49 non d ame     -34.257  12.811  29.632  0.00  0.00     0.084 H 
ATOM     65  C32 non d ame     -31.443  11.439  30.973  0.00  0.00    -0.083 A 
ATOM     66  H50 non d ame     -33.506  10.799  30.879  0.00  0.00     0.083 H 
ATOM     67  C33 non d ame     -30.534  12.431  30.631  0.00  0.00    -0.082 A 
ATOM     68  H51 non d ame     -31.104  10.559  31.520  0.00  0.00     0.083 H 
ATOM     69  C34 non d ame     -30.952  13.560  29.929  0.00  0.00    -0.075 A 
ATOM     70  H52 non d ame     -29.486  12.324  30.915  0.00  0.00     0.083 H 
ATOM     71  H53 non d ame     -30.231  14.334  29.663  0.00  0.00     0.084 H 
ENDBRANCH  58  61
ENDBRANCH  57  58
ENDBRANCH  55  57
ENDBRANCH  52  55
ENDBRANCH  49  52
ENDBRANCH  47  49
BRANCH  47  72
ATOM     72  C24 non d ame     -29.878  13.760  22.958  0.00  0.00    -0.039 C 
ATOM     73  H35 non d ame     -28.855  13.948  23.288  0.00  0.00     0.036 H 
ATOM     74  H36 non d ame     -30.084  12.950  22.259  0.00  0.00     0.036 H 
BRANCH  72  75
ATOM     75  C25 non d ame     -30.415  15.112  22.289  0.00  0.00    -0.001 C 
ATOM     76  C26 non d ame     -31.106  14.779  20.834  0.00  0.00    -0.035 C 
ATOM     77  C27 non d ame     -30.569  15.599  19.899  0.00  0.00     0.085 C 
ATOM     78  H38 non d ame     -30.813  13.784  20.500  0.00  0.00     0.036 H 
ATOM     79  H39 non d ame     -32.158  15.063  20.847  0.00  0.00     0.036 H 
ATOM     80  N5  non d ame     -29.345  16.231  20.516  0.00  0.00    -0.049 N 
ATOM     81  H40 non d ame     -30.258  14.945  19.083  0.00  0.00     0.075 H 
ATOM     82  H41 non d ame     -31.317  16.371  19.723  0.00  0.00     0.075 H 
ATOM     83  C28 non d ame     -29.455  15.956  22.103  0.00  0.00     0.193 C 
ATOM     84  H42 non d ame     -28.548  15.725  20.156  0.00  0.00     0.280 HD
ATOM     85  H43 non d ame     -29.425  17.225  20.355  0.00  0.00     0.280 HD
ATOM     86  H44 non d ame     -29.756  16.751  22.783  0.00  0.00     0.129 H 
ATOM     87  H37 non d ame     -30.994  15.717  22.986  0.00  0.00     0.046 H 
BRANCH  83  88
ATOM     88  O6  non d ame     -28.208  15.473  22.607  0.00  0.00    -0.369 OA
ATOM     89  H45 non d ame     -28.102  15.751  23.519  0.00  0.00     0.212 HD
ENDBRANCH  83  88
ENDBRANCH  72  75
ENDBRANCH  47  72
ENDBRANCH  45  47
ENDBRANCH   1  43
BRANCH   1  90
ATOM     90  C16 non d ame     -32.310   9.410  23.232  0.00  0.00    -0.035 C 
ATOM     91  H21 non d ame     -33.162   8.760  23.040  0.00  0.00     0.037 H 
ATOM     92  H22 non d ame     -32.175  10.318  22.644  0.00  0.00     0.037 H 
BRANCH  90  93
ATOM     93  C17 non d ame     -31.033   8.540  23.001  0.00  0.00    -0.059 C 
ATOM     94  H23 non d ame     -30.579   8.353  23.973  0.00  0.00     0.038 H 
BRANCH  93  95
ATOM     95  C18 non d ame     -31.371   7.158  22.357  0.00  0.00    -0.073 C 
ATOM     96  H24 non d ame     -32.170   7.282  21.627  0.00  0.00     0.028 H 
ATOM     97  H25 non d ame     -30.485   6.763  21.859  0.00  0.00     0.028 H 
ATOM     98  H26 non d ame     -31.691   6.464  23.133  0.00  0.00     0.028 H 
ENDBRANCH  93  95
BRANCH  93  99
ATOM     99  C19 non d ame     -30.002   9.296  22.157  0.00  0.00    -0.073 C 
ATOM    100  H27 non d ame     -29.768   8.716  21.264  0.00  0.00     0.028 H 
ATOM    101  H28 non d ame     -30.411  10.263  21.864  0.00  0.00     0.028 H 
ATOM    102  H29 non d ame     -29.095   9.448  22.741  0.00  0.00     0.028 H 
ENDBRANCH  93  99
ENDBRANCH  90  93
ENDBRANCH   1  90
TORSDOF 26
ENDMDL
MODEL 13
REMARK VINA RESULT:      -6.6      3.528      9.454
REMARK  26 active torsions:
REMARK  status: ('A' for Active; 'I' for Inactive)
REMARK    1  A    between atoms: C2_2  and  C3_3 
REMARK    2  A    between atoms: C4_6  and  C5_7 
REMARK       I    between atoms: C5_7  and  N2_9 
REMARK    3  A    between atoms: N2_9  and  C6_10 
REMARK    4  A    between atoms: C6_10  and  C7_11 
REMARK    5  A    between atoms: C6_10  and  C8_13 
REMARK       I    between atoms: C7_11  and  N3_14 
REMARK    6  A    between atoms: N3_14  and  C9_15 
REMARK    7  A    between atoms: C9_15  and  C10_16 
REMARK    8  A    between atoms: C9_15  and  C11_18 
REMARK       I    between atoms: C10_16  and  N4_21 
REMARK    9  A    between atoms: C11_18  and  C12_19 
REMARK   10  A    between atoms: C11_18  and  C13_20 
REMARK   11  A    between atoms: N4_21  and  C14_22 
REMARK   12  A    between atoms: C14_22  and  C15_23 
REMARK   13  A    between atoms: C14_22  and  C16_25 
REMARK       I    between atoms: C15_23  and  N6_40 
REMARK   14  A    between atoms: C16_25  and  C17_26 
REMARK   15  A    between atoms: C17_26  and  C18_27 
REMARK   16  A    between atoms: C17_26  and  C19_28 
REMARK   17  A    between atoms: C20_29  and  C21_30 
REMARK   18  A    between atoms: C20_29  and  C24_33 
REMARK   19  A    between atoms: C20_29  and  N6_40 
REMARK   20  A    between atoms: C21_30  and  C22_31 
REMARK   21  A    between atoms: C22_31  and  C23_32 
REMARK   22  A    between atoms: C23_32  and  O8_43 
REMARK   23  A    between atoms: C24_33  and  C25_34 
REMARK   24  A    between atoms: C28_38  and  O6_39 
REMARK   25  A    between atoms: C29_42  and  O8_43 
REMARK   26  A    between atoms: C29_42  and  C35_49 
ROOT
ATOM      1  C14 non d ame     -35.062   8.086  30.637  0.00  0.00     0.089 C 
ATOM      2  H20 non d ame     -34.918   8.329  31.690  0.00  0.00     0.087 H 
ENDROOT
BRANCH   1   3
ATOM      3  N4  non d ame     -34.151   8.920  29.868  0.00  0.00    -0.346 N 
ATOM      4  C10 non d ame     -33.549  10.160  30.482  0.00  0.00     0.241 C 
ATOM      5  O4  non d ame     -33.816  10.467  31.596  0.00  0.00    -0.271 OA
ATOM      6  H19 non d ame     -33.939   8.642  28.920  0.00  0.00     0.163 HD
BRANCH   4   7
ATOM      7  C9  non d ame     -32.604  11.007  29.672  0.00  0.00     0.092 C 
ATOM      8  H11 non d ame     -31.817  10.374  29.261  0.00  0.00     0.088 H 
BRANCH   7   9
ATOM      9  N3  non d ame     -33.322  11.597  28.540  0.00  0.00    -0.346 N 
ATOM     10  C7  non d ame     -33.306  10.942  27.255  0.00  0.00     0.240 C 
ATOM     11  O3  non d ame     -32.717   9.939  27.115  0.00  0.00    -0.271 OA
ATOM     12  H10 non d ame     -33.833  12.462  28.645  0.00  0.00     0.163 HD
BRANCH  10  13
ATOM     13  C6  non d ame     -34.070  11.576  26.052  0.00  0.00     0.086 C 
ATOM     14  H6  non d ame     -34.844  12.276  26.366  0.00  0.00     0.086 H 
BRANCH  13  15
ATOM     15  N2  non d ame     -33.129  12.333  25.243  0.00  0.00    -0.343 N 
ATOM     16  C5  non d ame     -32.778  13.700  25.635  0.00  0.00     0.273 C 
ATOM     17  O2  non d ame     -33.259  14.182  26.600  0.00  0.00    -0.266 OA
ATOM     18  H5  non d ame     -32.726  11.915  24.417  0.00  0.00     0.163 HD
BRANCH  16  19
ATOM     19  C4  non d ame     -31.784  14.511  24.789  0.00  0.00     0.154 A 
ATOM     20  C1  non d ame     -30.733  14.000  23.963  0.00  0.00    -0.017 A 
ATOM     21  C2  non d ame     -30.117  15.145  23.408  0.00  0.00     0.077 A 
ATOM     22  H1  non d ame     -30.457  12.960  23.793  0.00  0.00     0.091 H 
ATOM     23  O1  non d ame     -30.751  16.185  23.866  0.00  0.00    -0.218 OA
ATOM     24  N1  non d ame     -31.726  15.841  24.674  0.00  0.00    -0.123 NA
BRANCH  21  25
ATOM     25  C3  non d ame     -28.934  15.157  22.450  0.00  0.00    -0.029 C 
ATOM     26  H2  non d ame     -29.241  15.589  21.498  0.00  0.00     0.036 H 
ATOM     27  H3  non d ame     -28.128  15.754  22.876  0.00  0.00     0.036 H 
ATOM     28  H4  non d ame     -28.585  14.138  22.290  0.00  0.00     0.036 H 
ENDBRANCH  21  25
ENDBRANCH  16  19
ENDBRANCH  13  15
BRANCH  13  29
ATOM     29  C8  non d ame     -34.703  10.486  25.224  0.00  0.00    -0.049 C 
ATOM     30  H7  non d ame     -34.393   9.514  25.605  0.00  0.00     0.030 H 
ATOM     31  H8  non d ame     -35.789  10.570  25.284  0.00  0.00     0.030 H 
ATOM     32  H9  non d ame     -34.387  10.588  24.186  0.00  0.00     0.030 H 
ENDBRANCH  13  29
ENDBRANCH  10  13
ENDBRANCH   7   9
BRANCH   7  33
ATOM     33  C11 non d ame     -32.030  12.143  30.569  0.00  0.00    -0.033 C 
ATOM     34  H12 non d ame     -32.610  12.158  31.492  0.00  0.00     0.042 H 
BRANCH  33  35
ATOM     35  C12 non d ame     -30.542  11.870  30.953  0.00  0.00    -0.071 C 
ATOM     36  H13 non d ame     -30.357  12.227  31.965  0.00  0.00     0.028 H 
ATOM     37  H14 non d ame     -30.346  10.799  30.903  0.00  0.00     0.028 H 
ATOM     38  H15 non d ame     -29.885  12.393  30.258  0.00  0.00     0.028 H 
ENDBRANCH  33  35
BRANCH  33  39
ATOM     39  C13 non d ame     -32.190  13.535  29.877  0.00  0.00    -0.071 C 
ATOM     40  H16 non d ame     -31.280  13.774  29.325  0.00  0.00     0.028 H 
ATOM     41  H17 non d ame     -33.035  13.505  29.189  0.00  0.00     0.028 H 
ATOM     42  H18 non d ame     -32.367  14.299  30.634  0.00  0.00     0.028 H 
ENDBRANCH  33  39
ENDBRANCH   7  33
ENDBRANCH   4   7
ENDBRANCH   1   3
BRANCH   1  43
ATOM     43  C15 non d ame     -34.749   6.595  30.328  0.00  0.00     0.240 C 
ATOM     44  O5  non d ame     -34.888   5.774  31.177  0.00  0.00    -0.271 OA
ATOM     45  N6  non d ame     -34.286   6.187  28.972  0.00  0.00    -0.355 N 
ATOM     46  H46 non d ame     -34.171   6.875  28.241  0.00  0.00     0.162 HD
BRANCH  45  47
ATOM     47  C20 non d ame     -33.995   4.764  28.693  0.00  0.00     0.013 C 
ATOM     48  H30 non d ame     -33.889   4.250  29.648  0.00  0.00     0.072 H 
BRANCH  47  49
ATOM     49  C21 non d ame     -32.707   4.663  27.907  0.00  0.00    -0.038 C 
ATOM     50  H31 non d ame     -31.936   4.406  28.635  0.00  0.00     0.036 H 
ATOM     51  H32 non d ame     -32.920   3.988  27.078  0.00  0.00     0.036 H 
BRANCH  49  52
ATOM     52  C22 non d ame     -32.281   6.006  27.277  0.00  0.00     0.018 C 
ATOM     53  H33 non d ame     -32.926   6.760  27.727  0.00  0.00     0.048 H 
ATOM     54  H34 non d ame     -31.200   6.065  27.411  0.00  0.00     0.048 H 
BRANCH  52  55
ATOM     55  C23 non d ame     -32.529   6.087  25.746  0.00  0.00     0.259 C 
ATOM     56  O7  non d ame     -33.635   6.089  25.312  0.00  0.00    -0.265 OA
BRANCH  55  57
ATOM     57  O8  non d ame     -31.415   6.145  24.862  0.00  0.00    -0.317 OA
BRANCH  57  58
ATOM     58  C29 non d ame     -31.761   6.469  23.512  0.00  0.00     0.052 C 
ATOM     59  H47 non d ame     -31.283   5.709  22.895  0.00  0.00     0.082 H 
ATOM     60  H48 non d ame     -32.845   6.578  23.503  0.00  0.00     0.082 H 
BRANCH  58  61
ATOM     61  C35 non d ame     -31.127   7.845  23.172  0.00  0.00    -0.034 A 
ATOM     62  C30 non d ame     -31.742   9.019  23.598  0.00  0.00    -0.075 A 
ATOM     63  C31 non d ame     -31.173  10.255  23.293  0.00  0.00    -0.082 A 
ATOM     64  H49 non d ame     -32.669   8.970  24.170  0.00  0.00     0.084 H 
ATOM     65  C32 non d ame     -29.987  10.315  22.557  0.00  0.00    -0.083 A 
ATOM     66  H50 non d ame     -31.657  11.173  23.629  0.00  0.00     0.083 H 
ATOM     67  C33 non d ame     -29.379   9.141  22.132  0.00  0.00    -0.082 A 
ATOM     68  H51 non d ame     -29.536  11.277  22.315  0.00  0.00     0.083 H 
ATOM     69  C34 non d ame     -29.943   7.904  22.436  0.00  0.00    -0.075 A 
ATOM     70  H52 non d ame     -28.455   9.191  21.556  0.00  0.00     0.083 H 
ATOM     71  H53 non d ame     -29.459   6.987  22.099  0.00  0.00     0.084 H 
ENDBRANCH  58  61
ENDBRANCH  57  58
ENDBRANCH  55  57
ENDBRANCH  52  55
ENDBRANCH  49  52
ENDBRANCH  47  49
BRANCH  47  72
ATOM     72  C24 non d ame     -35.136   4.151  27.884  0.00  0.00    -0.039 C 
ATOM     73  H35 non d ame     -34.705   3.909  26.912  0.00  0.00     0.036 H 
ATOM     74  H36 non d ame     -35.542   3.358  28.512  0.00  0.00     0.036 H 
BRANCH  72  75
ATOM     75  C25 non d ame     -36.316   5.204  27.631  0.00  0.00    -0.001 C 
ATOM     76  C26 non d ame     -37.597   4.852  28.600  0.00  0.00    -0.035 C 
ATOM     77  C27 non d ame     -38.715   4.789  27.838  0.00  0.00     0.085 C 
ATOM     78  H38 non d ame     -37.500   3.842  28.996  0.00  0.00     0.036 H 
ATOM     79  H39 non d ame     -37.795   5.686  29.274  0.00  0.00     0.036 H 
ATOM     80  N5  non d ame     -38.266   4.740  26.398  0.00  0.00    -0.049 N 
ATOM     81  H40 non d ame     -39.189   3.841  28.095  0.00  0.00     0.075 H 
ATOM     82  H41 non d ame     -39.241   5.727  28.014  0.00  0.00     0.075 H 
ATOM     83  C28 non d ame     -36.712   5.176  26.402  0.00  0.00     0.193 C 
ATOM     84  H42 non d ame     -38.329   3.774  26.111  0.00  0.00     0.280 HD
ATOM     85  H43 non d ame     -38.798   5.447  25.909  0.00  0.00     0.280 HD
ATOM     86  H44 non d ame     -36.415   6.172  26.075  0.00  0.00     0.129 H 
ATOM     87  H37 non d ame     -35.958   6.234  27.635  0.00  0.00     0.046 H 
BRANCH  83  88
ATOM     88  O6  non d ame     -35.944   4.269  25.608  0.00  0.00    -0.369 OA
ATOM     89  H45 non d ame     -35.016   4.347  25.841  0.00  0.00     0.212 HD
ENDBRANCH  83  88
ENDBRANCH  72  75
ENDBRANCH  47  72
ENDBRANCH  45  47
ENDBRANCH   1  43
BRANCH   1  90
ATOM     90  C16 non d ame     -36.492   8.405  30.227  0.00  0.00    -0.035 C 
ATOM     91  H21 non d ame     -36.405   9.112  29.403  0.00  0.00     0.037 H 
ATOM     92  H22 non d ame     -36.968   7.438  30.066  0.00  0.00     0.037 H 
BRANCH  90  93
ATOM     93  C17 non d ame     -37.318   9.124  31.340  0.00  0.00    -0.059 C 
ATOM     94  H23 non d ame     -36.808   8.961  32.289  0.00  0.00     0.038 H 
BRANCH  93  95
ATOM     95  C18 non d ame     -37.406  10.666  31.104  0.00  0.00    -0.073 C 
ATOM     96  H24 non d ame     -38.324  10.900  30.565  0.00  0.00     0.028 H 
ATOM     97  H25 non d ame     -37.410  11.181  32.065  0.00  0.00     0.028 H 
ATOM     98  H26 non d ame     -36.547  10.995  30.520  0.00  0.00     0.028 H 
ENDBRANCH  93  95
BRANCH  93  99
ATOM     99  C19 non d ame     -38.716   8.512  31.465  0.00  0.00    -0.073 C 
ATOM    100  H27 non d ame     -38.888   8.206  32.497  0.00  0.00     0.028 H 
ATOM    101  H28 non d ame     -39.463   9.252  31.177  0.00  0.00     0.028 H 
ATOM    102  H29 non d ame     -38.793   7.645  30.810  0.00  0.00     0.028 H 
ENDBRANCH  93  99
ENDBRANCH  90  93
ENDBRANCH   1  90
TORSDOF 26
ENDMDL
MODEL 14
REMARK VINA RESULT:      -6.6      3.054      8.053
REMARK  26 active torsions:
REMARK  status: ('A' for Active; 'I' for Inactive)
REMARK    1  A    between atoms: C2_2  and  C3_3 
REMARK    2  A    between atoms: C4_6  and  C5_7 
REMARK       I    between atoms: C5_7  and  N2_9 
REMARK    3  A    between atoms: N2_9  and  C6_10 
REMARK    4  A    between atoms: C6_10  and  C7_11 
REMARK    5  A    between atoms: C6_10  and  C8_13 
REMARK       I    between atoms: C7_11  and  N3_14 
REMARK    6  A    between atoms: N3_14  and  C9_15 
REMARK    7  A    between atoms: C9_15  and  C10_16 
REMARK    8  A    between atoms: C9_15  and  C11_18 
REMARK       I    between atoms: C10_16  and  N4_21 
REMARK    9  A    between atoms: C11_18  and  C12_19 
REMARK   10  A    between atoms: C11_18  and  C13_20 
REMARK   11  A    between atoms: N4_21  and  C14_22 
REMARK   12  A    between atoms: C14_22  and  C15_23 
REMARK   13  A    between atoms: C14_22  and  C16_25 
REMARK       I    between atoms: C15_23  and  N6_40 
REMARK   14  A    between atoms: C16_25  and  C17_26 
REMARK   15  A    between atoms: C17_26  and  C18_27 
REMARK   16  A    between atoms: C17_26  and  C19_28 
REMARK   17  A    between atoms: C20_29  and  C21_30 
REMARK   18  A    between atoms: C20_29  and  C24_33 
REMARK   19  A    between atoms: C20_29  and  N6_40 
REMARK   20  A    between atoms: C21_30  and  C22_31 
REMARK   21  A    between atoms: C22_31  and  C23_32 
REMARK   22  A    between atoms: C23_32  and  O8_43 
REMARK   23  A    between atoms: C24_33  and  C25_34 
REMARK   24  A    between atoms: C28_38  and  O6_39 
REMARK   25  A    between atoms: C29_42  and  O8_43 
REMARK   26  A    between atoms: C29_42  and  C35_49 
ROOT
ATOM      1  C14 non d ame     -34.503   9.155  30.092  0.00  0.00     0.089 C 
ATOM      2  H20 non d ame     -35.513   9.463  29.819  0.00  0.00     0.087 H 
ENDROOT
BRANCH   1   3
ATOM      3  N4  non d ame     -34.151   8.018  29.253  0.00  0.00    -0.346 N 
ATOM      4  C10 non d ame     -35.062   7.588  28.131  0.00  0.00     0.241 C 
ATOM      5  O4  non d ame     -36.075   8.170  27.924  0.00  0.00    -0.271 OA
ATOM      6  H19 non d ame     -33.286   7.535  29.448  0.00  0.00     0.163 HD
BRANCH   4   7
ATOM      7  C9  non d ame     -34.679   6.414  27.270  0.00  0.00     0.092 C 
ATOM      8  H11 non d ame     -35.472   5.666  27.310  0.00  0.00     0.088 H 
BRANCH   7   9
ATOM      9  N3  non d ame     -34.561   6.847  25.875  0.00  0.00    -0.346 N 
ATOM     10  C7  non d ame     -35.218   6.101  24.830  0.00  0.00     0.240 C 
ATOM     11  O3  non d ame     -35.845   5.148  25.095  0.00  0.00    -0.271 OA
ATOM     12  H10 non d ame     -34.023   7.666  25.631  0.00  0.00     0.163 HD
BRANCH  10  13
ATOM     13  C6  non d ame     -35.086   6.565  23.347  0.00  0.00     0.086 C 
ATOM     14  H6  non d ame     -35.639   7.482  23.141  0.00  0.00     0.086 H 
BRANCH  13  15
ATOM     15  N2  non d ame     -33.689   6.851  23.065  0.00  0.00    -0.343 N 
ATOM     16  C5  non d ame     -33.193   8.223  23.195  0.00  0.00     0.273 C 
ATOM     17  O2  non d ame     -33.926   9.090  23.524  0.00  0.00    -0.266 OA
ATOM     18  H5  non d ame     -33.071   6.105  22.780  0.00  0.00     0.163 HD
BRANCH  16  19
ATOM     19  C4  non d ame     -31.718   8.539  22.902  0.00  0.00     0.154 A 
ATOM     20  C1  non d ame     -30.640   7.606  22.790  0.00  0.00    -0.017 A 
ATOM     21  C2  non d ame     -29.501   8.396  22.515  0.00  0.00     0.077 A 
ATOM     22  H1  non d ame     -30.676   6.521  22.893  0.00  0.00     0.091 H 
ATOM     23  O1  non d ame     -29.892   9.637  22.473  0.00  0.00    -0.218 OA
ATOM     24  N1  non d ame     -31.181   9.745  22.697  0.00  0.00    -0.123 NA
BRANCH  21  25
ATOM     25  C3  non d ame     -28.081   7.889  22.305  0.00  0.00    -0.029 C 
ATOM     26  H2  non d ame     -27.540   7.921  23.251  0.00  0.00     0.036 H 
ATOM     27  H3  non d ame     -28.112   6.863  21.940  0.00  0.00     0.036 H 
ATOM     28  H4  non d ame     -27.574   8.520  21.576  0.00  0.00     0.036 H 
ENDBRANCH  21  25
ENDBRANCH  16  19
ENDBRANCH  13  15
BRANCH  13  29
ATOM     29  C8  non d ame     -35.586   5.477  22.430  0.00  0.00    -0.049 C 
ATOM     30  H7  non d ame     -36.626   5.254  22.664  0.00  0.00     0.030 H 
ATOM     31  H8  non d ame     -35.510   5.812  21.395  0.00  0.00     0.030 H 
ATOM     32  H9  non d ame     -34.982   4.581  22.567  0.00  0.00     0.030 H 
ENDBRANCH  13  29
ENDBRANCH  10  13
ENDBRANCH   7   9
BRANCH   7  33
ATOM     33  C11 non d ame     -33.313   5.843  27.751  0.00  0.00    -0.033 C 
ATOM     34  H12 non d ame     -33.120   6.248  28.745  0.00  0.00     0.042 H 
BRANCH  33  35
ATOM     35  C12 non d ame     -33.359   4.288  27.878  0.00  0.00    -0.071 C 
ATOM     36  H13 non d ame     -34.379   3.940  27.718  0.00  0.00     0.028 H 
ATOM     37  H14 non d ame     -32.702   3.844  27.131  0.00  0.00     0.028 H 
ATOM     38  H15 non d ame     -33.027   3.995  28.874  0.00  0.00     0.028 H 
ENDBRANCH  33  35
BRANCH  33  39
ATOM     39  C13 non d ame     -32.153   6.300  26.809  0.00  0.00    -0.071 C 
ATOM     40  H16 non d ame     -32.442   7.217  26.294  0.00  0.00     0.028 H 
ATOM     41  H17 non d ame     -31.255   6.483  27.400  0.00  0.00     0.028 H 
ATOM     42  H18 non d ame     -31.951   5.520  26.076  0.00  0.00     0.028 H 
ENDBRANCH  33  39
ENDBRANCH   7  33
ENDBRANCH   4   7
ENDBRANCH   1   3
BRANCH   1  43
ATOM     43  C15 non d ame     -33.461  10.285  29.858  0.00  0.00     0.240 C 
ATOM     44  O5  non d ame     -32.605  10.474  30.660  0.00  0.00    -0.271 OA
ATOM     45  N6  non d ame     -33.523  11.125  28.628  0.00  0.00    -0.355 N 
ATOM     46  H46 non d ame     -34.242  10.969  27.937  0.00  0.00     0.162 HD
BRANCH  45  47
ATOM     47  C20 non d ame     -32.523  12.195  28.419  0.00  0.00     0.013 C 
ATOM     48  H30 non d ame     -31.532  11.752  28.525  0.00  0.00     0.072 H 
BRANCH  47  49
ATOM     49  C21 non d ame     -32.721  13.274  29.458  0.00  0.00    -0.038 C 
ATOM     50  H31 non d ame     -33.587  13.848  29.125  0.00  0.00     0.036 H 
ATOM     51  H32 non d ame     -32.745  12.759  30.418  0.00  0.00     0.036 H 
BRANCH  49  52
ATOM     52  C22 non d ame     -31.540  14.267  29.525  0.00  0.00     0.018 C 
ATOM     53  H33 non d ame     -31.021  14.046  30.457  0.00  0.00     0.048 H 
ATOM     54  H34 non d ame     -31.017  14.166  28.573  0.00  0.00     0.048 H 
BRANCH  52  55
ATOM     55  C23 non d ame     -31.976  15.755  29.619  0.00  0.00     0.259 C 
ATOM     56  O7  non d ame     -31.371  16.519  30.299  0.00  0.00    -0.265 OA
BRANCH  55  57
ATOM     57  O8  non d ame     -33.120  16.193  28.895  0.00  0.00    -0.317 OA
BRANCH  57  58
ATOM     58  C29 non d ame     -32.839  16.585  27.548  0.00  0.00     0.052 C 
ATOM     59  H47 non d ame     -31.756  16.695  27.492  0.00  0.00     0.082 H 
ATOM     60  H48 non d ame     -33.347  15.857  26.916  0.00  0.00     0.082 H 
BRANCH  58  61
ATOM     61  C35 non d ame     -33.485  17.977  27.309  0.00  0.00    -0.034 A 
ATOM     62  C30 non d ame     -32.681  19.085  27.064  0.00  0.00    -0.075 A 
ATOM     63  C31 non d ame     -33.261  20.335  26.850  0.00  0.00    -0.082 A 
ATOM     64  H49 non d ame     -31.597  18.976  27.041  0.00  0.00     0.084 H 
ATOM     65  C32 non d ame     -34.651  20.474  26.884  0.00  0.00    -0.083 A 
ATOM     66  H50 non d ame     -32.628  21.202  26.657  0.00  0.00     0.083 H 
ATOM     67  C33 non d ame     -35.449  19.365  27.132  0.00  0.00    -0.082 A 
ATOM     68  H51 non d ame     -35.113  21.447  26.717  0.00  0.00     0.083 H 
ATOM     69  C34 non d ame     -34.874  18.114  27.344  0.00  0.00    -0.075 A 
ATOM     70  H52 non d ame     -36.534  19.477  27.160  0.00  0.00     0.083 H 
ATOM     71  H53 non d ame     -35.508  17.248  27.537  0.00  0.00     0.084 H 
ENDBRANCH  58  61
ENDBRANCH  57  58
ENDBRANCH  55  57
ENDBRANCH  52  55
ENDBRANCH  49  52
ENDBRANCH  47  49
BRANCH  47  72
ATOM     72  C24 non d ame     -32.689  12.792  27.023  0.00  0.00    -0.039 C 
ATOM     73  H35 non d ame     -33.432  12.166  26.528  0.00  0.00     0.036 H 
ATOM     74  H36 non d ame     -32.889  13.851  27.184  0.00  0.00     0.036 H 
BRANCH  72  75
ATOM     75  C25 non d ame     -31.338  12.690  26.169  0.00  0.00    -0.001 C 
ATOM     76  C26 non d ame     -30.911  14.179  25.619  0.00  0.00    -0.035 C 
ATOM     77  C27 non d ame     -30.690  14.104  24.284  0.00  0.00     0.085 C 
ATOM     78  H38 non d ame     -31.754  14.864  25.699  0.00  0.00     0.036 H 
ATOM     79  H39 non d ame     -29.938  14.461  26.022  0.00  0.00     0.036 H 
ATOM     80  N5  non d ame     -31.245  12.779  23.819  0.00  0.00    -0.049 N 
ATOM     81  H40 non d ame     -31.280  14.909  23.845  0.00  0.00     0.075 H 
ATOM     82  H41 non d ame     -29.607  14.095  24.168  0.00  0.00     0.075 H 
ATOM     83  C28 non d ame     -31.485  11.904  25.154  0.00  0.00     0.193 C 
ATOM     84  H42 non d ame     -32.141  12.975  23.398  0.00  0.00     0.280 HD
ATOM     85  H43 non d ame     -30.516  12.340  23.273  0.00  0.00     0.280 HD
ATOM     86  H44 non d ame     -30.797  11.103  25.423  0.00  0.00     0.129 H 
ATOM     87  H37 non d ame     -30.569  12.110  26.680  0.00  0.00     0.046 H 
BRANCH  83  88
ATOM     88  O6  non d ame     -32.780  11.301  25.122  0.00  0.00    -0.369 OA
ATOM     89  H45 non d ame     -32.821  10.670  24.401  0.00  0.00     0.212 HD
ENDBRANCH  83  88
ENDBRANCH  72  75
ENDBRANCH  47  72
ENDBRANCH  45  47
ENDBRANCH   1  43
BRANCH   1  90
ATOM     90  C16 non d ame     -34.472   8.724  31.549  0.00  0.00    -0.035 C 
ATOM     91  H21 non d ame     -34.621   7.645  31.535  0.00  0.00     0.037 H 
ATOM     92  H22 non d ame     -33.550   9.141  31.954  0.00  0.00     0.037 H 
BRANCH  90  93
ATOM     93  C17 non d ame     -35.638   9.317  32.403  0.00  0.00    -0.059 C 
ATOM     94  H23 non d ame     -35.777   8.669  33.268  0.00  0.00     0.038 H 
BRANCH  93  95
ATOM     95  C18 non d ame     -35.312  10.751  32.929  0.00  0.00    -0.073 C 
ATOM     96  H24 non d ame     -34.514  10.695  33.670  0.00  0.00     0.028 H 
ATOM     97  H25 non d ame     -34.989  11.379  32.098  0.00  0.00     0.028 H 
ATOM     98  H26 non d ame     -36.202  11.183  33.386  0.00  0.00     0.028 H 
ENDBRANCH  93  95
BRANCH  93  99
ATOM     99  C19 non d ame     -36.950   9.312  31.615  0.00  0.00    -0.073 C 
ATOM    100  H27 non d ame     -37.414   8.328  31.687  0.00  0.00     0.028 H 
ATOM    101  H28 non d ame     -37.626  10.061  32.028  0.00  0.00     0.028 H 
ATOM    102  H29 non d ame     -36.747   9.543  30.570  0.00  0.00     0.028 H 
ENDBRANCH  93  99
ENDBRANCH  90  93
ENDBRANCH   1  90
TORSDOF 26
ENDMDL
MODEL 15
REMARK VINA RESULT:      -6.6      3.834      8.116
REMARK  26 active torsions:
REMARK  status: ('A' for Active; 'I' for Inactive)
REMARK    1  A    between atoms: C2_2  and  C3_3 
REMARK    2  A    between atoms: C4_6  and  C5_7 
REMARK       I    between atoms: C5_7  and  N2_9 
REMARK    3  A    between atoms: N2_9  and  C6_10 
REMARK    4  A    between atoms: C6_10  and  C7_11 
REMARK    5  A    between atoms: C6_10  and  C8_13 
REMARK       I    between atoms: C7_11  and  N3_14 
REMARK    6  A    between atoms: N3_14  and  C9_15 
REMARK    7  A    between atoms: C9_15  and  C10_16 
REMARK    8  A    between atoms: C9_15  and  C11_18 
REMARK       I    between atoms: C10_16  and  N4_21 
REMARK    9  A    between atoms: C11_18  and  C12_19 
REMARK   10  A    between atoms: C11_18  and  C13_20 
REMARK   11  A    between atoms: N4_21  and  C14_22 
REMARK   12  A    between atoms: C14_22  and  C15_23 
REMARK   13  A    between atoms: C14_22  and  C16_25 
REMARK       I    between atoms: C15_23  and  N6_40 
REMARK   14  A    between atoms: C16_25  and  C17_26 
REMARK   15  A    between atoms: C17_26  and  C18_27 
REMARK   16  A    between atoms: C17_26  and  C19_28 
REMARK   17  A    between atoms: C20_29  and  C21_30 
REMARK   18  A    between atoms: C20_29  and  C24_33 
REMARK   19  A    between atoms: C20_29  and  N6_40 
REMARK   20  A    between atoms: C21_30  and  C22_31 
REMARK   21  A    between atoms: C22_31  and  C23_32 
REMARK   22  A    between atoms: C23_32  and  O8_43 
REMARK   23  A    between atoms: C24_33  and  C25_34 
REMARK   24  A    between atoms: C28_38  and  O6_39 
REMARK   25  A    between atoms: C29_42  and  O8_43 
REMARK   26  A    between atoms: C29_42  and  C35_49 
ROOT
ATOM      1  C14 non d ame     -31.843   7.383  23.144  0.00  0.00     0.089 C 
ATOM      2  H20 non d ame     -30.815   7.198  23.458  0.00  0.00     0.087 H 
ENDROOT
BRANCH   1   3
ATOM      3  N4  non d ame     -32.659   6.292  23.655  0.00  0.00    -0.346 N 
ATOM      4  C10 non d ame     -32.462   5.786  25.062  0.00  0.00     0.241 C 
ATOM      5  O4  non d ame     -31.637   6.271  25.764  0.00  0.00    -0.271 OA
ATOM      6  H19 non d ame     -33.354   5.891  23.041  0.00  0.00     0.163 HD
BRANCH   4   7
ATOM      7  C9  non d ame     -33.320   4.660  25.576  0.00  0.00     0.092 C 
ATOM      8  H11 non d ame     -32.682   3.898  26.023  0.00  0.00     0.088 H 
BRANCH   7   9
ATOM      9  N3  non d ame     -34.204   5.161  26.632  0.00  0.00    -0.346 N 
ATOM     10  C7  non d ame     -33.928   4.845  28.012  0.00  0.00     0.240 C 
ATOM     11  O3  non d ame     -33.000   4.188  28.290  0.00  0.00    -0.271 OA
ATOM     12  H10 non d ame     -35.009   5.727  26.408  0.00  0.00     0.163 HD
BRANCH  10  13
ATOM     13  C6  non d ame     -34.875   5.378  29.132  0.00  0.00     0.086 C 
ATOM     14  H6  non d ame     -34.785   4.817  30.062  0.00  0.00     0.086 H 
BRANCH  13  15
ATOM     15  N2  non d ame     -34.513   6.752  29.439  0.00  0.00    -0.343 N 
ATOM     16  C5  non d ame     -34.850   7.311  30.751  0.00  0.00     0.273 C 
ATOM     17  O2  non d ame     -35.413   6.648  31.551  0.00  0.00    -0.266 OA
ATOM     18  H5  non d ame     -34.036   7.313  28.748  0.00  0.00     0.163 HD
BRANCH  16  19
ATOM     19  C4  non d ame     -34.473   8.761  31.089  0.00  0.00     0.154 A 
ATOM     20  C1  non d ame     -33.714   9.668  30.283  0.00  0.00    -0.017 A 
ATOM     21  C2  non d ame     -33.649  10.860  31.039  0.00  0.00     0.077 A 
ATOM     22  H1  non d ame     -33.276   9.489  29.301  0.00  0.00     0.091 H 
ATOM     23  O1  non d ame     -34.301  10.652  32.146  0.00  0.00    -0.218 OA
ATOM     24  N1  non d ame     -34.789   9.435  32.198  0.00  0.00    -0.123 NA
BRANCH  21  25
ATOM     25  C3  non d ame     -32.949  12.150  30.631  0.00  0.00    -0.029 C 
ATOM     26  H2  non d ame     -32.276  11.950  29.798  0.00  0.00     0.036 H 
ATOM     27  H3  non d ame     -33.693  12.886  30.327  0.00  0.00     0.036 H 
ATOM     28  H4  non d ame     -32.378  12.536  31.474  0.00  0.00     0.036 H 
ENDBRANCH  21  25
ENDBRANCH  16  19
ENDBRANCH  13  15
BRANCH  13  29
ATOM     29  C8  non d ame     -36.305   5.313  28.659  0.00  0.00    -0.049 C 
ATOM     30  H7  non d ame     -36.366   5.681  27.635  0.00  0.00     0.030 H 
ATOM     31  H8  non d ame     -36.652   4.281  28.695  0.00  0.00     0.030 H 
ATOM     32  H9  non d ame     -36.930   5.930  29.305  0.00  0.00     0.030 H 
ENDBRANCH  13  29
ENDBRANCH  10  13
ENDBRANCH   7   9
BRANCH   7  33
ATOM     33  C11 non d ame     -34.180   4.091  24.410  0.00  0.00    -0.033 C 
ATOM     34  H12 non d ame     -33.997   4.713  23.533  0.00  0.00     0.042 H 
BRANCH  33  35
ATOM     35  C12 non d ame     -33.756   2.633  24.048  0.00  0.00    -0.071 C 
ATOM     36  H13 non d ame     -32.713   2.626  23.733  0.00  0.00     0.028 H 
ATOM     37  H14 non d ame     -33.876   1.993  24.922  0.00  0.00     0.028 H 
ATOM     38  H15 non d ame     -34.382   2.263  23.237  0.00  0.00     0.028 H 
ENDBRANCH  33  35
BRANCH  33  39
ATOM     39  C13 non d ame     -35.703   4.170  24.747  0.00  0.00    -0.071 C 
ATOM     40  H16 non d ame     -36.262   3.532  24.062  0.00  0.00     0.028 H 
ATOM     41  H17 non d ame     -35.867   3.834  25.772  0.00  0.00     0.028 H 
ATOM     42  H18 non d ame     -36.045   5.200  24.645  0.00  0.00     0.028 H 
ENDBRANCH  33  39
ENDBRANCH   7  33
ENDBRANCH   4   7
ENDBRANCH   1   3
BRANCH   1  43
ATOM     43  C15 non d ame     -32.398   8.722  23.707  0.00  0.00     0.240 C 
ATOM     44  O5  non d ame     -33.305   9.262  23.160  0.00  0.00    -0.271 OA
ATOM     45  N6  non d ame     -31.805   9.328  24.933  0.00  0.00    -0.355 N 
ATOM     46  H46 non d ame     -31.038   8.875  25.409  0.00  0.00     0.162 HD
BRANCH  45  47
ATOM     47  C20 non d ame     -32.345  10.601  25.457  0.00  0.00     0.013 C 
ATOM     48  H30 non d ame     -32.970  11.045  24.681  0.00  0.00     0.072 H 
BRANCH  47  49
ATOM     49  C21 non d ame     -31.200  11.530  25.791  0.00  0.00    -0.038 C 
ATOM     50  H31 non d ame     -30.336  10.884  25.958  0.00  0.00     0.036 H 
ATOM     51  H32 non d ame     -31.180  12.272  24.994  0.00  0.00     0.036 H 
BRANCH  49  52
ATOM     52  C22 non d ame     -31.423  12.307  27.107  0.00  0.00     0.018 C 
ATOM     53  H33 non d ame     -32.465  12.140  27.376  0.00  0.00     0.048 H 
ATOM     54  H34 non d ame     -30.627  11.982  27.779  0.00  0.00     0.048 H 
BRANCH  52  55
ATOM     55  C23 non d ame     -31.258  13.845  26.961  0.00  0.00     0.259 C 
ATOM     56  O7  non d ame     -31.656  14.577  27.808  0.00  0.00    -0.265 OA
BRANCH  55  57
ATOM     57  O8  non d ame     -30.637  14.372  25.795  0.00  0.00    -0.317 OA
BRANCH  57  58
ATOM     58  C29 non d ame     -31.511  15.155  24.975  0.00  0.00     0.052 C 
ATOM     59  H47 non d ame     -32.480  14.659  25.020  0.00  0.00     0.082 H 
ATOM     60  H48 non d ame     -31.406  16.181  25.327  0.00  0.00     0.082 H 
BRANCH  58  61
ATOM     61  C35 non d ame     -30.990  15.083  23.514  0.00  0.00    -0.034 A 
ATOM     62  C30 non d ame     -30.231  13.993  23.099  0.00  0.00    -0.075 A 
ATOM     63  C31 non d ame     -29.763  13.928  21.787  0.00  0.00    -0.082 A 
ATOM     64  H49 non d ame     -30.002  13.191  23.801  0.00  0.00     0.084 H 
ATOM     65  C32 non d ame     -30.054  14.959  20.890  0.00  0.00    -0.083 A 
ATOM     66  H50 non d ame     -29.169  13.072  21.464  0.00  0.00     0.083 H 
ATOM     67  C33 non d ame     -30.809  16.046  21.310  0.00  0.00    -0.082 A 
ATOM     68  H51 non d ame     -29.693  14.915  19.863  0.00  0.00     0.083 H 
ATOM     69  C34 non d ame     -31.281  16.114  22.620  0.00  0.00    -0.075 A 
ATOM     70  H52 non d ame     -31.033  16.850  20.609  0.00  0.00     0.083 H 
ATOM     71  H53 non d ame     -31.874  16.970  22.941  0.00  0.00     0.084 H 
ENDBRANCH  58  61
ENDBRANCH  57  58
ENDBRANCH  55  57
ENDBRANCH  52  55
ENDBRANCH  49  52
ENDBRANCH  47  49
BRANCH  47  72
ATOM     72  C24 non d ame     -33.171  10.335  26.714  0.00  0.00    -0.039 C 
ATOM     73  H35 non d ame     -32.868   9.344  27.054  0.00  0.00     0.036 H 
ATOM     74  H36 non d ame     -33.012  11.202  27.354  0.00  0.00     0.036 H 
BRANCH  72  75
ATOM     75  C25 non d ame     -34.738  10.266  26.391  0.00  0.00    -0.001 C 
ATOM     76  C26 non d ame     -35.567  11.224  27.438  0.00  0.00    -0.035 C 
ATOM     77  C27 non d ame     -36.572  10.502  27.989  0.00  0.00     0.085 C 
ATOM     78  H38 non d ame     -34.938  11.479  28.290  0.00  0.00     0.036 H 
ATOM     79  H39 non d ame     -36.090  12.010  26.891  0.00  0.00     0.036 H 
ATOM     80  N5  non d ame     -36.303   9.052  27.664  0.00  0.00    -0.049 N 
ATOM     81  H40 non d ame     -36.478  10.647  29.066  0.00  0.00     0.075 H 
ATOM     82  H41 non d ame     -37.477  10.819  27.473  0.00  0.00     0.075 H 
ATOM     83  C28 non d ame     -35.185   9.059  26.499  0.00  0.00     0.193 C 
ATOM     84  H42 non d ame     -35.900   8.642  28.494  0.00  0.00     0.280 HD
ATOM     85  H43 non d ame     -37.162   8.681  27.283  0.00  0.00     0.280 HD
ATOM     86  H44 non d ame     -35.462   8.857  25.465  0.00  0.00     0.129 H 
ATOM     87  H37 non d ame     -34.947  10.394  25.329  0.00  0.00     0.046 H 
BRANCH  83  88
ATOM     88  O6  non d ame     -34.148   8.125  26.805  0.00  0.00    -0.369 OA
ATOM     89  H45 non d ame     -33.927   7.622  26.019  0.00  0.00     0.212 HD
ENDBRANCH  83  88
ENDBRANCH  72  75
ENDBRANCH  47  72
ENDBRANCH  45  47
ENDBRANCH   1  43
BRANCH   1  90
ATOM     90  C16 non d ame     -31.923   7.393  21.626  0.00  0.00    -0.035 C 
ATOM     91  H21 non d ame     -32.150   8.424  21.356  0.00  0.00     0.037 H 
ATOM     92  H22 non d ame     -30.996   6.932  21.285  0.00  0.00     0.037 H 
BRANCH  90  93
ATOM     93  C17 non d ame     -33.086   6.522  21.053  0.00  0.00    -0.059 C 
ATOM     94  H23 non d ame     -33.611   6.075  21.897  0.00  0.00     0.038 H 
BRANCH  93  95
ATOM     95  C18 non d ame     -34.118   7.374  20.246  0.00  0.00    -0.073 C 
ATOM     96  H24 non d ame     -34.760   7.919  20.938  0.00  0.00     0.028 H 
ATOM     97  H25 non d ame     -33.585   8.083  19.612  0.00  0.00     0.028 H 
ATOM     98  H26 non d ame     -34.725   6.717  19.626  0.00  0.00     0.028 H 
ENDBRANCH  93  95
BRANCH  93  99
ATOM     99  C19 non d ame     -32.540   5.375  20.198  0.00  0.00    -0.073 C 
ATOM    100  H27 non d ame     -32.599   4.443  20.761  0.00  0.00     0.028 H 
ATOM    101  H28 non d ame     -33.133   5.287  19.288  0.00  0.00     0.028 H 
ATOM    102  H29 non d ame     -31.502   5.579  19.937  0.00  0.00     0.028 H 
ENDBRANCH  93  99
ENDBRANCH  90  93
ENDBRANCH   1  90
TORSDOF 26
ENDMDL
MODEL 16
REMARK VINA RESULT:      -6.6      3.328      7.490
REMARK  26 active torsions:
REMARK  status: ('A' for Active; 'I' for Inactive)
REMARK    1  A    between atoms: C2_2  and  C3_3 
REMARK    2  A    between atoms: C4_6  and  C5_7 
REMARK       I    between atoms: C5_7  and  N2_9 
REMARK    3  A    between atoms: N2_9  and  C6_10 
REMARK    4  A    between atoms: C6_10  and  C7_11 
REMARK    5  A    between atoms: C6_10  and  C8_13 
REMARK       I    between atoms: C7_11  and  N3_14 
REMARK    6  A    between atoms: N3_14  and  C9_15 
REMARK    7  A    between atoms: C9_15  and  C10_16 
REMARK    8  A    between atoms: C9_15  and  C11_18 
REMARK       I    between atoms: C10_16  and  N4_21 
REMARK    9  A    between atoms: C11_18  and  C12_19 
REMARK   10  A    between atoms: C11_18  and  C13_20 
REMARK   11  A    between atoms: N4_21  and  C14_22 
REMARK   12  A    between atoms: C14_22  and  C15_23 
REMARK   13  A    between atoms: C14_22  and  C16_25 
REMARK       I    between atoms: C15_23  and  N6_40 
REMARK   14  A    between atoms: C16_25  and  C17_26 
REMARK   15  A    between atoms: C17_26  and  C18_27 
REMARK   16  A    between atoms: C17_26  and  C19_28 
REMARK   17  A    between atoms: C20_29  and  C21_30 
REMARK   18  A    between atoms: C20_29  and  C24_33 
REMARK   19  A    between atoms: C20_29  and  N6_40 
REMARK   20  A    between atoms: C21_30  and  C22_31 
REMARK   21  A    between atoms: C22_31  and  C23_32 
REMARK   22  A    between atoms: C23_32  and  O8_43 
REMARK   23  A    between atoms: C24_33  and  C25_34 
REMARK   24  A    between atoms: C28_38  and  O6_39 
REMARK   25  A    between atoms: C29_42  and  O8_43 
REMARK   26  A    between atoms: C29_42  and  C35_49 
ROOT
ATOM      1  C14 non d ame     -32.323   8.705  24.799  0.00  0.00     0.089 C 
ATOM      2  H20 non d ame     -31.265   8.499  24.633  0.00  0.00     0.087 H 
ENDROOT
BRANCH   1   3
ATOM      3  N4  non d ame     -32.961   7.447  25.161  0.00  0.00    -0.346 N 
ATOM      4  C10 non d ame     -32.299   6.134  24.828  0.00  0.00     0.241 C 
ATOM      5  O4  non d ame     -31.256   6.113  24.264  0.00  0.00    -0.271 OA
ATOM      6  H19 non d ame     -33.850   7.487  25.639  0.00  0.00     0.163 HD
BRANCH   4   7
ATOM      7  C9  non d ame     -32.971   4.843  25.216  0.00  0.00     0.092 C 
ATOM      8  H11 non d ame     -32.263   4.221  25.764  0.00  0.00     0.088 H 
BRANCH   7   9
ATOM      9  N3  non d ame     -34.090   5.126  26.119  0.00  0.00    -0.346 N 
ATOM     10  C7  non d ame     -34.182   4.446  27.388  0.00  0.00     0.240 C 
ATOM     11  O3  non d ame     -33.364   3.668  27.698  0.00  0.00    -0.271 OA
ATOM     12  H10 non d ame     -34.804   5.793  25.865  0.00  0.00     0.163 HD
BRANCH  10  13
ATOM     13  C6  non d ame     -35.377   4.749  28.344  0.00  0.00     0.086 C 
ATOM     14  H6  non d ame     -35.336   4.171  29.267  0.00  0.00     0.086 H 
BRANCH  13  15
ATOM     15  N2  non d ame     -35.328   6.150  28.730  0.00  0.00    -0.343 N 
ATOM     16  C5  non d ame     -35.518   6.518  30.135  0.00  0.00     0.273 C 
ATOM     17  O2  non d ame     -35.711   5.681  30.946  0.00  0.00    -0.266 OA
ATOM     18  H5  non d ame     -35.167   6.859  28.029  0.00  0.00     0.163 HD
BRANCH  16  19
ATOM     19  C4  non d ame     -35.467   7.995  30.556  0.00  0.00     0.154 A 
ATOM     20  C1  non d ame     -35.286   8.511  31.879  0.00  0.00    -0.017 A 
ATOM     21  C2  non d ame     -35.315   9.916  31.728  0.00  0.00     0.077 A 
ATOM     22  H1  non d ame     -35.156   7.953  32.805  0.00  0.00     0.091 H 
ATOM     23  O1  non d ame     -35.490  10.166  30.463  0.00  0.00    -0.218 OA
ATOM     24  N1  non d ame     -35.582   9.061  29.760  0.00  0.00    -0.123 NA
BRANCH  21  25
ATOM     25  C3  non d ame     -35.167  10.945  32.840  0.00  0.00    -0.029 C 
ATOM     26  H2  non d ame     -35.184  11.948  32.413  0.00  0.00     0.036 H 
ATOM     27  H3  non d ame     -35.991  10.838  33.546  0.00  0.00     0.036 H 
ATOM     28  H4  non d ame     -34.222  10.787  33.358  0.00  0.00     0.036 H 
ENDBRANCH  21  25
ENDBRANCH  16  19
ENDBRANCH  13  15
BRANCH  13  29
ATOM     29  C8  non d ame     -36.676   4.453  27.638  0.00  0.00    -0.049 C 
ATOM     30  H7  non d ame     -36.782   5.114  26.779  0.00  0.00     0.030 H 
ATOM     31  H8  non d ame     -36.677   3.416  27.301  0.00  0.00     0.030 H 
ATOM     32  H9  non d ame     -37.508   4.613  28.325  0.00  0.00     0.030 H 
ENDBRANCH  13  29
ENDBRANCH  10  13
ENDBRANCH   7   9
BRANCH   7  33
ATOM     33  C11 non d ame     -33.505   4.132  23.938  0.00  0.00    -0.033 C 
ATOM     34  H12 non d ame     -32.733   4.210  23.172  0.00  0.00     0.042 H 
BRANCH  33  35
ATOM     35  C12 non d ame     -33.760   2.614  24.195  0.00  0.00    -0.071 C 
ATOM     36  H13 non d ame     -34.338   2.198  23.370  0.00  0.00     0.028 H 
ATOM     37  H14 non d ame     -32.806   2.094  24.268  0.00  0.00     0.028 H 
ATOM     38  H15 non d ame     -34.314   2.491  25.125  0.00  0.00     0.028 H 
ENDBRANCH  33  35
BRANCH  33  39
ATOM     39  C13 non d ame     -34.791   4.839  23.401  0.00  0.00    -0.071 C 
ATOM     40  H16 non d ame     -35.435   5.108  24.239  0.00  0.00     0.028 H 
ATOM     41  H17 non d ame     -34.510   5.740  22.855  0.00  0.00     0.028 H 
ATOM     42  H18 non d ame     -35.325   4.164  22.734  0.00  0.00     0.028 H 
ENDBRANCH  33  39
ENDBRANCH   7  33
ENDBRANCH   4   7
ENDBRANCH   1   3
BRANCH   1  43
ATOM     43  C15 non d ame     -32.550   9.725  25.950  0.00  0.00     0.240 C 
ATOM     44  O5  non d ame     -32.645   9.340  27.071  0.00  0.00    -0.271 OA
ATOM     45  N6  non d ame     -32.640  11.184  25.658  0.00  0.00    -0.355 N 
ATOM     46  H46 non d ame     -32.556  11.523  24.710  0.00  0.00     0.162 HD
BRANCH  45  47
ATOM     47  C20 non d ame     -32.854  12.143  26.763  0.00  0.00     0.013 C 
ATOM     48  H30 non d ame     -33.367  11.616  27.569  0.00  0.00     0.072 H 
BRANCH  47  49
ATOM     49  C21 non d ame     -33.707  13.291  26.272  0.00  0.00    -0.038 C 
ATOM     50  H31 non d ame     -33.336  13.526  25.272  0.00  0.00     0.036 H 
ATOM     51  H32 non d ame     -34.739  12.970  26.409  0.00  0.00     0.036 H 
BRANCH  49  52
ATOM     52  C22 non d ame     -33.531  14.572  27.114  0.00  0.00     0.018 C 
ATOM     53  H33 non d ame     -34.524  14.821  27.484  0.00  0.00     0.048 H 
ATOM     54  H34 non d ame     -32.727  14.353  27.819  0.00  0.00     0.048 H 
BRANCH  52  55
ATOM     55  C23 non d ame     -33.057  15.802  26.293  0.00  0.00     0.259 C 
ATOM     56  O7  non d ame     -33.751  16.761  26.188  0.00  0.00    -0.265 OA
BRANCH  55  57
ATOM     57  O8  non d ame     -31.787  15.766  25.652  0.00  0.00    -0.317 OA
BRANCH  57  58
ATOM     58  C29 non d ame     -31.815  16.179  24.282  0.00  0.00     0.052 C 
ATOM     59  H47 non d ame     -32.855  16.088  23.968  0.00  0.00     0.082 H 
ATOM     60  H48 non d ame     -31.320  17.149  24.256  0.00  0.00     0.082 H 
BRANCH  58  61
ATOM     61  C35 non d ame     -30.965  15.172  23.461  0.00  0.00    -0.034 A 
ATOM     62  C30 non d ame     -30.993  13.817  23.776  0.00  0.00    -0.075 A 
ATOM     63  C31 non d ame     -30.229  12.913  23.039  0.00  0.00    -0.082 A 
ATOM     64  H49 non d ame     -31.611  13.464  24.601  0.00  0.00     0.084 H 
ATOM     65  C32 non d ame     -29.433  13.369  21.984  0.00  0.00    -0.083 A 
ATOM     66  H50 non d ame     -30.253  11.852  23.288  0.00  0.00     0.083 H 
ATOM     67  C33 non d ame     -29.407  14.722  21.675  0.00  0.00    -0.082 A 
ATOM     68  H51 non d ame     -28.834  12.669  21.402  0.00  0.00     0.083 H 
ATOM     69  C34 non d ame     -30.170  15.629  22.408  0.00  0.00    -0.075 A 
ATOM     70  H52 non d ame     -28.784  15.076  20.853  0.00  0.00     0.083 H 
ATOM     71  H53 non d ame     -30.145  16.690  22.158  0.00  0.00     0.084 H 
ENDBRANCH  58  61
ENDBRANCH  57  58
ENDBRANCH  55  57
ENDBRANCH  52  55
ENDBRANCH  49  52
ENDBRANCH  47  49
BRANCH  47  72
ATOM     72  C24 non d ame     -31.510  12.677  27.252  0.00  0.00    -0.039 C 
ATOM     73  H35 non d ame     -30.773  12.299  26.542  0.00  0.00     0.036 H 
ATOM     74  H36 non d ame     -31.651  13.752  27.369  0.00  0.00     0.036 H 
BRANCH  72  75
ATOM     75  C25 non d ame     -31.126  12.090  28.692  0.00  0.00    -0.001 C 
ATOM     76  C26 non d ame     -32.492  11.693  29.516  0.00  0.00    -0.035 C 
ATOM     77  C27 non d ame     -32.445  12.268  30.742  0.00  0.00     0.085 C 
ATOM     78  H38 non d ame     -33.359  12.158  29.049  0.00  0.00     0.036 H 
ATOM     79  H39 non d ame     -32.498  10.625  29.736  0.00  0.00     0.036 H 
ATOM     80  N5  non d ame     -31.331  13.286  30.709  0.00  0.00    -0.049 N 
ATOM     81  H40 non d ame     -33.397  12.786  30.857  0.00  0.00     0.075 H 
ATOM     82  H41 non d ame     -32.174  11.467  31.429  0.00  0.00     0.075 H 
ATOM     83  C28 non d ame     -30.464  12.955  29.388  0.00  0.00     0.193 C 
ATOM     84  H42 non d ame     -31.770  14.188  30.588  0.00  0.00     0.280 HD
ATOM     85  H43 non d ame     -30.758  13.109  31.522  0.00  0.00     0.280 HD
ATOM     86  H44 non d ame     -29.503  12.450  29.468  0.00  0.00     0.129 H 
ATOM     87  H37 non d ame     -30.343  11.335  28.634  0.00  0.00     0.046 H 
BRANCH  83  88
ATOM     88  O6  non d ame     -30.206  14.154  28.654  0.00  0.00    -0.369 OA
ATOM     89  H45 non d ame     -30.888  14.801  28.849  0.00  0.00     0.212 HD
ENDBRANCH  83  88
ENDBRANCH  72  75
ENDBRANCH  47  72
ENDBRANCH  45  47
ENDBRANCH   1  43
BRANCH   1  90
ATOM     90  C16 non d ame     -32.954   9.229  23.519  0.00  0.00    -0.035 C 
ATOM     91  H21 non d ame     -33.813   8.586  23.335  0.00  0.00     0.037 H 
ATOM     92  H22 non d ame     -33.098  10.296  23.685  0.00  0.00     0.037 H 
BRANCH  90  93
ATOM     93  C17 non d ame     -32.030   9.098  22.266  0.00  0.00    -0.059 C 
ATOM     94  H23 non d ame     -32.241   9.941  21.609  0.00  0.00     0.038 H 
BRANCH  93  95
ATOM     95  C18 non d ame     -30.515   9.153  22.642  0.00  0.00    -0.073 C 
ATOM     96  H24 non d ame     -30.354   9.931  23.389  0.00  0.00     0.028 H 
ATOM     97  H25 non d ame     -30.207   8.190  23.050  0.00  0.00     0.028 H 
ATOM     98  H26 non d ame     -29.927   9.376  21.752  0.00  0.00     0.028 H 
ENDBRANCH  93  95
BRANCH  93  99
ATOM     99  C19 non d ame     -32.350   7.821  21.483  0.00  0.00    -0.073 C 
ATOM    100  H27 non d ame     -31.993   7.924  20.458  0.00  0.00     0.028 H 
ATOM    101  H28 non d ame     -31.855   6.972  21.955  0.00  0.00     0.028 H 
ATOM    102  H29 non d ame     -33.427   7.657  21.479  0.00  0.00     0.028 H 
ENDBRANCH  93  99
ENDBRANCH  90  93
ENDBRANCH   1  90
TORSDOF 26
ENDMDL
MODEL 17
REMARK VINA RESULT:      -6.6      3.133      8.014
REMARK  26 active torsions:
REMARK  status: ('A' for Active; 'I' for Inactive)
REMARK    1  A    between atoms: C2_2  and  C3_3 
REMARK    2  A    between atoms: C4_6  and  C5_7 
REMARK       I    between atoms: C5_7  and  N2_9 
REMARK    3  A    between atoms: N2_9  and  C6_10 
REMARK    4  A    between atoms: C6_10  and  C7_11 
REMARK    5  A    between atoms: C6_10  and  C8_13 
REMARK       I    between atoms: C7_11  and  N3_14 
REMARK    6  A    between atoms: N3_14  and  C9_15 
REMARK    7  A    between atoms: C9_15  and  C10_16 
REMARK    8  A    between atoms: C9_15  and  C11_18 
REMARK       I    between atoms: C10_16  and  N4_21 
REMARK    9  A    between atoms: C11_18  and  C12_19 
REMARK   10  A    between atoms: C11_18  and  C13_20 
REMARK   11  A    between atoms: N4_21  and  C14_22 
REMARK   12  A    between atoms: C14_22  and  C15_23 
REMARK   13  A    between atoms: C14_22  and  C16_25 
REMARK       I    between atoms: C15_23  and  N6_40 
REMARK   14  A    between atoms: C16_25  and  C17_26 
REMARK   15  A    between atoms: C17_26  and  C18_27 
REMARK   16  A    between atoms: C17_26  and  C19_28 
REMARK   17  A    between atoms: C20_29  and  C21_30 
REMARK   18  A    between atoms: C20_29  and  C24_33 
REMARK   19  A    between atoms: C20_29  and  N6_40 
REMARK   20  A    between atoms: C21_30  and  C22_31 
REMARK   21  A    between atoms: C22_31  and  C23_32 
REMARK   22  A    between atoms: C23_32  and  O8_43 
REMARK   23  A    between atoms: C24_33  and  C25_34 
REMARK   24  A    between atoms: C28_38  and  O6_39 
REMARK   25  A    between atoms: C29_42  and  O8_43 
REMARK   26  A    between atoms: C29_42  and  C35_49 
ROOT
ATOM      1  C14 non d ame     -34.859   9.284  28.526  0.00  0.00     0.089 C 
ATOM      2  H20 non d ame     -34.871   9.159  29.610  0.00  0.00     0.087 H 
ENDROOT
BRANCH   1   3
ATOM      3  N4  non d ame     -33.823  10.255  28.210  0.00  0.00    -0.346 N 
ATOM      4  C10 non d ame     -33.276  11.163  29.283  0.00  0.00     0.241 C 
ATOM      5  O4  non d ame     -33.688  11.096  30.393  0.00  0.00    -0.271 OA
ATOM      6  H19 non d ame     -33.487  10.298  27.258  0.00  0.00     0.163 HD
BRANCH   4   7
ATOM      7  C9  non d ame     -32.199  12.158  28.938  0.00  0.00     0.092 C 
ATOM      8  H11 non d ame     -31.455  11.677  28.303  0.00  0.00     0.088 H 
BRANCH   7   9
ATOM      9  N3  non d ame     -32.781  13.260  28.167  0.00  0.00    -0.346 N 
ATOM     10  C7  non d ame     -32.490  13.387  26.760  0.00  0.00     0.240 C 
ATOM     11  O3  non d ame     -31.789  12.612  26.233  0.00  0.00    -0.271 OA
ATOM     12  H10 non d ame     -33.386  13.938  28.607  0.00  0.00     0.163 HD
BRANCH  10  13
ATOM     13  C6  non d ame     -33.109  14.564  25.944  0.00  0.00     0.086 C 
ATOM     14  H6  non d ame     -32.935  15.535  26.407  0.00  0.00     0.086 H 
BRANCH  13  15
ATOM     15  N2  non d ame     -32.482  14.610  24.633  0.00  0.00    -0.343 N 
ATOM     16  C5  non d ame     -31.400  15.565  24.384  0.00  0.00     0.273 C 
ATOM     17  O2  non d ame     -31.043  16.294  25.244  0.00  0.00    -0.266 OA
ATOM     18  H5  non d ame     -32.796  13.986  23.904  0.00  0.00     0.163 HD
BRANCH  16  19
ATOM     19  C4  non d ame     -30.728  15.623  23.004  0.00  0.00     0.154 A 
ATOM     20  C1  non d ame     -31.369  15.786  21.736  0.00  0.00    -0.017 A 
ATOM     21  C2  non d ame     -30.318  15.774  20.792  0.00  0.00     0.077 A 
ATOM     22  H1  non d ame     -32.434  15.894  21.530  0.00  0.00     0.091 H 
ATOM     23  O1  non d ame     -29.206  15.626  21.453  0.00  0.00    -0.218 OA
ATOM     24  N1  non d ame     -29.420  15.534  22.745  0.00  0.00    -0.123 NA
BRANCH  21  25
ATOM     25  C3  non d ame     -30.459  15.913  19.282  0.00  0.00    -0.029 C 
ATOM     26  H2  non d ame     -29.474  16.041  18.835  0.00  0.00     0.036 H 
ATOM     27  H3  non d ame     -30.928  15.015  18.878  0.00  0.00     0.036 H 
ATOM     28  H4  non d ame     -31.077  16.780  19.053  0.00  0.00     0.036 H 
ENDBRANCH  21  25
ENDBRANCH  16  19
ENDBRANCH  13  15
BRANCH  13  29
ATOM     29  C8  non d ame     -34.595  14.351  25.799  0.00  0.00    -0.049 C 
ATOM     30  H7  non d ame     -34.844  13.326  26.070  0.00  0.00     0.030 H 
ATOM     31  H8  non d ame     -35.126  15.040  26.456  0.00  0.00     0.030 H 
ATOM     32  H9  non d ame     -34.889  14.536  24.765  0.00  0.00     0.030 H 
ENDBRANCH  13  29
ENDBRANCH  10  13
ENDBRANCH   7   9
BRANCH   7  33
ATOM     33  C11 non d ame     -31.573  12.719  30.248  0.00  0.00    -0.033 C 
ATOM     34  H12 non d ame     -32.365  12.764  30.997  0.00  0.00     0.042 H 
BRANCH  33  35
ATOM     35  C12 non d ame     -30.460  11.773  30.798  0.00  0.00    -0.071 C 
ATOM     36  H13 non d ame     -29.687  12.367  31.286  0.00  0.00     0.028 H 
ATOM     37  H14 non d ame     -30.895  11.081  31.518  0.00  0.00     0.028 H 
ATOM     38  H15 non d ame     -30.020  11.212  29.974  0.00  0.00     0.028 H 
ENDBRANCH  33  35
BRANCH  33  39
ATOM     39  C13 non d ame     -31.030  14.168  30.033  0.00  0.00    -0.071 C 
ATOM     40  H16 non d ame     -31.209  14.761  30.931  0.00  0.00     0.028 H 
ATOM     41  H17 non d ame     -29.959  14.129  29.831  0.00  0.00     0.028 H 
ATOM     42  H18 non d ame     -31.541  14.626  29.187  0.00  0.00     0.028 H 
ENDBRANCH  33  39
ENDBRANCH   7  33
ENDBRANCH   4   7
ENDBRANCH   1   3
BRANCH   1  43
ATOM     43  C15 non d ame     -34.535   7.955  27.786  0.00  0.00     0.240 C 
ATOM     44  O5  non d ame     -35.343   7.471  27.061  0.00  0.00    -0.271 OA
ATOM     45  N6  non d ame     -33.214   7.291  27.972  0.00  0.00    -0.355 N 
ATOM     46  H46 non d ame     -32.518   7.696  28.582  0.00  0.00     0.162 HD
BRANCH  45  47
ATOM     47  C20 non d ame     -32.920   6.028  27.259  0.00  0.00     0.013 C 
ATOM     48  H30 non d ame     -33.862   5.630  26.881  0.00  0.00     0.072 H 
BRANCH  47  49
ATOM     49  C21 non d ame     -32.293   5.045  28.221  0.00  0.00    -0.038 C 
ATOM     50  H31 non d ame     -31.713   4.358  27.604  0.00  0.00     0.036 H 
ATOM     51  H32 non d ame     -31.795   5.651  28.978  0.00  0.00     0.036 H 
BRANCH  49  52
ATOM     52  C22 non d ame     -33.338   4.186  28.966  0.00  0.00     0.018 C 
ATOM     53  H33 non d ame     -34.307   4.611  28.710  0.00  0.00     0.048 H 
ATOM     54  H34 non d ame     -33.110   3.152  28.704  0.00  0.00     0.048 H 
BRANCH  52  55
ATOM     55  C23 non d ame     -33.228   4.269  30.514  0.00  0.00     0.259 C 
ATOM     56  O7  non d ame     -32.347   3.714  31.087  0.00  0.00    -0.265 OA
BRANCH  55  57
ATOM     57  O8  non d ame     -34.203   5.005  31.243  0.00  0.00    -0.317 OA
BRANCH  57  58
ATOM     58  C29 non d ame     -35.320   5.430  30.455  0.00  0.00     0.052 C 
ATOM     59  H47 non d ame     -34.925   5.604  29.455  0.00  0.00     0.082 H 
ATOM     60  H48 non d ame     -36.095   4.680  30.614  0.00  0.00     0.082 H 
BRANCH  58  61
ATOM     61  C35 non d ame     -35.822   6.783  31.027  0.00  0.00    -0.034 A 
ATOM     62  C30 non d ame     -37.154   7.155  30.868  0.00  0.00    -0.075 A 
ATOM     63  C31 non d ame     -37.605   8.371  31.381  0.00  0.00    -0.082 A 
ATOM     64  H49 non d ame     -37.843   6.495  30.342  0.00  0.00     0.084 H 
ATOM     65  C32 non d ame     -36.718   9.216  32.053  0.00  0.00    -0.083 A 
ATOM     66  H50 non d ame     -38.649   8.658  31.256  0.00  0.00     0.083 H 
ATOM     67  C33 non d ame     -35.390   8.842  32.206  0.00  0.00    -0.082 A 
ATOM     68  H51 non d ame     -37.064  10.168  32.458  0.00  0.00     0.083 H 
ATOM     69  C34 non d ame     -34.936   7.628  31.697  0.00  0.00    -0.075 A 
ATOM     70  H52 non d ame     -34.700   9.505  32.729  0.00  0.00     0.083 H 
ATOM     71  H53 non d ame     -33.891   7.341  31.823  0.00  0.00     0.084 H 
ENDBRANCH  58  61
ENDBRANCH  57  58
ENDBRANCH  55  57
ENDBRANCH  52  55
ENDBRANCH  49  52
ENDBRANCH  47  49
BRANCH  47  72
ATOM     72  C24 non d ame     -31.957   6.298  26.105  0.00  0.00    -0.039 C 
ATOM     73  H35 non d ame     -31.389   7.180  26.403  0.00  0.00     0.036 H 
ATOM     74  H36 non d ame     -31.444   5.354  25.929  0.00  0.00     0.036 H 
BRANCH  72  75
ATOM     75  C25 non d ame     -32.737   6.671  24.756  0.00  0.00    -0.001 C 
ATOM     76  C26 non d ame     -32.137   5.792  23.503  0.00  0.00    -0.035 C 
ATOM     77  C27 non d ame     -31.832   6.634  22.487  0.00  0.00     0.085 C 
ATOM     78  H38 non d ame     -31.174   5.361  23.775  0.00  0.00     0.036 H 
ATOM     79  H39 non d ame     -32.919   5.159  23.083  0.00  0.00     0.036 H 
ATOM     80  N5  non d ame     -31.859   8.034  23.050  0.00  0.00    -0.049 N 
ATOM     81  H40 non d ame     -30.809   6.387  22.201  0.00  0.00     0.075 H 
ATOM     82  H41 non d ame     -32.641   6.526  21.765  0.00  0.00     0.075 H 
ATOM     83  C28 non d ame     -32.611   7.925  24.475  0.00  0.00     0.193 C 
ATOM     84  H42 non d ame     -30.898   8.297  23.213  0.00  0.00     0.280 HD
ATOM     85  H43 non d ame     -32.433   8.583  22.425  0.00  0.00     0.280 HD
ATOM     86  H44 non d ame     -33.643   8.257  24.583  0.00  0.00     0.129 H 
ATOM     87  H37 non d ame     -33.818   6.669  24.891  0.00  0.00     0.046 H 
BRANCH  83  88
ATOM     88  O6  non d ame     -31.876   8.631  25.476  0.00  0.00    -0.369 OA
ATOM     89  H45 non d ame     -31.040   8.929  25.109  0.00  0.00     0.212 HD
ENDBRANCH  83  88
ENDBRANCH  72  75
ENDBRANCH  47  72
ENDBRANCH  45  47
ENDBRANCH   1  43
BRANCH   1  90
ATOM     90  C16 non d ame     -36.201   9.819  28.054  0.00  0.00    -0.035 C 
ATOM     91  H21 non d ame     -36.681   8.985  27.542  0.00  0.00     0.037 H 
ATOM     92  H22 non d ame     -36.666  10.254  28.939  0.00  0.00     0.037 H 
BRANCH  90  93
ATOM     93  C17 non d ame     -36.084  10.970  27.006  0.00  0.00    -0.059 C 
ATOM     94  H23 non d ame     -35.112  11.445  27.142  0.00  0.00     0.038 H 
BRANCH  93  95
ATOM     95  C18 non d ame     -36.153  10.440  25.538  0.00  0.00    -0.073 C 
ATOM     96  H24 non d ame     -35.995   9.362  25.533  0.00  0.00     0.028 H 
ATOM     97  H25 non d ame     -37.134  10.663  25.117  0.00  0.00     0.028 H 
ATOM     98  H26 non d ame     -35.383  10.924  24.939  0.00  0.00     0.028 H 
ENDBRANCH  93  95
BRANCH  93  99
ATOM     99  C19 non d ame     -37.151  12.041  27.248  0.00  0.00    -0.073 C 
ATOM    100  H27 non d ame     -37.791  11.736  28.076  0.00  0.00     0.028 H 
ATOM    101  H28 non d ame     -36.667  12.987  27.494  0.00  0.00     0.028 H 
ATOM    102  H29 non d ame     -37.753  12.165  26.349  0.00  0.00     0.028 H 
ENDBRANCH  93  99
ENDBRANCH  90  93
ENDBRANCH   1  90
TORSDOF 26
ENDMDL
MODEL 18
REMARK VINA RESULT:      -6.6      3.018      8.941
REMARK  26 active torsions:
REMARK  status: ('A' for Active; 'I' for Inactive)
REMARK    1  A    between atoms: C2_2  and  C3_3 
REMARK    2  A    between atoms: C4_6  and  C5_7 
REMARK       I    between atoms: C5_7  and  N2_9 
REMARK    3  A    between atoms: N2_9  and  C6_10 
REMARK    4  A    between atoms: C6_10  and  C7_11 
REMARK    5  A    between atoms: C6_10  and  C8_13 
REMARK       I    between atoms: C7_11  and  N3_14 
REMARK    6  A    between atoms: N3_14  and  C9_15 
REMARK    7  A    between atoms: C9_15  and  C10_16 
REMARK    8  A    between atoms: C9_15  and  C11_18 
REMARK       I    between atoms: C10_16  and  N4_21 
REMARK    9  A    between atoms: C11_18  and  C12_19 
REMARK   10  A    between atoms: C11_18  and  C13_20 
REMARK   11  A    between atoms: N4_21  and  C14_22 
REMARK   12  A    between atoms: C14_22  and  C15_23 
REMARK   13  A    between atoms: C14_22  and  C16_25 
REMARK       I    between atoms: C15_23  and  N6_40 
REMARK   14  A    between atoms: C16_25  and  C17_26 
REMARK   15  A    between atoms: C17_26  and  C18_27 
REMARK   16  A    between atoms: C17_26  and  C19_28 
REMARK   17  A    between atoms: C20_29  and  C21_30 
REMARK   18  A    between atoms: C20_29  and  C24_33 
REMARK   19  A    between atoms: C20_29  and  N6_40 
REMARK   20  A    between atoms: C21_30  and  C22_31 
REMARK   21  A    between atoms: C22_31  and  C23_32 
REMARK   22  A    between atoms: C23_32  and  O8_43 
REMARK   23  A    between atoms: C24_33  and  C25_34 
REMARK   24  A    between atoms: C28_38  and  O6_39 
REMARK   25  A    between atoms: C29_42  and  O8_43 
REMARK   26  A    between atoms: C29_42  and  C35_49 
ROOT
ATOM      1  C14 non d ame     -33.688   6.925  27.802  0.00  0.00     0.089 C 
ATOM      2  H20 non d ame     -33.205   6.513  28.688  0.00  0.00     0.087 H 
ENDROOT
BRANCH   1   3
ATOM      3  N4  non d ame     -34.078   8.293  28.112  0.00  0.00    -0.346 N 
ATOM      4  C10 non d ame     -34.663   8.631  29.460  0.00  0.00     0.241 C 
ATOM      5  O4  non d ame     -34.815   7.785  30.278  0.00  0.00    -0.271 OA
ATOM      6  H19 non d ame     -33.942   8.998  27.401  0.00  0.00     0.163 HD
BRANCH   4   7
ATOM      7  C9  non d ame     -35.055  10.053  29.766  0.00  0.00     0.092 C 
ATOM      8  H11 non d ame     -35.191  10.164  30.842  0.00  0.00     0.088 H 
BRANCH   7   9
ATOM      9  N3  non d ame     -33.970  10.955  29.370  0.00  0.00    -0.346 N 
ATOM     10  C7  non d ame     -32.923  11.279  30.308  0.00  0.00     0.240 C 
ATOM     11  O3  non d ame     -32.940  10.823  31.386  0.00  0.00    -0.271 OA
ATOM     12  H10 non d ame     -33.944  11.357  28.444  0.00  0.00     0.163 HD
BRANCH  10  13
ATOM     13  C6  non d ame     -31.773  12.243  29.882  0.00  0.00     0.086 C 
ATOM     14  H6  non d ame     -31.239  11.897  28.997  0.00  0.00     0.086 H 
BRANCH  13  15
ATOM     15  N2  non d ame     -32.343  13.536  29.543  0.00  0.00    -0.343 N 
ATOM     16  C5  non d ame     -31.650  14.402  28.585  0.00  0.00     0.273 C 
ATOM     17  O2  non d ame     -30.634  14.049  28.095  0.00  0.00    -0.266 OA
ATOM     18  H5  non d ame     -33.209  13.831  29.970  0.00  0.00     0.163 HD
BRANCH  16  19
ATOM     19  C4  non d ame     -32.242  15.771  28.218  0.00  0.00     0.154 A 
ATOM     20  C1  non d ame     -32.563  16.251  26.908  0.00  0.00    -0.017 A 
ATOM     21  C2  non d ame     -33.073  17.553  27.113  0.00  0.00     0.077 A 
ATOM     22  H1  non d ame     -32.444  15.735  25.956  0.00  0.00     0.091 H 
ATOM     23  O1  non d ame     -33.046  17.782  28.394  0.00  0.00    -0.218 OA
ATOM     24  N1  non d ame     -32.565  16.757  29.058  0.00  0.00    -0.123 NA
BRANCH  21  25
ATOM     25  C3  non d ame     -33.565  18.508  26.034  0.00  0.00    -0.029 C 
ATOM     26  H2  non d ame     -34.126  17.952  25.283  0.00  0.00     0.036 H 
ATOM     27  H3  non d ame     -34.210  19.263  26.483  0.00  0.00     0.036 H 
ATOM     28  H4  non d ame     -32.711  18.994  25.562  0.00  0.00     0.036 H 
ENDBRANCH  21  25
ENDBRANCH  16  19
ENDBRANCH  13  15
BRANCH  13  29
ATOM     29  C8  non d ame     -30.792  12.392  31.017  0.00  0.00    -0.049 C 
ATOM     30  H7  non d ame     -29.853  12.792  30.636  0.00  0.00     0.030 H 
ATOM     31  H8  non d ame     -31.201  13.074  31.763  0.00  0.00     0.030 H 
ATOM     32  H9  non d ame     -30.614  11.418  31.474  0.00  0.00     0.030 H 
ENDBRANCH  13  29
ENDBRANCH  10  13
ENDBRANCH   7   9
BRANCH   7  33
ATOM     33  C11 non d ame     -36.344  10.417  28.973  0.00  0.00    -0.033 C 
ATOM     34  H12 non d ame     -36.875  11.181  29.542  0.00  0.00     0.042 H 
BRANCH  33  35
ATOM     35  C12 non d ame     -36.003  11.024  27.577  0.00  0.00    -0.071 C 
ATOM     36  H13 non d ame     -35.731  12.073  27.693  0.00  0.00     0.028 H 
ATOM     37  H14 non d ame     -35.167  10.479  27.139  0.00  0.00     0.028 H 
ATOM     38  H15 non d ame     -36.871  10.944  26.923  0.00  0.00     0.028 H 
ENDBRANCH  33  35
BRANCH  33  39
ATOM     39  C13 non d ame     -37.285   9.177  28.837  0.00  0.00    -0.071 C 
ATOM     40  H16 non d ame     -37.783   9.203  27.867  0.00  0.00     0.028 H 
ATOM     41  H17 non d ame     -36.697   8.262  28.919  0.00  0.00     0.028 H 
ATOM     42  H18 non d ame     -38.032   9.199  29.630  0.00  0.00     0.028 H 
ENDBRANCH  33  39
ENDBRANCH   7  33
ENDBRANCH   4   7
ENDBRANCH   1   3
BRANCH   1  43
ATOM     43  C15 non d ame     -32.738   6.948  26.571  0.00  0.00     0.240 C 
ATOM     44  O5  non d ame     -31.829   6.184  26.512  0.00  0.00    -0.271 OA
ATOM     45  N6  non d ame     -32.966   7.915  25.460  0.00  0.00    -0.355 N 
ATOM     46  H46 non d ame     -33.738   8.565  25.497  0.00  0.00     0.162 HD
BRANCH  45  47
ATOM     47  C20 non d ame     -32.054   7.923  24.295  0.00  0.00     0.013 C 
ATOM     48  H30 non d ame     -31.092   7.528  24.620  0.00  0.00     0.072 H 
BRANCH  47  49
ATOM     49  C21 non d ame     -31.889   9.342  23.800  0.00  0.00    -0.038 C 
ATOM     50  H31 non d ame     -30.813   9.511  23.742  0.00  0.00     0.036 H 
ATOM     51  H32 non d ame     -32.500   9.413  22.901  0.00  0.00     0.036 H 
BRANCH  49  52
ATOM     52  C22 non d ame     -32.443  10.391  24.788  0.00  0.00     0.018 C 
ATOM     53  H33 non d ame     -33.076  11.049  24.196  0.00  0.00     0.048 H 
ATOM     54  H34 non d ame     -32.871   9.820  25.614  0.00  0.00     0.048 H 
BRANCH  52  55
ATOM     55  C23 non d ame     -31.349  11.298  25.416  0.00  0.00     0.259 C 
ATOM     56  O7  non d ame     -31.066  11.195  26.566  0.00  0.00    -0.265 OA
BRANCH  55  57
ATOM     57  O8  non d ame     -30.697  12.268  24.605  0.00  0.00    -0.317 OA
BRANCH  57  58
ATOM     58  C29 non d ame     -31.292  13.568  24.661  0.00  0.00     0.052 C 
ATOM     59  H47 non d ame     -32.368  13.401  24.630  0.00  0.00     0.082 H 
ATOM     60  H48 non d ame     -30.841  14.062  25.522  0.00  0.00     0.082 H 
BRANCH  58  61
ATOM     61  C35 non d ame     -30.878  14.341  23.380  0.00  0.00    -0.034 A 
ATOM     62  C30 non d ame     -31.436  15.585  23.106  0.00  0.00    -0.075 A 
ATOM     63  C31 non d ame     -31.064  16.279  21.955  0.00  0.00    -0.082 A 
ATOM     64  H49 non d ame     -32.165  16.016  23.792  0.00  0.00     0.084 H 
ATOM     65  C32 non d ame     -30.132  15.722  21.075  0.00  0.00    -0.083 A 
ATOM     66  H50 non d ame     -31.503  17.255  21.744  0.00  0.00     0.083 H 
ATOM     67  C33 non d ame     -29.580  14.479  21.351  0.00  0.00    -0.082 A 
ATOM     68  H51 non d ame     -29.835  16.259  20.174  0.00  0.00     0.083 H 
ATOM     69  C34 non d ame     -29.947  13.783  22.501  0.00  0.00    -0.075 A 
ATOM     70  H52 non d ame     -28.854  14.046  20.662  0.00  0.00     0.083 H 
ATOM     71  H53 non d ame     -29.508  12.808  22.712  0.00  0.00     0.084 H 
ENDBRANCH  58  61
ENDBRANCH  57  58
ENDBRANCH  55  57
ENDBRANCH  52  55
ENDBRANCH  49  52
ENDBRANCH  47  49
BRANCH  47  72
ATOM     72  C24 non d ame     -32.634   7.057  23.179  0.00  0.00    -0.039 C 
ATOM     73  H35 non d ame     -31.893   6.276  23.004  0.00  0.00     0.036 H 
ATOM     74  H36 non d ame     -33.638   6.791  23.510  0.00  0.00     0.036 H 
BRANCH  72  75
ATOM     75  C25 non d ame     -32.789   7.877  21.812  0.00  0.00    -0.001 C 
ATOM     76  C26 non d ame     -34.380   8.031  21.429  0.00  0.00    -0.035 C 
ATOM     77  C27 non d ame     -34.563   7.626  20.150  0.00  0.00     0.085 C 
ATOM     78  H38 non d ame     -34.974   7.324  22.008  0.00  0.00     0.036 H 
ATOM     79  H39 non d ame     -34.658   9.085  21.404  0.00  0.00     0.036 H 
ATOM     80  N5  non d ame     -33.306   6.903  19.732  0.00  0.00    -0.049 N 
ATOM     81  H40 non d ame     -35.388   6.913  20.184  0.00  0.00     0.075 H 
ATOM     82  H41 non d ame     -34.657   8.541  19.565  0.00  0.00     0.075 H 
ATOM     83  C28 non d ame     -32.190   7.278  20.837  0.00  0.00     0.193 C 
ATOM     84  H42 non d ame     -33.506   5.915  19.800  0.00  0.00     0.280 HD
ATOM     85  H43 non d ame     -33.028   7.301  18.846  0.00  0.00     0.280 HD
ATOM     86  H44 non d ame     -31.408   8.001  20.611  0.00  0.00     0.129 H 
ATOM     87  H37 non d ame     -32.187   8.785  21.804  0.00  0.00     0.046 H 
BRANCH  83  88
ATOM     88  O6  non d ame     -31.506   6.099  21.267  0.00  0.00    -0.369 OA
ATOM     89  H45 non d ame     -31.083   5.681  20.514  0.00  0.00     0.212 HD
ENDBRANCH  83  88
ENDBRANCH  72  75
ENDBRANCH  47  72
ENDBRANCH  45  47
ENDBRANCH   1  43
BRANCH   1  90
ATOM     90  C16 non d ame     -34.933   6.118  27.471  0.00  0.00    -0.035 C 
ATOM     91  H21 non d ame     -35.765   6.690  27.881  0.00  0.00     0.037 H 
ATOM     92  H22 non d ame     -34.878   5.928  26.400  0.00  0.00     0.037 H 
BRANCH  90  93
ATOM     93  C17 non d ame     -34.977   4.720  28.166  0.00  0.00    -0.059 C 
ATOM     94  H23 non d ame     -35.908   4.657  28.727  0.00  0.00     0.038 H 
BRANCH  93  95
ATOM     95  C18 non d ame     -34.962   3.548  27.133  0.00  0.00    -0.073 C 
ATOM     96  H24 non d ame     -35.158   3.940  26.136  0.00  0.00     0.028 H 
ATOM     97  H25 non d ame     -33.984   3.065  27.146  0.00  0.00     0.028 H 
ATOM     98  H26 non d ame     -35.730   2.822  27.396  0.00  0.00     0.028 H 
ENDBRANCH  93  95
BRANCH  93  99
ATOM     99  C19 non d ame     -33.831   4.574  29.171  0.00  0.00    -0.073 C 
ATOM    100  H27 non d ame     -32.968   4.124  28.677  0.00  0.00     0.028 H 
ATOM    101  H28 non d ame     -33.556   5.556  29.555  0.00  0.00     0.028 H 
ATOM    102  H29 non d ame     -34.150   3.938  29.996  0.00  0.00     0.028 H 
ENDBRANCH  93  99
ENDBRANCH  90  93
ENDBRANCH   1  90
TORSDOF 26
ENDMDL
MODEL 19
REMARK VINA RESULT:      -6.5      2.451      7.726
REMARK  26 active torsions:
REMARK  status: ('A' for Active; 'I' for Inactive)
REMARK    1  A    between atoms: C2_2  and  C3_3 
REMARK    2  A    between atoms: C4_6  and  C5_7 
REMARK       I    between atoms: C5_7  and  N2_9 
REMARK    3  A    between atoms: N2_9  and  C6_10 
REMARK    4  A    between atoms: C6_10  and  C7_11 
REMARK    5  A    between atoms: C6_10  and  C8_13 
REMARK       I    between atoms: C7_11  and  N3_14 
REMARK    6  A    between atoms: N3_14  and  C9_15 
REMARK    7  A    between atoms: C9_15  and  C10_16 
REMARK    8  A    between atoms: C9_15  and  C11_18 
REMARK       I    between atoms: C10_16  and  N4_21 
REMARK    9  A    between atoms: C11_18  and  C12_19 
REMARK   10  A    between atoms: C11_18  and  C13_20 
REMARK   11  A    between atoms: N4_21  and  C14_22 
REMARK   12  A    between atoms: C14_22  and  C15_23 
REMARK   13  A    between atoms: C14_22  and  C16_25 
REMARK       I    between atoms: C15_23  and  N6_40 
REMARK   14  A    between atoms: C16_25  and  C17_26 
REMARK   15  A    between atoms: C17_26  and  C18_27 
REMARK   16  A    between atoms: C17_26  and  C19_28 
REMARK   17  A    between atoms: C20_29  and  C21_30 
REMARK   18  A    between atoms: C20_29  and  C24_33 
REMARK   19  A    between atoms: C20_29  and  N6_40 
REMARK   20  A    between atoms: C21_30  and  C22_31 
REMARK   21  A    between atoms: C22_31  and  C23_32 
REMARK   22  A    between atoms: C23_32  and  O8_43 
REMARK   23  A    between atoms: C24_33  and  C25_34 
REMARK   24  A    between atoms: C28_38  and  O6_39 
REMARK   25  A    between atoms: C29_42  and  O8_43 
REMARK   26  A    between atoms: C29_42  and  C35_49 
ROOT
ATOM      1  C14 non d ame     -36.535  15.724  26.476  0.00  0.00     0.089 C 
ATOM      2  H20 non d ame     -37.111  16.138  27.304  0.00  0.00     0.087 H 
ENDROOT
BRANCH   1   3
ATOM      3  N4  non d ame     -35.126  15.930  26.777  0.00  0.00    -0.346 N 
ATOM      4  C10 non d ame     -34.703  17.009  27.743  0.00  0.00     0.241 C 
ATOM      5  O4  non d ame     -35.514  17.701  28.262  0.00  0.00    -0.271 OA
ATOM      6  H19 non d ame     -34.451  15.331  26.323  0.00  0.00     0.163 HD
BRANCH   4   7
ATOM      7  C9  non d ame     -33.241  17.203  28.047  0.00  0.00     0.092 C 
ATOM      8  H11 non d ame     -33.139  17.819  28.941  0.00  0.00     0.088 H 
BRANCH   7   9
ATOM      9  N3  non d ame     -32.626  15.907  28.342  0.00  0.00    -0.346 N 
ATOM     10  C7  non d ame     -31.784  15.755  29.504  0.00  0.00     0.240 C 
ATOM     11  O3  non d ame     -31.591  16.668  30.211  0.00  0.00    -0.271 OA
ATOM     12  H10 non d ame     -32.782  15.111  27.740  0.00  0.00     0.163 HD
BRANCH  10  13
ATOM     13  C6  non d ame     -31.129  14.373  29.811  0.00  0.00     0.086 C 
ATOM     14  H6  non d ame     -30.565  14.372  30.743  0.00  0.00     0.086 H 
BRANCH  13  15
ATOM     15  N2  non d ame     -32.178  13.377  29.958  0.00  0.00    -0.343 N 
ATOM     16  C5  non d ame     -31.881  12.111  30.632  0.00  0.00     0.273 C 
ATOM     17  O2  non d ame     -30.795  11.902  31.049  0.00  0.00    -0.266 OA
ATOM     18  H5  non d ame     -33.102  13.563  29.596  0.00  0.00     0.163 HD
BRANCH  16  19
ATOM     19  C4  non d ame     -32.980  11.050  30.796  0.00  0.00     0.154 A 
ATOM     20  C1  non d ame     -34.058  11.061  31.737  0.00  0.00    -0.017 A 
ATOM     21  C2  non d ame     -34.779   9.873  31.479  0.00  0.00     0.077 A 
ATOM     22  H1  non d ame     -34.283  11.813  32.493  0.00  0.00     0.091 H 
ATOM     23  O1  non d ame     -34.177   9.261  30.500  0.00  0.00    -0.218 OA
ATOM     24  N1  non d ame     -33.125   9.928  30.086  0.00  0.00    -0.123 NA
BRANCH  21  25
ATOM     25  C3  non d ame     -36.028   9.399  32.209  0.00  0.00    -0.029 C 
ATOM     26  H2  non d ame     -36.736   8.988  31.489  0.00  0.00     0.036 H 
ATOM     27  H3  non d ame     -35.756   8.628  32.931  0.00  0.00     0.036 H 
ATOM     28  H4  non d ame     -36.486  10.239  32.729  0.00  0.00     0.036 H 
ENDBRANCH  21  25
ENDBRANCH  16  19
ENDBRANCH  13  15
BRANCH  13  29
ATOM     29  C8  non d ame     -30.207  13.988  28.681  0.00  0.00    -0.049 C 
ATOM     30  H7  non d ame     -29.360  14.673  28.654  0.00  0.00     0.030 H 
ATOM     31  H8  non d ame     -29.847  12.971  28.838  0.00  0.00     0.030 H 
ATOM     32  H9  non d ame     -30.749  14.041  27.737  0.00  0.00     0.030 H 
ENDBRANCH  13  29
ENDBRANCH  10  13
ENDBRANCH   7   9
BRANCH   7  33
ATOM     33  C11 non d ame     -32.536  17.841  26.815  0.00  0.00    -0.033 C 
ATOM     34  H12 non d ame     -31.615  18.307  27.168  0.00  0.00     0.042 H 
BRANCH  33  35
ATOM     35  C12 non d ame     -32.141  16.760  25.761  0.00  0.00    -0.071 C 
ATOM     36  H13 non d ame     -31.214  17.053  25.269  0.00  0.00     0.028 H 
ATOM     37  H14 non d ame     -32.000  15.802  26.260  0.00  0.00     0.028 H 
ATOM     38  H15 non d ame     -32.934  16.670  25.018  0.00  0.00     0.028 H 
ENDBRANCH  33  35
BRANCH  33  39
ATOM     39  C13 non d ame     -33.425  18.956  26.176  0.00  0.00    -0.071 C 
ATOM     40  H16 non d ame     -33.843  18.595  25.236  0.00  0.00     0.028 H 
ATOM     41  H17 non d ame     -34.235  19.212  26.860  0.00  0.00     0.028 H 
ATOM     42  H18 non d ame     -32.819  19.841  25.988  0.00  0.00     0.028 H 
ENDBRANCH  33  39
ENDBRANCH   7  33
ENDBRANCH   4   7
ENDBRANCH   1   3
BRANCH   1  43
ATOM     43  C15 non d ame     -36.784  14.200  26.290  0.00  0.00     0.240 C 
ATOM     44  O5  non d ame     -37.486  13.819  25.409  0.00  0.00    -0.271 OA
ATOM     45  N6  non d ame     -36.140  13.214  27.203  0.00  0.00    -0.355 N 
ATOM     46  H46 non d ame     -35.537  13.526  27.952  0.00  0.00     0.162 HD
BRANCH  45  47
ATOM     47  C20 non d ame     -36.385  11.768  27.012  0.00  0.00     0.013 C 
ATOM     48  H30 non d ame     -36.440  11.576  25.940  0.00  0.00     0.072 H 
BRANCH  47  49
ATOM     49  C21 non d ame     -37.693  11.391  27.672  0.00  0.00    -0.038 C 
ATOM     50  H31 non d ame     -38.153  12.333  27.973  0.00  0.00     0.036 H 
ATOM     51  H32 non d ame     -38.202  10.738  26.964  0.00  0.00     0.036 H 
BRANCH  49  52
ATOM     52  C22 non d ame     -37.497  10.568  28.964  0.00  0.00     0.018 C 
ATOM     53  H33 non d ame     -36.420  10.496  29.107  0.00  0.00     0.048 H 
ATOM     54  H34 non d ame     -38.116  11.055  29.719  0.00  0.00     0.048 H 
BRANCH  52  55
ATOM     55  C23 non d ame     -38.017   9.108  28.861  0.00  0.00     0.259 C 
ATOM     56  O7  non d ame     -39.182   8.884  28.802  0.00  0.00    -0.265 OA
BRANCH  55  57
ATOM     57  O8  non d ame     -37.082   8.035  28.853  0.00  0.00    -0.317 OA
BRANCH  57  58
ATOM     58  C29 non d ame     -37.351   7.023  29.829  0.00  0.00     0.052 C 
ATOM     59  H47 non d ame     -37.550   7.555  30.758  0.00  0.00     0.082 H 
ATOM     60  H48 non d ame     -38.118   6.386  29.389  0.00  0.00     0.082 H 
BRANCH  58  61
ATOM     61  C35 non d ame     -36.060   6.180  30.012  0.00  0.00    -0.034 A 
ATOM     62  C30 non d ame     -35.616   5.856  31.291  0.00  0.00    -0.075 A 
ATOM     63  C31 non d ame     -34.457   5.099  31.456  0.00  0.00    -0.082 A 
ATOM     64  H49 non d ame     -36.175   6.196  32.162  0.00  0.00     0.084 H 
ATOM     65  C32 non d ame     -33.740   4.668  30.337  0.00  0.00    -0.083 A 
ATOM     66  H50 non d ame     -34.112   4.846  32.459  0.00  0.00     0.083 H 
ATOM     67  C33 non d ame     -34.185   4.996  29.064  0.00  0.00    -0.082 A 
ATOM     68  H51 non d ame     -32.833   4.075  30.457  0.00  0.00     0.083 H 
ATOM     69  C34 non d ame     -35.344   5.751  28.894  0.00  0.00    -0.075 A 
ATOM     70  H52 non d ame     -33.622   4.660  28.192  0.00  0.00     0.083 H 
ATOM     71  H53 non d ame     -35.688   6.003  27.890  0.00  0.00     0.084 H 
ENDBRANCH  58  61
ENDBRANCH  57  58
ENDBRANCH  55  57
ENDBRANCH  52  55
ENDBRANCH  49  52
ENDBRANCH  47  49
BRANCH  47  72
ATOM     72  C24 non d ame     -35.248  10.963  27.637  0.00  0.00    -0.039 C 
ATOM     73  H35 non d ame     -34.627  11.695  28.156  0.00  0.00     0.036 H 
ATOM     74  H36 non d ame     -35.732  10.165  28.199  0.00  0.00     0.036 H 
BRANCH  72  75
ATOM     75  C25 non d ame     -34.330  10.268  26.523  0.00  0.00    -0.001 C 
ATOM     76  C26 non d ame     -34.183   8.663  26.842  0.00  0.00    -0.035 C 
ATOM     77  C27 non d ame     -32.869   8.334  26.831  0.00  0.00     0.085 C 
ATOM     78  H38 non d ame     -34.489   8.455  27.867  0.00  0.00     0.036 H 
ATOM     79  H39 non d ame     -34.598   8.079  26.020  0.00  0.00     0.036 H 
ATOM     80  N5  non d ame     -32.091   9.627  26.860  0.00  0.00    -0.049 N 
ATOM     81  H40 non d ame     -32.696   7.794  27.763  0.00  0.00     0.075 H 
ATOM     82  H41 non d ame     -32.700   7.839  25.875  0.00  0.00     0.075 H 
ATOM     83  C28 non d ame     -33.149  10.791  26.497  0.00  0.00     0.193 C 
ATOM     84  H42 non d ame     -31.784   9.757  27.813  0.00  0.00     0.280 HD
ATOM     85  H43 non d ame     -31.410   9.568  26.115  0.00  0.00     0.280 HD
ATOM     86  H44 non d ame     -33.156  11.245  25.507  0.00  0.00     0.129 H 
ATOM     87  H37 non d ame     -34.625  10.549  25.512  0.00  0.00     0.046 H 
BRANCH  83  88
ATOM     88  O6  non d ame     -33.020  11.878  27.416  0.00  0.00    -0.369 OA
ATOM     89  H45 non d ame     -32.466  11.611  28.152  0.00  0.00     0.212 HD
ENDBRANCH  83  88
ENDBRANCH  72  75
ENDBRANCH  47  72
ENDBRANCH  45  47
ENDBRANCH   1  43
BRANCH   1  90
ATOM     90  C16 non d ame     -36.880  16.459  25.191  0.00  0.00    -0.035 C 
ATOM     91  H21 non d ame     -35.940  16.886  24.841  0.00  0.00     0.037 H 
ATOM     92  H22 non d ame     -37.409  15.732  24.576  0.00  0.00     0.037 H 
BRANCH  90  93
ATOM     93  C17 non d ame     -37.858  17.659  25.398  0.00  0.00    -0.059 C 
ATOM     94  H23 non d ame     -38.563  17.659  24.567  0.00  0.00     0.038 H 
BRANCH  93  95
ATOM     95  C18 non d ame     -38.679  17.528  26.720  0.00  0.00    -0.073 C 
ATOM     96  H24 non d ame     -39.645  17.072  26.504  0.00  0.00     0.028 H 
ATOM     97  H25 non d ame     -38.133  16.901  27.426  0.00  0.00     0.028 H 
ATOM     98  H26 non d ame     -38.832  18.515  27.154  0.00  0.00     0.028 H 
ENDBRANCH  93  95
BRANCH  93  99
ATOM     99  C19 non d ame     -37.105  18.991  25.355  0.00  0.00    -0.073 C 
ATOM    100  H27 non d ame     -36.384  19.029  26.173  0.00  0.00     0.028 H 
ATOM    101  H28 non d ame     -36.579  19.082  24.405  0.00  0.00     0.028 H 
ATOM    102  H29 non d ame     -37.814  19.813  25.457  0.00  0.00     0.028 H 
ENDBRANCH  93  99
ENDBRANCH  90  93
ENDBRANCH   1  90
TORSDOF 26
ENDMDL
MODEL 20
REMARK VINA RESULT:      -6.4      2.922      7.515
REMARK  26 active torsions:
REMARK  status: ('A' for Active; 'I' for Inactive)
REMARK    1  A    between atoms: C2_2  and  C3_3 
REMARK    2  A    between atoms: C4_6  and  C5_7 
REMARK       I    between atoms: C5_7  and  N2_9 
REMARK    3  A    between atoms: N2_9  and  C6_10 
REMARK    4  A    between atoms: C6_10  and  C7_11 
REMARK    5  A    between atoms: C6_10  and  C8_13 
REMARK       I    between atoms: C7_11  and  N3_14 
REMARK    6  A    between atoms: N3_14  and  C9_15 
REMARK    7  A    between atoms: C9_15  and  C10_16 
REMARK    8  A    between atoms: C9_15  and  C11_18 
REMARK       I    between atoms: C10_16  and  N4_21 
REMARK    9  A    between atoms: C11_18  and  C12_19 
REMARK   10  A    between atoms: C11_18  and  C13_20 
REMARK   11  A    between atoms: N4_21  and  C14_22 
REMARK   12  A    between atoms: C14_22  and  C15_23 
REMARK   13  A    between atoms: C14_22  and  C16_25 
REMARK       I    between atoms: C15_23  and  N6_40 
REMARK   14  A    between atoms: C16_25  and  C17_26 
REMARK   15  A    between atoms: C17_26  and  C18_27 
REMARK   16  A    between atoms: C17_26  and  C19_28 
REMARK   17  A    between atoms: C20_29  and  C21_30 
REMARK   18  A    between atoms: C20_29  and  C24_33 
REMARK   19  A    between atoms: C20_29  and  N6_40 
REMARK   20  A    between atoms: C21_30  and  C22_31 
REMARK   21  A    between atoms: C22_31  and  C23_32 
REMARK   22  A    between atoms: C23_32  and  O8_43 
REMARK   23  A    between atoms: C24_33  and  C25_34 
REMARK   24  A    between atoms: C28_38  and  O6_39 
REMARK   25  A    between atoms: C29_42  and  O8_43 
REMARK   26  A    between atoms: C29_42  and  C35_49 
ROOT
ATOM      1  C14 non d ame     -32.995   9.149  27.501  0.00  0.00     0.089 C 
ATOM      2  H20 non d ame     -31.989   8.727  27.480  0.00  0.00     0.087 H 
ENDROOT
BRANCH   1   3
ATOM      3  N4  non d ame     -32.871  10.560  27.833  0.00  0.00    -0.346 N 
ATOM      4  C10 non d ame     -31.763  11.390  27.233  0.00  0.00     0.241 C 
ATOM      5  O4  non d ame     -30.981  10.899  26.488  0.00  0.00    -0.271 OA
ATOM      6  H19 non d ame     -33.546  10.959  28.470  0.00  0.00     0.163 HD
BRANCH   4   7
ATOM      7  C9  non d ame     -31.655  12.851  27.584  0.00  0.00     0.092 C 
ATOM      8  H11 non d ame     -30.622  13.175  27.453  0.00  0.00     0.088 H 
BRANCH   7   9
ATOM      9  N3  non d ame     -32.477  13.638  26.661  0.00  0.00    -0.346 N 
ATOM     10  C7  non d ame     -31.848  14.491  25.683  0.00  0.00     0.240 C 
ATOM     11  O3  non d ame     -30.680  14.556  25.626  0.00  0.00    -0.271 OA
ATOM     12  H10 non d ame     -33.485  13.593  26.700  0.00  0.00     0.163 HD
BRANCH  10  13
ATOM     13  C6  non d ame     -32.729  15.329  24.705  0.00  0.00     0.086 C 
ATOM     14  H6  non d ame     -33.624  14.798  24.384  0.00  0.00     0.086 H 
BRANCH  13  15
ATOM     15  N2  non d ame     -33.181  16.529  25.390  0.00  0.00    -0.343 N 
ATOM     16  C5  non d ame     -34.390  16.476  26.216  0.00  0.00     0.273 C 
ATOM     17  O2  non d ame     -34.993  15.465  26.320  0.00  0.00    -0.266 OA
ATOM     18  H5  non d ame     -32.662  17.390  25.292  0.00  0.00     0.163 HD
BRANCH  16  19
ATOM     19  C4  non d ame     -34.879  17.736  26.946  0.00  0.00     0.154 A 
ATOM     20  C1  non d ame     -35.692  18.785  26.412  0.00  0.00    -0.017 A 
ATOM     21  C2  non d ame     -35.855  19.698  27.478  0.00  0.00     0.077 A 
ATOM     22  H1  non d ame     -36.100  18.872  25.405  0.00  0.00     0.091 H 
ATOM     23  O1  non d ame     -35.209  19.218  28.501  0.00  0.00    -0.218 OA
ATOM     24  N1  non d ame     -34.631  18.075  28.214  0.00  0.00    -0.123 NA
BRANCH  21  25
ATOM     25  C3  non d ame     -36.642  21.001  27.437  0.00  0.00    -0.029 C 
ATOM     26  H2  non d ame     -37.366  20.963  26.622  0.00  0.00     0.036 H 
ATOM     27  H3  non d ame     -37.167  21.139  28.382  0.00  0.00     0.036 H 
ATOM     28  H4  non d ame     -35.959  21.834  27.276  0.00  0.00     0.036 H 
ENDBRANCH  21  25
ENDBRANCH  16  19
ENDBRANCH  13  15
BRANCH  13  29
ATOM     29  C8  non d ame     -31.919  15.703  23.489  0.00  0.00    -0.049 C 
ATOM     30  H7  non d ame     -32.259  16.665  23.108  0.00  0.00     0.030 H 
ATOM     31  H8  non d ame     -30.866  15.772  23.763  0.00  0.00     0.030 H 
ATOM     32  H9  non d ame     -32.046  14.941  22.720  0.00  0.00     0.030 H 
ENDBRANCH  13  29
ENDBRANCH  10  13
ENDBRANCH   7   9
BRANCH   7  33
ATOM     33  C11 non d ame     -32.156  13.072  29.040  0.00  0.00    -0.033 C 
ATOM     34  H12 non d ame     -32.991  12.391  29.208  0.00  0.00     0.042 H 
BRANCH  33  35
ATOM     35  C12 non d ame     -31.049  12.723  30.083  0.00  0.00    -0.071 C 
ATOM     36  H13 non d ame     -31.463  12.065  30.847  0.00  0.00     0.028 H 
ATOM     37  H14 non d ame     -30.222  12.221  29.581  0.00  0.00     0.028 H 
ATOM     38  H15 non d ame     -30.688  13.639  30.551  0.00  0.00     0.028 H 
ENDBRANCH  33  35
BRANCH  33  39
ATOM     39  C13 non d ame     -32.678  14.532  29.236  0.00  0.00    -0.071 C 
ATOM     40  H16 non d ame     -32.404  14.886  30.230  0.00  0.00     0.028 H 
ATOM     41  H17 non d ame     -32.232  15.182  28.483  0.00  0.00     0.028 H 
ATOM     42  H18 non d ame     -33.762  14.547  29.131  0.00  0.00     0.028 H 
ENDBRANCH  33  39
ENDBRANCH   7  33
ENDBRANCH   4   7
ENDBRANCH   1   3
BRANCH   1  43
ATOM     43  C15 non d ame     -33.712   9.024  26.127  0.00  0.00     0.240 C 
ATOM     44  O5  non d ame     -34.727   9.613  25.935  0.00  0.00    -0.271 OA
ATOM     45  N6  non d ame     -33.130   8.178  25.046  0.00  0.00    -0.355 N 
ATOM     46  H46 non d ame     -32.266   7.678  25.196  0.00  0.00     0.162 HD
BRANCH  45  47
ATOM     47  C20 non d ame     -33.824   8.071  23.744  0.00  0.00     0.013 C 
ATOM     48  H30 non d ame     -34.768   8.610  23.822  0.00  0.00     0.072 H 
BRANCH  47  49
ATOM     49  C21 non d ame     -34.084   6.614  23.435  0.00  0.00    -0.038 C 
ATOM     50  H31 non d ame     -35.109   6.423  23.757  0.00  0.00     0.036 H 
ATOM     51  H32 non d ame     -33.808   6.482  22.389  0.00  0.00     0.036 H 
BRANCH  49  52
ATOM     52  C22 non d ame     -33.185   5.659  24.248  0.00  0.00     0.018 C 
ATOM     53  H33 non d ame     -32.824   4.916  23.538  0.00  0.00     0.048 H 
ATOM     54  H34 non d ame     -32.475   6.299  24.775  0.00  0.00     0.048 H 
BRANCH  52  55
ATOM     55  C23 non d ame     -33.945   4.867  25.348  0.00  0.00     0.259 C 
ATOM     56  O7  non d ame     -34.145   3.702  25.224  0.00  0.00    -0.265 OA
BRANCH  55  57
ATOM     57  O8  non d ame     -34.415   5.554  26.502  0.00  0.00    -0.317 OA
BRANCH  57  58
ATOM     58  C29 non d ame     -35.617   5.008  27.054  0.00  0.00     0.052 C 
ATOM     59  H47 non d ame     -36.430   5.590  26.622  0.00  0.00     0.082 H 
ATOM     60  H48 non d ame     -35.561   3.934  26.879  0.00  0.00     0.082 H 
BRANCH  58  61
ATOM     61  C35 non d ame     -35.596   5.256  28.586  0.00  0.00    -0.034 A 
ATOM     62  C30 non d ame     -36.736   5.726  29.231  0.00  0.00    -0.075 A 
ATOM     63  C31 non d ame     -36.717   5.950  30.607  0.00  0.00    -0.082 A 
ATOM     64  H49 non d ame     -37.643   5.921  28.659  0.00  0.00     0.084 H 
ATOM     65  C32 non d ame     -35.552   5.703  31.339  0.00  0.00    -0.083 A 
ATOM     66  H50 non d ame     -37.613   6.317  31.110  0.00  0.00     0.083 H 
ATOM     67  C33 non d ame     -34.417   5.237  30.690  0.00  0.00    -0.082 A 
ATOM     68  H51 non d ame     -35.530   5.875  32.415  0.00  0.00     0.083 H 
ATOM     69  C34 non d ame     -34.432   5.011  29.316  0.00  0.00    -0.075 A 
ATOM     70  H52 non d ame     -33.509   5.048  31.263  0.00  0.00     0.083 H 
ATOM     71  H53 non d ame     -33.536   4.643  28.814  0.00  0.00     0.084 H 
ENDBRANCH  58  61
ENDBRANCH  57  58
ENDBRANCH  55  57
ENDBRANCH  52  55
ENDBRANCH  49  52
ENDBRANCH  47  49
BRANCH  47  72
ATOM     72  C24 non d ame     -32.956   8.680  22.645  0.00  0.00    -0.039 C 
ATOM     73  H35 non d ame     -33.082   8.025  21.781  0.00  0.00     0.036 H 
ATOM     74  H36 non d ame     -33.257   9.725  22.583  0.00  0.00     0.036 H 
BRANCH  72  75
ATOM     75  C25 non d ame     -31.402   8.656  23.034  0.00  0.00    -0.001 C 
ATOM     76  C26 non d ame     -30.824  10.193  23.117  0.00  0.00    -0.035 C 
ATOM     77  C27 non d ame     -29.702  10.278  22.362  0.00  0.00     0.085 C 
ATOM     78  H38 non d ame     -31.514  10.880  22.627  0.00  0.00     0.036 H 
ATOM     79  H39 non d ame     -30.468  10.404  24.126  0.00  0.00     0.036 H 
ATOM     80  N5  non d ame     -29.647   9.032  21.512  0.00  0.00    -0.049 N 
ATOM     81  H40 non d ame     -29.852  11.143  21.715  0.00  0.00     0.075 H 
ATOM     82  H41 non d ame     -28.873  10.263  23.069  0.00  0.00     0.075 H 
ATOM     83  C28 non d ame     -30.710   8.005  22.160  0.00  0.00     0.193 C 
ATOM     84  H42 non d ame     -29.974   9.297  20.593  0.00  0.00     0.280 HD
ATOM     85  H43 non d ame     -28.719   8.649  21.626  0.00  0.00     0.280 HD
ATOM     86  H44 non d ame     -30.371   7.163  22.762  0.00  0.00     0.129 H 
ATOM     87  H37 non d ame     -31.199   8.003  23.883  0.00  0.00     0.046 H 
BRANCH  83  88
ATOM     88  O6  non d ame     -31.532   7.436  21.138  0.00  0.00    -0.369 OA
ATOM     89  H45 non d ame     -30.998   6.870  20.576  0.00  0.00     0.212 HD
ENDBRANCH  83  88
ENDBRANCH  72  75
ENDBRANCH  47  72
ENDBRANCH  45  47
ENDBRANCH   1  43
BRANCH   1  90
ATOM     90  C16 non d ame     -33.820   8.457  28.574  0.00  0.00    -0.035 C 
ATOM     91  H21 non d ame     -34.561   7.869  28.034  0.00  0.00     0.037 H 
ATOM     92  H22 non d ame     -33.097   7.961  29.220  0.00  0.00     0.037 H 
BRANCH  90  93
ATOM     93  C17 non d ame     -34.620   9.444  29.483  0.00  0.00    -0.059 C 
ATOM     94  H23 non d ame     -34.255  10.451  29.280  0.00  0.00     0.038 H 
BRANCH  93  95
ATOM     95  C18 non d ame     -36.151   9.420  29.174  0.00  0.00    -0.073 C 
ATOM     96  H24 non d ame     -36.614   8.582  29.695  0.00  0.00     0.028 H 
ATOM     97  H25 non d ame     -36.605  10.352  29.513  0.00  0.00     0.028 H 
ATOM     98  H26 non d ame     -36.304   9.311  28.101  0.00  0.00     0.028 H 
ENDBRANCH  93  95
BRANCH  93  99
ATOM     99  C19 non d ame     -34.359   9.157  30.964  0.00  0.00    -0.073 C 
ATOM    100  H27 non d ame     -35.298   9.212  31.516  0.00  0.00     0.028 H 
ATOM    101  H28 non d ame     -33.934   8.159  31.071  0.00  0.00     0.028 H 
ATOM    102  H29 non d ame     -33.660   9.893  31.359  0.00  0.00     0.028 H 
ENDBRANCH  93  99
ENDBRANCH  90  93
ENDBRANCH   1  90
TORSDOF 26
ENDMDL
