MODEL 1
REMARK VINA RESULT:      -8.0      0.000      0.000
REMARK  26 active torsions:
REMARK  status: ('A' for Active; 'I' for Inactive)
REMARK    1  A    between atoms: C2_2  and  C3_3 
REMARK    2  A    between atoms: C4_6  and  C5_7 
REMARK       I    between atoms: C5_7  and  N2_9 
REMARK    3  A    between atoms: N2_9  and  C6_10 
REMARK    4  A    between atoms: C6_10  and  C7_11 
REMARK    5  A    between atoms: C6_10  and  C8_13 
REMARK       I    between atoms: C7_11  and  N3_14 
REMARK    6  A    between atoms: N3_14  and  C9_15 
REMARK    7  A    between atoms: C9_15  and  C10_16 
REMARK    8  A    between atoms: C9_15  and  C11_18 
REMARK       I    between atoms: C10_16  and  N4_21 
REMARK    9  A    between atoms: C11_18  and  C12_19 
REMARK   10  A    between atoms: C11_18  and  C13_20 
REMARK   11  A    between atoms: N4_21  and  C14_22 
REMARK   12  A    between atoms: C14_22  and  C15_23 
REMARK   13  A    between atoms: C14_22  and  C16_25 
REMARK       I    between atoms: C15_23  and  N6_40 
REMARK   14  A    between atoms: C16_25  and  C17_26 
REMARK   15  A    between atoms: C17_26  and  C18_27 
REMARK   16  A    between atoms: C17_26  and  C19_28 
REMARK   17  A    between atoms: C20_29  and  C21_30 
REMARK   18  A    between atoms: C20_29  and  C24_33 
REMARK   19  A    between atoms: C20_29  and  N6_40 
REMARK   20  A    between atoms: C21_30  and  C22_31 
REMARK   21  A    between atoms: C22_31  and  C23_32 
REMARK   22  A    between atoms: C23_32  and  O8_43 
REMARK   23  A    between atoms: C24_33  and  C25_34 
REMARK   24  A    between atoms: C28_38  and  O6_39 
REMARK   25  A    between atoms: C29_42  and  O8_43 
REMARK   26  A    between atoms: C29_42  and  C35_49 
ROOT
ATOM      1  C14 non d ame     -31.153  13.446  24.829  0.00  0.00     0.089 C 
ATOM      2  H20 non d ame     -30.159  13.326  25.259  0.00  0.00     0.087 H 
ENDROOT
BRANCH   1   3
ATOM      3  N4  non d ame     -31.621  12.125  24.435  0.00  0.00    -0.346 N 
ATOM      4  C10 non d ame     -31.538  10.968  25.400  0.00  0.00     0.241 C 
ATOM      5  O4  non d ame     -31.087  11.124  26.486  0.00  0.00    -0.271 OA
ATOM      6  H19 non d ame     -32.000  12.013  23.505  0.00  0.00     0.163 HD
BRANCH   4   7
ATOM      7  C9  non d ame     -32.033   9.610  24.977  0.00  0.00     0.092 C 
ATOM      8  H11 non d ame     -31.274   8.863  25.212  0.00  0.00     0.088 H 
BRANCH   7   9
ATOM      9  N3  non d ame     -33.233   9.266  25.743  0.00  0.00    -0.346 N 
ATOM     10  C7  non d ame     -33.188   8.199  26.712  0.00  0.00     0.240 C 
ATOM     11  O3  non d ame     -32.195   7.606  26.887  0.00  0.00    -0.271 OA
ATOM     12  H10 non d ame     -34.098   9.768  25.603  0.00  0.00     0.163 HD
BRANCH  10  13
ATOM     13  C6  non d ame     -34.471   7.835  27.523  0.00  0.00     0.086 C 
ATOM     14  H6  non d ame     -35.130   7.153  26.986  0.00  0.00     0.086 H 
BRANCH  13  15
ATOM     15  N2  non d ame     -34.077   7.156  28.747  0.00  0.00    -0.343 N 
ATOM     16  C5  non d ame     -34.471   5.761  28.956  0.00  0.00     0.273 C 
ATOM     17  O2  non d ame     -35.106   5.195  28.135  0.00  0.00    -0.266 OA
ATOM     18  H5  non d ame     -33.538   7.649  29.444  0.00  0.00     0.163 HD
BRANCH  16  19
ATOM     19  C4  non d ame     -34.061   5.030  30.244  0.00  0.00     0.154 A 
ATOM     20  C1  non d ame     -32.972   4.117  30.410  0.00  0.00    -0.017 A 
ATOM     21  C2  non d ame     -33.026   3.731  31.769  0.00  0.00     0.077 A 
ATOM     22  H1  non d ame     -32.254   3.783  29.661  0.00  0.00     0.091 H 
ATOM     23  O1  non d ame     -34.029   4.358  32.310  0.00  0.00    -0.218 OA
ATOM     24  N1  non d ame     -34.649   5.121  31.439  0.00  0.00    -0.123 NA
BRANCH  21  25
ATOM     25  C3  non d ame     -32.082   2.762  32.469  0.00  0.00    -0.029 C 
ATOM     26  H2  non d ame     -32.511   2.463  33.425  0.00  0.00     0.036 H 
ATOM     27  H3  non d ame     -31.938   1.880  31.845  0.00  0.00     0.036 H 
ATOM     28  H4  non d ame     -31.122   3.248  32.638  0.00  0.00     0.036 H 
ENDBRANCH  21  25
ENDBRANCH  16  19
ENDBRANCH  13  15
BRANCH  13  29
ATOM     29  C8  non d ame     -35.234   9.093  27.854  0.00  0.00    -0.049 C 
ATOM     30  H7  non d ame     -34.617   9.739  28.478  0.00  0.00     0.030 H 
ATOM     31  H8  non d ame     -35.489   9.615  26.931  0.00  0.00     0.030 H 
ATOM     32  H9  non d ame     -36.147   8.834  28.389  0.00  0.00     0.030 H 
ENDBRANCH  13  29
ENDBRANCH  10  13
ENDBRANCH   7   9
BRANCH   7  33
ATOM     33  C11 non d ame     -32.378   9.634  23.459  0.00  0.00    -0.033 C 
ATOM     34  H12 non d ame     -32.516  10.676  23.170  0.00  0.00     0.042 H 
BRANCH  33  35
ATOM     35  C12 non d ame     -31.208   9.060  22.600  0.00  0.00    -0.071 C 
ATOM     36  H13 non d ame     -30.367   9.752  22.622  0.00  0.00     0.028 H 
ATOM     37  H14 non d ame     -30.898   8.098  23.007  0.00  0.00     0.028 H 
ATOM     38  H15 non d ame     -31.543   8.929  21.571  0.00  0.00     0.028 H 
ENDBRANCH  33  35
BRANCH  33  39
ATOM     39  C13 non d ame     -33.714   8.874  23.178  0.00  0.00    -0.071 C 
ATOM     40  H16 non d ame     -33.711   8.502  22.153  0.00  0.00     0.028 H 
ATOM     41  H17 non d ame     -33.808   8.036  23.869  0.00  0.00     0.028 H 
ATOM     42  H18 non d ame     -34.554   9.553  23.316  0.00  0.00     0.028 H 
ENDBRANCH  33  39
ENDBRANCH   7  33
ENDBRANCH   4   7
ENDBRANCH   1   3
BRANCH   1  43
ATOM     43  C15 non d ame     -32.165  14.048  25.845  0.00  0.00     0.240 C 
ATOM     44  O5  non d ame     -33.290  14.242  25.514  0.00  0.00    -0.271 OA
ATOM     45  N6  non d ame     -31.734  14.373  27.234  0.00  0.00    -0.355 N 
ATOM     46  H46 non d ame     -30.782  14.208  27.528  0.00  0.00     0.162 HD
BRANCH  45  47
ATOM     47  C20 non d ame     -32.709  14.943  28.190  0.00  0.00     0.013 C 
ATOM     48  H30 non d ame     -33.703  14.847  27.753  0.00  0.00     0.072 H 
BRANCH  47  49
ATOM     49  C21 non d ame     -32.386  16.402  28.423  0.00  0.00    -0.038 C 
ATOM     50  H31 non d ame     -32.547  16.573  29.489  0.00  0.00     0.036 H 
ATOM     51  H32 non d ame     -31.398  16.557  27.990  0.00  0.00     0.036 H 
BRANCH  49  52
ATOM     52  C22 non d ame     -33.345  17.355  27.679  0.00  0.00     0.018 C 
ATOM     53  H33 non d ame     -34.180  16.737  27.352  0.00  0.00     0.048 H 
ATOM     54  H34 non d ame     -33.518  18.190  28.360  0.00  0.00     0.048 H 
BRANCH  52  55
ATOM     55  C23 non d ame     -32.738  17.974  26.389  0.00  0.00     0.259 C 
ATOM     56  O7  non d ame     -31.937  17.372  25.750  0.00  0.00    -0.265 OA
BRANCH  55  57
ATOM     57  O8  non d ame     -33.139  19.278  25.987  0.00  0.00    -0.317 OA
BRANCH  57  58
ATOM     58  C29 non d ame     -33.908  19.979  26.969  0.00  0.00     0.052 C 
ATOM     59  H47 non d ame     -33.959  19.316  27.832  0.00  0.00     0.082 H 
ATOM     60  H48 non d ame     -33.443  20.961  27.062  0.00  0.00     0.082 H 
BRANCH  58  61
ATOM     61  C35 non d ame     -35.343  20.167  26.409  0.00  0.00    -0.034 A 
ATOM     62  C30 non d ame     -35.739  19.483  25.264  0.00  0.00    -0.075 A 
ATOM     63  C31 non d ame     -37.029  19.652  24.761  0.00  0.00    -0.082 A 
ATOM     64  H49 non d ame     -35.040  18.816  24.761  0.00  0.00     0.084 H 
ATOM     65  C32 non d ame     -37.923  20.510  25.406  0.00  0.00    -0.083 A 
ATOM     66  H50 non d ame     -37.336  19.113  23.864  0.00  0.00     0.083 H 
ATOM     67  C33 non d ame     -37.522  21.193  26.547  0.00  0.00    -0.082 A 
ATOM     68  H51 non d ame     -38.933  20.647  25.020  0.00  0.00     0.083 H 
ATOM     69  C34 non d ame     -36.235  21.026  27.054  0.00  0.00    -0.075 A 
ATOM     70  H52 non d ame     -38.221  21.864  27.047  0.00  0.00     0.083 H 
ATOM     71  H53 non d ame     -35.929  21.565  27.951  0.00  0.00     0.084 H 
ENDBRANCH  58  61
ENDBRANCH  57  58
ENDBRANCH  55  57
ENDBRANCH  52  55
ENDBRANCH  49  52
ENDBRANCH  47  49
BRANCH  47  72
ATOM     72  C24 non d ame     -32.637  14.187  29.515  0.00  0.00    -0.039 C 
ATOM     73  H35 non d ame     -31.991  14.788  30.157  0.00  0.00     0.036 H 
ATOM     74  H36 non d ame     -33.672  14.005  29.801  0.00  0.00     0.036 H 
BRANCH  72  75
ATOM     75  C25 non d ame     -31.935  12.757  29.343  0.00  0.00    -0.001 C 
ATOM     76  C26 non d ame     -33.066  11.566  29.425  0.00  0.00    -0.035 C 
ATOM     77  C27 non d ame     -32.663  10.644  30.332  0.00  0.00     0.085 C 
ATOM     78  H38 non d ame     -33.990  11.956  29.851  0.00  0.00     0.036 H 
ATOM     79  H39 non d ame     -33.090  11.008  28.489  0.00  0.00     0.036 H 
ATOM     80  N5  non d ame     -31.527  11.259  31.113  0.00  0.00    -0.049 N 
ATOM     81  H40 non d ame     -33.515  10.499  30.998  0.00  0.00     0.075 H 
ATOM     82  H41 non d ame     -32.280   9.808  29.748  0.00  0.00     0.075 H 
ATOM     83  C28 non d ame     -31.058  12.553  30.269  0.00  0.00     0.193 C 
ATOM     84  H42 non d ame     -31.918  11.572  31.990  0.00  0.00     0.280 HD
ATOM     85  H43 non d ame     -30.777  10.582  31.108  0.00  0.00     0.280 HD
ATOM     86  H44 non d ame     -30.146  12.525  29.674  0.00  0.00     0.129 H 
ATOM     87  H37 non d ame     -31.249  12.732  28.497  0.00  0.00     0.046 H 
BRANCH  83  88
ATOM     88  O6  non d ame     -30.915  13.681  31.135  0.00  0.00    -0.369 OA
ATOM     89  H45 non d ame     -31.743  13.839  31.593  0.00  0.00     0.212 HD
ENDBRANCH  83  88
ENDBRANCH  72  75
ENDBRANCH  47  72
ENDBRANCH  45  47
ENDBRANCH   1  43
BRANCH   1  90
ATOM     90  C16 non d ame     -31.078  14.333  23.596  0.00  0.00    -0.035 C 
ATOM     91  H21 non d ame     -31.783  13.902  22.886  0.00  0.00     0.037 H 
ATOM     92  H22 non d ame     -31.226  15.348  23.962  0.00  0.00     0.037 H 
BRANCH  90  93
ATOM     93  C17 non d ame     -29.682  14.315  22.895  0.00  0.00    -0.059 C 
ATOM     94  H23 non d ame     -28.920  14.316  23.674  0.00  0.00     0.038 H 
BRANCH  93  95
ATOM     95  C18 non d ame     -29.475  13.032  22.028  0.00  0.00    -0.073 C 
ATOM     96  H24 non d ame     -30.443  12.662  21.689  0.00  0.00     0.028 H 
ATOM     97  H25 non d ame     -28.857  13.274  21.163  0.00  0.00     0.028 H 
ATOM     98  H26 non d ame     -28.982  12.265  22.624  0.00  0.00     0.028 H 
ENDBRANCH  93  95
BRANCH  93  99
ATOM     99  C19 non d ame     -29.476  15.578  22.055  0.00  0.00    -0.073 C 
ATOM    100  H27 non d ame     -28.415  15.830  22.031  0.00  0.00     0.028 H 
ATOM    101  H28 non d ame     -29.830  15.402  21.039  0.00  0.00     0.028 H 
ATOM    102  H29 non d ame     -30.036  16.403  22.496  0.00  0.00     0.028 H 
ENDBRANCH  93  99
ENDBRANCH  90  93
ENDBRANCH   1  90
TORSDOF 26
ENDMDL
MODEL 2
REMARK VINA RESULT:      -7.9      3.397      8.146
REMARK  26 active torsions:
REMARK  status: ('A' for Active; 'I' for Inactive)
REMARK    1  A    between atoms: C2_2  and  C3_3 
REMARK    2  A    between atoms: C4_6  and  C5_7 
REMARK       I    between atoms: C5_7  and  N2_9 
REMARK    3  A    between atoms: N2_9  and  C6_10 
REMARK    4  A    between atoms: C6_10  and  C7_11 
REMARK    5  A    between atoms: C6_10  and  C8_13 
REMARK       I    between atoms: C7_11  and  N3_14 
REMARK    6  A    between atoms: N3_14  and  C9_15 
REMARK    7  A    between atoms: C9_15  and  C10_16 
REMARK    8  A    between atoms: C9_15  and  C11_18 
REMARK       I    between atoms: C10_16  and  N4_21 
REMARK    9  A    between atoms: C11_18  and  C12_19 
REMARK   10  A    between atoms: C11_18  and  C13_20 
REMARK   11  A    between atoms: N4_21  and  C14_22 
REMARK   12  A    between atoms: C14_22  and  C15_23 
REMARK   13  A    between atoms: C14_22  and  C16_25 
REMARK       I    between atoms: C15_23  and  N6_40 
REMARK   14  A    between atoms: C16_25  and  C17_26 
REMARK   15  A    between atoms: C17_26  and  C18_27 
REMARK   16  A    between atoms: C17_26  and  C19_28 
REMARK   17  A    between atoms: C20_29  and  C21_30 
REMARK   18  A    between atoms: C20_29  and  C24_33 
REMARK   19  A    between atoms: C20_29  and  N6_40 
REMARK   20  A    between atoms: C21_30  and  C22_31 
REMARK   21  A    between atoms: C22_31  and  C23_32 
REMARK   22  A    between atoms: C23_32  and  O8_43 
REMARK   23  A    between atoms: C24_33  and  C25_34 
REMARK   24  A    between atoms: C28_38  and  O6_39 
REMARK   25  A    between atoms: C29_42  and  O8_43 
REMARK   26  A    between atoms: C29_42  and  C35_49 
ROOT
ATOM      1  C14 non d ame     -31.124  14.125  24.400  0.00  0.00     0.089 C 
ATOM      2  H20 non d ame     -30.140  13.717  24.635  0.00  0.00     0.087 H 
ENDROOT
BRANCH   1   3
ATOM      3  N4  non d ame     -32.098  13.064  24.605  0.00  0.00    -0.346 N 
ATOM      4  C10 non d ame     -31.891  12.039  25.692  0.00  0.00     0.241 C 
ATOM      5  O4  non d ame     -30.931  12.086  26.386  0.00  0.00    -0.271 OA
ATOM      6  H19 non d ame     -32.908  13.040  24.001  0.00  0.00     0.163 HD
BRANCH   4   7
ATOM      7  C9  non d ame     -32.914  10.951  25.893  0.00  0.00     0.092 C 
ATOM      8  H11 non d ame     -33.067  10.796  26.961  0.00  0.00     0.088 H 
BRANCH   7   9
ATOM      9  N3  non d ame     -34.197  11.375  25.327  0.00  0.00    -0.346 N 
ATOM     10  C7  non d ame     -35.190  11.990  26.173  0.00  0.00     0.240 C 
ATOM     11  O3  non d ame     -34.972  12.150  27.313  0.00  0.00    -0.271 OA
ATOM     12  H10 non d ame     -34.400  11.243  24.347  0.00  0.00     0.163 HD
BRANCH  10  13
ATOM     13  C6  non d ame     -36.556  12.437  25.566  0.00  0.00     0.086 C 
ATOM     14  H6  non d ame     -37.401  12.208  26.216  0.00  0.00     0.086 H 
BRANCH  13  15
ATOM     15  N2  non d ame     -36.544  13.880  25.392  0.00  0.00    -0.343 N 
ATOM     16  C5  non d ame     -37.542  14.698  26.085  0.00  0.00     0.273 C 
ATOM     17  O2  non d ame     -38.351  14.186  26.778  0.00  0.00    -0.266 OA
ATOM     18  H5  non d ame     -35.852  14.309  24.795  0.00  0.00     0.163 HD
BRANCH  16  19
ATOM     19  C4  non d ame     -37.541  16.225  25.912  0.00  0.00     0.154 A 
ATOM     20  C1  non d ame     -37.138  16.963  24.754  0.00  0.00    -0.017 A 
ATOM     21  C2  non d ame     -37.325  18.319  25.104  0.00  0.00     0.077 A 
ATOM     22  H1  non d ame     -36.765  16.575  23.806  0.00  0.00     0.091 H 
ATOM     23  O1  non d ame     -37.786  18.345  26.321  0.00  0.00    -0.218 OA
ATOM     24  N1  non d ame     -37.919  17.135  26.813  0.00  0.00    -0.123 NA
BRANCH  21  25
ATOM     25  C3  non d ame     -37.043  19.526  24.219  0.00  0.00    -0.029 C 
ATOM     26  H2  non d ame     -37.254  20.441  24.773  0.00  0.00     0.036 H 
ATOM     27  H3  non d ame     -35.996  19.518  23.917  0.00  0.00     0.036 H 
ATOM     28  H4  non d ame     -37.676  19.484  23.334  0.00  0.00     0.036 H 
ENDBRANCH  21  25
ENDBRANCH  16  19
ENDBRANCH  13  15
BRANCH  13  29
ATOM     29  C8  non d ame     -36.764  11.758  24.236  0.00  0.00    -0.049 C 
ATOM     30  H7  non d ame     -35.840  11.796  23.660  0.00  0.00     0.030 H 
ATOM     31  H8  non d ame     -37.047  10.718  24.400  0.00  0.00     0.030 H 
ATOM     32  H9  non d ame     -37.556  12.268  23.688  0.00  0.00     0.030 H 
ENDBRANCH  13  29
ENDBRANCH  10  13
ENDBRANCH   7   9
BRANCH   7  33
ATOM     33  C11 non d ame     -32.437   9.654  25.177  0.00  0.00    -0.033 C 
ATOM     34  H12 non d ame     -31.359   9.735  25.034  0.00  0.00     0.042 H 
BRANCH  33  35
ATOM     35  C12 non d ame     -32.701   8.390  26.053  0.00  0.00    -0.071 C 
ATOM     36  H13 non d ame     -33.620   8.528  26.622  0.00  0.00     0.028 H 
ATOM     37  H14 non d ame     -32.799   7.516  25.410  0.00  0.00     0.028 H 
ATOM     38  H15 non d ame     -31.867   8.243  26.740  0.00  0.00     0.028 H 
ENDBRANCH  33  35
BRANCH  33  39
ATOM     39  C13 non d ame     -33.101   9.515  23.769  0.00  0.00    -0.071 C 
ATOM     40  H16 non d ame     -33.892   8.766  23.812  0.00  0.00     0.028 H 
ATOM     41  H17 non d ame     -33.525  10.475  23.471  0.00  0.00     0.028 H 
ATOM     42  H18 non d ame     -32.350   9.210  23.041  0.00  0.00     0.028 H 
ENDBRANCH  33  39
ENDBRANCH   7  33
ENDBRANCH   4   7
ENDBRANCH   1   3
BRANCH   1  43
ATOM     43  C15 non d ame     -31.497  15.325  25.317  0.00  0.00     0.240 C 
ATOM     44  O5  non d ame     -31.098  16.414  25.057  0.00  0.00    -0.271 OA
ATOM     45  N6  non d ame     -32.361  15.118  26.514  0.00  0.00    -0.355 N 
ATOM     46  H46 non d ame     -32.711  14.198  26.741  0.00  0.00     0.162 HD
BRANCH  45  47
ATOM     47  C20 non d ame     -32.710  16.269  27.375  0.00  0.00     0.013 C 
ATOM     48  H30 non d ame     -31.944  17.033  27.239  0.00  0.00     0.072 H 
BRANCH  47  49
ATOM     49  C21 non d ame     -32.741  15.821  28.819  0.00  0.00    -0.038 C 
ATOM     50  H31 non d ame     -31.827  16.212  29.269  0.00  0.00     0.036 H 
ATOM     51  H32 non d ame     -33.713  16.131  29.202  0.00  0.00     0.036 H 
BRANCH  49  52
ATOM     52  C22 non d ame     -32.681  14.286  28.972  0.00  0.00     0.018 C 
ATOM     53  H33 non d ame     -33.423  14.035  29.728  0.00  0.00     0.048 H 
ATOM     54  H34 non d ame     -32.776  13.885  27.962  0.00  0.00     0.048 H 
BRANCH  52  55
ATOM     55  C23 non d ame     -31.322  13.763  29.514  0.00  0.00     0.259 C 
ATOM     56  O7  non d ame     -30.323  13.917  28.888  0.00  0.00    -0.265 OA
BRANCH  55  57
ATOM     57  O8  non d ame     -31.285  13.083  30.763  0.00  0.00    -0.317 OA
BRANCH  57  58
ATOM     58  C29 non d ame     -31.111  11.668  30.649  0.00  0.00     0.052 C 
ATOM     59  H47 non d ame     -30.572  11.511  29.715  0.00  0.00     0.082 H 
ATOM     60  H48 non d ame     -30.670  11.347  31.593  0.00  0.00     0.082 H 
BRANCH  58  61
ATOM     61  C35 non d ame     -32.516  11.021  30.519  0.00  0.00    -0.034 A 
ATOM     62  C30 non d ame     -32.804  10.191  29.441  0.00  0.00    -0.075 A 
ATOM     63  C31 non d ame     -34.066   9.610  29.324  0.00  0.00    -0.082 A 
ATOM     64  H49 non d ame     -32.042   9.996  28.687  0.00  0.00     0.084 H 
ATOM     65  C32 non d ame     -35.043   9.864  30.290  0.00  0.00    -0.083 A 
ATOM     66  H50 non d ame     -34.288   8.959  28.478  0.00  0.00     0.083 H 
ATOM     67  C33 non d ame     -34.752  10.696  31.363  0.00  0.00    -0.082 A 
ATOM     68  H51 non d ame     -36.032   9.413  30.207  0.00  0.00     0.083 H 
ATOM     69  C34 non d ame     -33.492  11.277  31.485  0.00  0.00    -0.075 A 
ATOM     70  H52 non d ame     -35.517  10.894  32.115  0.00  0.00     0.083 H 
ATOM     71  H53 non d ame     -33.271  11.927  32.331  0.00  0.00     0.084 H 
ENDBRANCH  58  61
ENDBRANCH  57  58
ENDBRANCH  55  57
ENDBRANCH  52  55
ENDBRANCH  49  52
ENDBRANCH  47  49
BRANCH  47  72
ATOM     72  C24 non d ame     -34.080  16.815  26.979  0.00  0.00    -0.039 C 
ATOM     73  H35 non d ame     -34.316  16.341  26.026  0.00  0.00     0.036 H 
ATOM     74  H36 non d ame     -34.720  16.645  27.845  0.00  0.00     0.036 H 
BRANCH  72  75
ATOM     75  C25 non d ame     -34.038  18.396  26.726  0.00  0.00    -0.001 C 
ATOM     76  C26 non d ame     -32.496  18.946  26.882  0.00  0.00    -0.035 C 
ATOM     77  C27 non d ame     -32.493  19.998  27.736  0.00  0.00     0.085 C 
ATOM     78  H38 non d ame     -31.883  18.202  27.391  0.00  0.00     0.036 H 
ATOM     79  H39 non d ame     -32.158  19.381  25.942  0.00  0.00     0.036 H 
ATOM     80  N5  non d ame     -33.834  20.008  28.429  0.00  0.00    -0.049 N 
ATOM     81  H40 non d ame     -31.716  19.775  28.469  0.00  0.00     0.075 H 
ATOM     82  H41 non d ame     -32.412  20.884  27.107  0.00  0.00     0.075 H 
ATOM     83  C28 non d ame     -34.785  19.025  27.571  0.00  0.00     0.193 C 
ATOM     84  H42 non d ame     -33.689  19.599  29.341  0.00  0.00     0.280 HD
ATOM     85  H43 non d ame     -34.189  20.950  28.350  0.00  0.00     0.280 HD
ATOM     86  H44 non d ame     -35.541  19.432  26.901  0.00  0.00     0.129 H 
ATOM     87  H37 non d ame     -34.579  18.684  25.825  0.00  0.00     0.046 H 
BRANCH  83  88
ATOM     88  O6  non d ame     -35.485  18.133  28.440  0.00  0.00    -0.369 OA
ATOM     89  H45 non d ame     -34.857  17.554  28.878  0.00  0.00     0.212 HD
ENDBRANCH  83  88
ENDBRANCH  72  75
ENDBRANCH  47  72
ENDBRANCH  45  47
ENDBRANCH   1  43
BRANCH   1  90
ATOM     90  C16 non d ame     -31.165  14.562  22.944  0.00  0.00    -0.035 C 
ATOM     91  H21 non d ame     -31.924  13.936  22.476  0.00  0.00     0.037 H 
ATOM     92  H22 non d ame     -31.292  15.644  22.971  0.00  0.00     0.037 H 
BRANCH  90  93
ATOM     93  C17 non d ame     -29.835  14.293  22.171  0.00  0.00    -0.059 C 
ATOM     94  H23 non d ame     -29.973  14.635  21.146  0.00  0.00     0.038 H 
BRANCH  93  95
ATOM     95  C18 non d ame     -28.630  15.080  22.779  0.00  0.00    -0.073 C 
ATOM     96  H24 non d ame     -28.825  15.287  23.831  0.00  0.00     0.028 H 
ATOM     97  H25 non d ame     -27.723  14.482  22.690  0.00  0.00     0.028 H 
ATOM     98  H26 non d ame     -28.500  16.019  22.242  0.00  0.00     0.028 H 
ENDBRANCH  93  95
BRANCH  93  99
ATOM     99  C19 non d ame     -29.531  12.794  22.112  0.00  0.00    -0.073 C 
ATOM    100  H27 non d ame     -30.466  12.232  22.122  0.00  0.00     0.028 H 
ATOM    101  H28 non d ame     -28.984  12.569  21.196  0.00  0.00     0.028 H 
ATOM    102  H29 non d ame     -28.927  12.511  22.974  0.00  0.00     0.028 H 
ENDBRANCH  93  99
ENDBRANCH  90  93
ENDBRANCH   1  90
TORSDOF 26
ENDMDL
MODEL 3
REMARK VINA RESULT:      -7.9      3.187      7.590
REMARK  26 active torsions:
REMARK  status: ('A' for Active; 'I' for Inactive)
REMARK    1  A    between atoms: C2_2  and  C3_3 
REMARK    2  A    between atoms: C4_6  and  C5_7 
REMARK       I    between atoms: C5_7  and  N2_9 
REMARK    3  A    between atoms: N2_9  and  C6_10 
REMARK    4  A    between atoms: C6_10  and  C7_11 
REMARK    5  A    between atoms: C6_10  and  C8_13 
REMARK       I    between atoms: C7_11  and  N3_14 
REMARK    6  A    between atoms: N3_14  and  C9_15 
REMARK    7  A    between atoms: C9_15  and  C10_16 
REMARK    8  A    between atoms: C9_15  and  C11_18 
REMARK       I    between atoms: C10_16  and  N4_21 
REMARK    9  A    between atoms: C11_18  and  C12_19 
REMARK   10  A    between atoms: C11_18  and  C13_20 
REMARK   11  A    between atoms: N4_21  and  C14_22 
REMARK   12  A    between atoms: C14_22  and  C15_23 
REMARK   13  A    between atoms: C14_22  and  C16_25 
REMARK       I    between atoms: C15_23  and  N6_40 
REMARK   14  A    between atoms: C16_25  and  C17_26 
REMARK   15  A    between atoms: C17_26  and  C18_27 
REMARK   16  A    between atoms: C17_26  and  C19_28 
REMARK   17  A    between atoms: C20_29  and  C21_30 
REMARK   18  A    between atoms: C20_29  and  C24_33 
REMARK   19  A    between atoms: C20_29  and  N6_40 
REMARK   20  A    between atoms: C21_30  and  C22_31 
REMARK   21  A    between atoms: C22_31  and  C23_32 
REMARK   22  A    between atoms: C23_32  and  O8_43 
REMARK   23  A    between atoms: C24_33  and  C25_34 
REMARK   24  A    between atoms: C28_38  and  O6_39 
REMARK   25  A    between atoms: C29_42  and  O8_43 
REMARK   26  A    between atoms: C29_42  and  C35_49 
ROOT
ATOM      1  C14 non d ame     -30.711  14.112  23.887  0.00  0.00     0.089 C 
ATOM      2  H20 non d ame     -29.627  14.000  23.854  0.00  0.00     0.087 H 
ENDROOT
BRANCH   1   3
ATOM      3  N4  non d ame     -31.279  12.796  24.136  0.00  0.00    -0.346 N 
ATOM      4  C10 non d ame     -30.688  11.574  23.479  0.00  0.00     0.241 C 
ATOM      5  O4  non d ame     -29.757  11.675  22.751  0.00  0.00    -0.271 OA
ATOM      6  H19 non d ame     -32.074  12.731  24.757  0.00  0.00     0.163 HD
BRANCH   4   7
ATOM      7  C9  non d ame     -31.286  10.219  23.752  0.00  0.00     0.092 C 
ATOM      8  H11 non d ame     -30.722   9.732  24.548  0.00  0.00     0.088 H 
BRANCH   7   9
ATOM      9  N3  non d ame     -32.661  10.379  24.231  0.00  0.00    -0.346 N 
ATOM     10  C7  non d ame     -33.007   9.985  25.575  0.00  0.00     0.240 C 
ATOM     11  O3  non d ame     -32.191   9.537  26.284  0.00  0.00    -0.271 OA
ATOM     12  H10 non d ame     -33.377  10.762  23.631  0.00  0.00     0.163 HD
BRANCH  10  13
ATOM     13  C6  non d ame     -34.475  10.155  26.078  0.00  0.00     0.086 C 
ATOM     14  H6  non d ame     -34.532  10.376  27.144  0.00  0.00     0.086 H 
BRANCH  13  15
ATOM     15  N2  non d ame     -35.083  11.280  25.386  0.00  0.00    -0.343 N 
ATOM     16  C5  non d ame     -35.930  12.213  26.133  0.00  0.00     0.273 C 
ATOM     17  O2  non d ame     -36.117  12.049  27.288  0.00  0.00    -0.266 OA
ATOM     18  H5  non d ame     -34.920  11.410  24.398  0.00  0.00     0.163 HD
BRANCH  16  19
ATOM     19  C4  non d ame     -36.577  13.407  25.415  0.00  0.00     0.154 A 
ATOM     20  C1  non d ame     -37.074  13.444  24.073  0.00  0.00    -0.017 A 
ATOM     21  C2  non d ame     -37.563  14.758  23.902  0.00  0.00     0.077 A 
ATOM     22  H1  non d ame     -37.077  12.641  23.336  0.00  0.00     0.091 H 
ATOM     23  O1  non d ame     -37.368  15.392  25.022  0.00  0.00    -0.218 OA
ATOM     24  N1  non d ame     -36.794  14.625  25.919  0.00  0.00    -0.123 NA
BRANCH  21  25
ATOM     25  C3  non d ame     -38.201  15.326  22.642  0.00  0.00    -0.029 C 
ATOM     26  H2  non d ame     -38.746  16.237  22.889  0.00  0.00     0.036 H 
ATOM     27  H3  non d ame     -37.424  15.554  21.912  0.00  0.00     0.036 H 
ATOM     28  H4  non d ame     -38.890  14.594  22.222  0.00  0.00     0.036 H 
ENDBRANCH  21  25
ENDBRANCH  16  19
ENDBRANCH  13  15
BRANCH  13  29
ATOM     29  C8  non d ame     -35.254   8.894  25.798  0.00  0.00    -0.049 C 
ATOM     30  H7  non d ame     -36.234   9.154  25.400  0.00  0.00     0.030 H 
ATOM     31  H8  non d ame     -34.714   8.289  25.070  0.00  0.00     0.030 H 
ATOM     32  H9  non d ame     -35.375   8.329  26.723  0.00  0.00     0.030 H 
ENDBRANCH  13  29
ENDBRANCH  10  13
ENDBRANCH   7   9
BRANCH   7  33
ATOM     33  C11 non d ame     -31.289   9.380  22.441  0.00  0.00    -0.033 C 
ATOM     34  H12 non d ame     -31.140  10.069  21.610  0.00  0.00     0.042 H 
BRANCH  33  35
ATOM     35  C12 non d ame     -30.113   8.354  22.418  0.00  0.00    -0.071 C 
ATOM     36  H13 non d ame     -29.254   8.775  22.940  0.00  0.00     0.028 H 
ATOM     37  H14 non d ame     -30.424   7.435  22.913  0.00  0.00     0.028 H 
ATOM     38  H15 non d ame     -29.840   8.137  21.386  0.00  0.00     0.028 H 
ENDBRANCH  33  35
BRANCH  33  39
ATOM     39  C13 non d ame     -32.665   8.668  22.236  0.00  0.00    -0.071 C 
ATOM     40  H16 non d ame     -33.168   9.093  21.368  0.00  0.00     0.028 H 
ATOM     41  H17 non d ame     -32.503   7.601  22.077  0.00  0.00     0.028 H 
ATOM     42  H18 non d ame     -33.284   8.812  23.122  0.00  0.00     0.028 H 
ENDBRANCH  33  39
ENDBRANCH   7  33
ENDBRANCH   4   7
ENDBRANCH   1   3
BRANCH   1  43
ATOM     43  C15 non d ame     -31.168  15.072  25.022  0.00  0.00     0.240 C 
ATOM     44  O5  non d ame     -31.092  16.248  24.868  0.00  0.00    -0.271 OA
ATOM     45  N6  non d ame     -31.710  14.525  26.298  0.00  0.00    -0.355 N 
ATOM     46  H46 non d ame     -31.785  13.528  26.438  0.00  0.00     0.162 HD
BRANCH  45  47
ATOM     47  C20 non d ame     -32.143  15.451  27.368  0.00  0.00     0.013 C 
ATOM     48  H30 non d ame     -31.641  16.405  27.209  0.00  0.00     0.072 H 
BRANCH  47  49
ATOM     49  C21 non d ame     -31.752  14.879  28.712  0.00  0.00    -0.038 C 
ATOM     50  H31 non d ame     -30.718  14.550  28.603  0.00  0.00     0.036 H 
ATOM     51  H32 non d ame     -32.006  15.646  29.443  0.00  0.00     0.036 H 
BRANCH  49  52
ATOM     52  C22 non d ame     -32.570  13.626  29.091  0.00  0.00     0.018 C 
ATOM     53  H33 non d ame     -32.817  13.743  30.146  0.00  0.00     0.048 H 
ATOM     54  H34 non d ame     -33.368  13.559  28.349  0.00  0.00     0.048 H 
BRANCH  52  55
ATOM     55  C23 non d ame     -31.771  12.299  28.982  0.00  0.00     0.259 C 
ATOM     56  O7  non d ame     -30.993  12.133  28.099  0.00  0.00    -0.265 OA
BRANCH  55  57
ATOM     57  O8  non d ame     -31.989  11.272  29.944  0.00  0.00    -0.317 OA
BRANCH  57  58
ATOM     58  C29 non d ame     -32.958  10.298  29.545  0.00  0.00     0.052 C 
ATOM     59  H47 non d ame     -33.527  10.762  28.739  0.00  0.00     0.082 H 
ATOM     60  H48 non d ame     -32.397   9.382  29.360  0.00  0.00     0.082 H 
BRANCH  58  61
ATOM     61  C35 non d ame     -33.914  10.055  30.743  0.00  0.00    -0.034 A 
ATOM     62  C30 non d ame     -34.178  11.083  31.643  0.00  0.00    -0.075 A 
ATOM     63  C31 non d ame     -35.036  10.864  32.721  0.00  0.00    -0.082 A 
ATOM     64  H49 non d ame     -33.712  12.058  31.506  0.00  0.00     0.084 H 
ATOM     65  C32 non d ame     -35.630   9.611  32.897  0.00  0.00    -0.083 A 
ATOM     66  H50 non d ame     -35.242  11.672  33.424  0.00  0.00     0.083 H 
ATOM     67  C33 non d ame     -35.361   8.588  31.998  0.00  0.00    -0.082 A 
ATOM     68  H51 non d ame     -36.303   9.433  33.735  0.00  0.00     0.083 H 
ATOM     69  C34 non d ame     -34.506   8.803  30.919  0.00  0.00    -0.075 A 
ATOM     70  H52 non d ame     -35.824   7.611  32.139  0.00  0.00     0.083 H 
ATOM     71  H53 non d ame     -34.301   7.995  30.217  0.00  0.00     0.084 H 
ENDBRANCH  58  61
ENDBRANCH  57  58
ENDBRANCH  55  57
ENDBRANCH  52  55
ENDBRANCH  49  52
ENDBRANCH  47  49
BRANCH  47  72
ATOM     72  C24 non d ame     -33.658  15.634  27.312  0.00  0.00    -0.039 C 
ATOM     73  H35 non d ame     -33.994  15.015  26.479  0.00  0.00     0.036 H 
ATOM     74  H36 non d ame     -34.013  15.426  28.322  0.00  0.00     0.036 H 
BRANCH  72  75
ATOM     75  C25 non d ame     -34.061  17.146  26.972  0.00  0.00    -0.001 C 
ATOM     76  C26 non d ame     -35.305  17.624  27.935  0.00  0.00    -0.035 C 
ATOM     77  C27 non d ame     -36.284  18.144  27.157  0.00  0.00     0.085 C 
ATOM     78  H38 non d ame     -35.777  16.756  28.394  0.00  0.00     0.036 H 
ATOM     79  H39 non d ame     -34.996  18.467  28.553  0.00  0.00     0.036 H 
ATOM     80  N5  non d ame     -35.963  17.765  25.731  0.00  0.00    -0.049 N 
ATOM     81  H40 non d ame     -37.199  17.636  27.462  0.00  0.00     0.075 H 
ATOM     82  H41 non d ame     -36.199  19.225  27.264  0.00  0.00     0.075 H 
ATOM     83  C28 non d ame     -34.428  17.266  25.739  0.00  0.00     0.193 C 
ATOM     84  H42 non d ame     -36.555  16.980  25.502  0.00  0.00     0.280 HD
ATOM     85  H43 non d ame     -36.022  18.616  25.189  0.00  0.00     0.280 HD
ATOM     86  H44 non d ame     -33.635  17.908  25.358  0.00  0.00     0.129 H 
ATOM     87  H37 non d ame     -33.193  17.803  26.920  0.00  0.00     0.046 H 
BRANCH  83  88
ATOM     88  O6  non d ame     -34.305  16.039  25.018  0.00  0.00    -0.369 OA
ATOM     89  H45 non d ame     -35.175  15.654  24.890  0.00  0.00     0.212 HD
ENDBRANCH  83  88
ENDBRANCH  72  75
ENDBRANCH  47  72
ENDBRANCH  45  47
ENDBRANCH   1  43
BRANCH   1  90
ATOM     90  C16 non d ame     -31.217  14.626  22.548  0.00  0.00    -0.035 C 
ATOM     91  H21 non d ame     -31.932  13.880  22.204  0.00  0.00     0.037 H 
ATOM     92  H22 non d ame     -31.544  15.648  22.737  0.00  0.00     0.037 H 
BRANCH  90  93
ATOM     93  C17 non d ame     -30.109  14.711  21.451  0.00  0.00    -0.059 C 
ATOM     94  H23 non d ame     -29.843  13.693  21.168  0.00  0.00     0.038 H 
BRANCH  93  95
ATOM     95  C18 non d ame     -30.608  15.448  20.167  0.00  0.00    -0.073 C 
ATOM     96  H24 non d ame     -31.007  16.425  20.440  0.00  0.00     0.028 H 
ATOM     97  H25 non d ame     -29.774  15.579  19.476  0.00  0.00     0.028 H 
ATOM     98  H26 non d ame     -31.387  14.857  19.687  0.00  0.00     0.028 H 
ENDBRANCH  93  95
BRANCH  93  99
ATOM     99  C19 non d ame     -28.844  15.375  22.002  0.00  0.00    -0.073 C 
ATOM    100  H27 non d ame     -28.254  14.637  22.548  0.00  0.00     0.028 H 
ATOM    101  H28 non d ame     -28.252  15.771  21.177  0.00  0.00     0.028 H 
ATOM    102  H29 non d ame     -29.121  16.187  22.672  0.00  0.00     0.028 H 
ENDBRANCH  93  99
ENDBRANCH  90  93
ENDBRANCH   1  90
TORSDOF 26
ENDMDL
MODEL 4
REMARK VINA RESULT:      -7.8      2.858      6.250
REMARK  26 active torsions:
REMARK  status: ('A' for Active; 'I' for Inactive)
REMARK    1  A    between atoms: C2_2  and  C3_3 
REMARK    2  A    between atoms: C4_6  and  C5_7 
REMARK       I    between atoms: C5_7  and  N2_9 
REMARK    3  A    between atoms: N2_9  and  C6_10 
REMARK    4  A    between atoms: C6_10  and  C7_11 
REMARK    5  A    between atoms: C6_10  and  C8_13 
REMARK       I    between atoms: C7_11  and  N3_14 
REMARK    6  A    between atoms: N3_14  and  C9_15 
REMARK    7  A    between atoms: C9_15  and  C10_16 
REMARK    8  A    between atoms: C9_15  and  C11_18 
REMARK       I    between atoms: C10_16  and  N4_21 
REMARK    9  A    between atoms: C11_18  and  C12_19 
REMARK   10  A    between atoms: C11_18  and  C13_20 
REMARK   11  A    between atoms: N4_21  and  C14_22 
REMARK   12  A    between atoms: C14_22  and  C15_23 
REMARK   13  A    between atoms: C14_22  and  C16_25 
REMARK       I    between atoms: C15_23  and  N6_40 
REMARK   14  A    between atoms: C16_25  and  C17_26 
REMARK   15  A    between atoms: C17_26  and  C18_27 
REMARK   16  A    between atoms: C17_26  and  C19_28 
REMARK   17  A    between atoms: C20_29  and  C21_30 
REMARK   18  A    between atoms: C20_29  and  C24_33 
REMARK   19  A    between atoms: C20_29  and  N6_40 
REMARK   20  A    between atoms: C21_30  and  C22_31 
REMARK   21  A    between atoms: C22_31  and  C23_32 
REMARK   22  A    between atoms: C23_32  and  O8_43 
REMARK   23  A    between atoms: C24_33  and  C25_34 
REMARK   24  A    between atoms: C28_38  and  O6_39 
REMARK   25  A    between atoms: C29_42  and  O8_43 
REMARK   26  A    between atoms: C29_42  and  C35_49 
ROOT
ATOM      1  C14 non d ame     -32.753  10.390  25.694  0.00  0.00     0.089 C 
ATOM      2  H20 non d ame     -33.591  10.458  24.999  0.00  0.00     0.087 H 
ENDROOT
BRANCH   1   3
ATOM      3  N4  non d ame     -32.220   9.039  25.606  0.00  0.00    -0.346 N 
ATOM      4  C10 non d ame     -33.013   7.950  24.926  0.00  0.00     0.241 C 
ATOM      5  O4  non d ame     -34.078   8.184  24.462  0.00  0.00    -0.271 OA
ATOM      6  H19 non d ame     -31.312   8.860  26.010  0.00  0.00     0.163 HD
BRANCH   4   7
ATOM      7  C9  non d ame     -32.442   6.559  24.839  0.00  0.00     0.092 C 
ATOM      8  H11 non d ame     -31.378   6.591  25.076  0.00  0.00     0.088 H 
BRANCH   7   9
ATOM      9  N3  non d ame     -33.083   5.704  25.842  0.00  0.00    -0.346 N 
ATOM     10  C7  non d ame     -32.704   5.811  27.229  0.00  0.00     0.240 C 
ATOM     11  O3  non d ame     -31.884   6.579  27.556  0.00  0.00    -0.271 OA
ATOM     12  H10 non d ame     -33.791   5.035  25.575  0.00  0.00     0.163 HD
BRANCH  10  13
ATOM     13  C6  non d ame     -33.388   4.896  28.292  0.00  0.00     0.086 C 
ATOM     14  H6  non d ame     -32.771   4.744  29.178  0.00  0.00     0.086 H 
BRANCH  13  15
ATOM     15  N2  non d ame     -34.614   5.533  28.744  0.00  0.00    -0.343 N 
ATOM     16  C5  non d ame     -34.943   5.534  30.172  0.00  0.00     0.273 C 
ATOM     17  O2  non d ame     -34.216   5.017  30.947  0.00  0.00    -0.266 OA
ATOM     18  H5  non d ame     -35.231   5.969  28.074  0.00  0.00     0.163 HD
BRANCH  16  19
ATOM     19  C4  non d ame     -36.234   6.205  30.663  0.00  0.00     0.154 A 
ATOM     20  C1  non d ame     -36.523   7.606  30.693  0.00  0.00    -0.017 A 
ATOM     21  C2  non d ame     -37.828   7.697  31.228  0.00  0.00     0.077 A 
ATOM     22  H1  non d ame     -35.884   8.431  30.376  0.00  0.00     0.091 H 
ATOM     23  O1  non d ame     -38.232   6.485  31.470  0.00  0.00    -0.218 OA
ATOM     24  N1  non d ame     -37.319   5.597  31.150  0.00  0.00    -0.123 NA
BRANCH  21  25
ATOM     25  C3  non d ame     -38.615   8.978  31.472  0.00  0.00    -0.029 C 
ATOM     26  H2  non d ame     -38.389   9.359  32.468  0.00  0.00     0.036 H 
ATOM     27  H3  non d ame     -38.335   9.724  30.727  0.00  0.00     0.036 H 
ATOM     28  H4  non d ame     -39.681   8.770  31.396  0.00  0.00     0.036 H 
ENDBRANCH  21  25
ENDBRANCH  16  19
ENDBRANCH  13  15
BRANCH  13  29
ATOM     29  C8  non d ame     -33.700   3.554  27.678  0.00  0.00    -0.049 C 
ATOM     30  H7  non d ame     -33.293   3.513  26.668  0.00  0.00     0.030 H 
ATOM     31  H8  non d ame     -33.251   2.765  28.283  0.00  0.00     0.030 H 
ATOM     32  H9  non d ame     -34.780   3.414  27.641  0.00  0.00     0.030 H 
ENDBRANCH  13  29
ENDBRANCH  10  13
ENDBRANCH   7   9
BRANCH   7  33
ATOM     33  C11 non d ame     -32.707   5.978  23.420  0.00  0.00    -0.033 C 
ATOM     34  H12 non d ame     -33.547   6.527  22.992  0.00  0.00     0.042 H 
BRANCH  33  35
ATOM     35  C12 non d ame     -31.480   6.190  22.479  0.00  0.00    -0.071 C 
ATOM     36  H13 non d ame     -30.748   6.826  22.976  0.00  0.00     0.028 H 
ATOM     37  H14 non d ame     -31.028   5.225  22.251  0.00  0.00     0.028 H 
ATOM     38  H15 non d ame     -31.808   6.666  21.556  0.00  0.00     0.028 H 
ENDBRANCH  33  35
BRANCH  33  39
ATOM     39  C13 non d ame     -33.107   4.470  23.498  0.00  0.00    -0.071 C 
ATOM     40  H16 non d ame     -33.976   4.290  22.864  0.00  0.00     0.028 H 
ATOM     41  H17 non d ame     -32.275   3.854  23.156  0.00  0.00     0.028 H 
ATOM     42  H18 non d ame     -33.349   4.211  24.528  0.00  0.00     0.028 H 
ENDBRANCH  33  39
ENDBRANCH   7  33
ENDBRANCH   4   7
ENDBRANCH   1   3
BRANCH   1  43
ATOM     43  C15 non d ame     -31.618  11.394  25.345  0.00  0.00     0.240 C 
ATOM     44  O5  non d ame     -30.489  11.025  25.322  0.00  0.00    -0.271 OA
ATOM     45  N6  non d ame     -31.939  12.815  25.030  0.00  0.00    -0.355 N 
ATOM     46  H46 non d ame     -32.896  13.139  25.042  0.00  0.00     0.162 HD
BRANCH  45  47
ATOM     47  C20 non d ame     -30.849  13.758  24.699  0.00  0.00     0.013 C 
ATOM     48  H30 non d ame     -29.930  13.380  25.148  0.00  0.00     0.072 H 
BRANCH  47  49
ATOM     49  C21 non d ame     -31.177  15.121  25.264  0.00  0.00    -0.038 C 
ATOM     50  H31 non d ame     -30.688  15.162  26.238  0.00  0.00     0.036 H 
ATOM     51  H32 non d ame     -30.906  15.835  24.487  0.00  0.00     0.036 H 
BRANCH  49  52
ATOM     52  C22 non d ame     -32.687  15.314  25.526  0.00  0.00     0.018 C 
ATOM     53  H33 non d ame     -33.105  15.678  24.589  0.00  0.00     0.048 H 
ATOM     54  H34 non d ame     -33.035  14.369  25.947  0.00  0.00     0.048 H 
BRANCH  52  55
ATOM     55  C23 non d ame     -33.004  16.400  26.590  0.00  0.00     0.259 C 
ATOM     56  O7  non d ame     -33.512  17.426  26.272  0.00  0.00    -0.265 OA
BRANCH  55  57
ATOM     57  O8  non d ame     -32.667  16.162  27.952  0.00  0.00    -0.317 OA
BRANCH  57  58
ATOM     58  C29 non d ame     -33.476  15.166  28.585  0.00  0.00     0.052 C 
ATOM     59  H47 non d ame     -33.919  15.654  29.452  0.00  0.00     0.082 H 
ATOM     60  H48 non d ame     -34.115  14.761  27.800  0.00  0.00     0.082 H 
BRANCH  58  61
ATOM     61  C35 non d ame     -32.538  14.034  29.086  0.00  0.00    -0.034 A 
ATOM     62  C30 non d ame     -31.221  13.975  28.642  0.00  0.00    -0.075 A 
ATOM     63  C31 non d ame     -30.378  12.958  29.091  0.00  0.00    -0.082 A 
ATOM     64  H49 non d ame     -30.848  14.723  27.943  0.00  0.00     0.084 H 
ATOM     65  C32 non d ame     -30.859  11.997  29.985  0.00  0.00    -0.083 A 
ATOM     66  H50 non d ame     -29.346  12.915  28.743  0.00  0.00     0.083 H 
ATOM     67  C33 non d ame     -32.175  12.059  30.422  0.00  0.00    -0.082 A 
ATOM     68  H51 non d ame     -30.207  11.200  30.342  0.00  0.00     0.083 H 
ATOM     69  C34 non d ame     -33.020  13.075  29.978  0.00  0.00    -0.075 A 
ATOM     70  H52 non d ame     -32.548  11.307  31.118  0.00  0.00     0.083 H 
ATOM     71  H53 non d ame     -34.052  13.117  30.327  0.00  0.00     0.084 H 
ENDBRANCH  58  61
ENDBRANCH  57  58
ENDBRANCH  55  57
ENDBRANCH  52  55
ENDBRANCH  49  52
ENDBRANCH  47  49
BRANCH  47  72
ATOM     72  C24 non d ame     -30.694  13.857  23.182  0.00  0.00    -0.039 C 
ATOM     73  H35 non d ame     -29.948  13.108  22.918  0.00  0.00     0.036 H 
ATOM     74  H36 non d ame     -31.705  13.784  22.783  0.00  0.00     0.036 H 
BRANCH  72  75
ATOM     75  C25 non d ame     -30.113  15.282  22.738  0.00  0.00    -0.001 C 
ATOM     76  C26 non d ame     -31.252  16.110  21.889  0.00  0.00    -0.035 C 
ATOM     77  C27 non d ame     -30.703  16.538  20.726  0.00  0.00     0.085 C 
ATOM     78  H38 non d ame     -32.042  15.434  21.564  0.00  0.00     0.036 H 
ATOM     79  H39 non d ame     -31.505  17.035  22.406  0.00  0.00     0.036 H 
ATOM     80  N5  non d ame     -29.398  15.801  20.556  0.00  0.00    -0.049 N 
ATOM     81  H40 non d ame     -31.395  16.222  19.944  0.00  0.00     0.075 H 
ATOM     82  H41 non d ame     -30.496  17.598  20.874  0.00  0.00     0.075 H 
ATOM     83  C28 non d ame     -29.065  15.149  21.995  0.00  0.00     0.193 C 
ATOM     84  H42 non d ame     -29.573  15.055  19.898  0.00  0.00     0.280 HD
ATOM     85  H43 non d ame     -28.698  16.501  20.351  0.00  0.00     0.280 HD
ATOM     86  H44 non d ame     -28.307  15.589  22.641  0.00  0.00     0.129 H 
ATOM     87  H37 non d ame     -29.630  15.807  23.562  0.00  0.00     0.046 H 
BRANCH  83  88
ATOM     88  O6  non d ame     -28.685  13.780  21.840  0.00  0.00    -0.369 OA
ATOM     89  H45 non d ame     -28.652  13.561  20.906  0.00  0.00     0.212 HD
ENDBRANCH  83  88
ENDBRANCH  72  75
ENDBRANCH  47  72
ENDBRANCH  45  47
ENDBRANCH   1  43
BRANCH   1  90
ATOM     90  C16 non d ame     -33.239  10.640  27.113  0.00  0.00    -0.035 C 
ATOM     91  H21 non d ame     -33.043   9.714  27.653  0.00  0.00     0.037 H 
ATOM     92  H22 non d ame     -32.755  11.565  27.425  0.00  0.00     0.037 H 
BRANCH  90  93
ATOM     93  C17 non d ame     -34.777  10.890  27.214  0.00  0.00    -0.059 C 
ATOM     94  H23 non d ame     -35.264  10.273  26.459  0.00  0.00     0.038 H 
BRANCH  93  95
ATOM     95  C18 non d ame     -35.351  10.479  28.608  0.00  0.00    -0.073 C 
ATOM     96  H24 non d ame     -34.572   9.987  29.190  0.00  0.00     0.028 H 
ATOM     97  H25 non d ame     -35.691  11.369  29.137  0.00  0.00     0.028 H 
ATOM     98  H26 non d ame     -36.188   9.796  28.470  0.00  0.00     0.028 H 
ENDBRANCH  93  95
BRANCH  93  99
ATOM     99  C19 non d ame     -35.116  12.349  26.895  0.00  0.00    -0.073 C 
ATOM    100  H27 non d ame     -35.815  12.731  27.640  0.00  0.00     0.028 H 
ATOM    101  H28 non d ame     -34.204  12.946  26.913  0.00  0.00     0.028 H 
ATOM    102  H29 non d ame     -35.569  12.409  25.906  0.00  0.00     0.028 H 
ENDBRANCH  93  99
ENDBRANCH  90  93
ENDBRANCH   1  90
TORSDOF 26
ENDMDL
MODEL 5
REMARK VINA RESULT:      -7.7      3.262     11.600
REMARK  26 active torsions:
REMARK  status: ('A' for Active; 'I' for Inactive)
REMARK    1  A    between atoms: C2_2  and  C3_3 
REMARK    2  A    between atoms: C4_6  and  C5_7 
REMARK       I    between atoms: C5_7  and  N2_9 
REMARK    3  A    between atoms: N2_9  and  C6_10 
REMARK    4  A    between atoms: C6_10  and  C7_11 
REMARK    5  A    between atoms: C6_10  and  C8_13 
REMARK       I    between atoms: C7_11  and  N3_14 
REMARK    6  A    between atoms: N3_14  and  C9_15 
REMARK    7  A    between atoms: C9_15  and  C10_16 
REMARK    8  A    between atoms: C9_15  and  C11_18 
REMARK       I    between atoms: C10_16  and  N4_21 
REMARK    9  A    between atoms: C11_18  and  C12_19 
REMARK   10  A    between atoms: C11_18  and  C13_20 
REMARK   11  A    between atoms: N4_21  and  C14_22 
REMARK   12  A    between atoms: C14_22  and  C15_23 
REMARK   13  A    between atoms: C14_22  and  C16_25 
REMARK       I    between atoms: C15_23  and  N6_40 
REMARK   14  A    between atoms: C16_25  and  C17_26 
REMARK   15  A    between atoms: C17_26  and  C18_27 
REMARK   16  A    between atoms: C17_26  and  C19_28 
REMARK   17  A    between atoms: C20_29  and  C21_30 
REMARK   18  A    between atoms: C20_29  and  C24_33 
REMARK   19  A    between atoms: C20_29  and  N6_40 
REMARK   20  A    between atoms: C21_30  and  C22_31 
REMARK   21  A    between atoms: C22_31  and  C23_32 
REMARK   22  A    between atoms: C23_32  and  O8_43 
REMARK   23  A    between atoms: C24_33  and  C25_34 
REMARK   24  A    between atoms: C28_38  and  O6_39 
REMARK   25  A    between atoms: C29_42  and  O8_43 
REMARK   26  A    between atoms: C29_42  and  C35_49 
ROOT
ATOM      1  C14 non d ame     -34.936   7.807  29.186  0.00  0.00     0.089 C 
ATOM      2  H20 non d ame     -34.798   6.885  29.751  0.00  0.00     0.087 H 
ENDROOT
BRANCH   1   3
ATOM      3  N4  non d ame     -33.765   8.640  29.416  0.00  0.00    -0.346 N 
ATOM      4  C10 non d ame     -33.685  10.023  28.821  0.00  0.00     0.241 C 
ATOM      5  O4  non d ame     -34.573  10.443  28.156  0.00  0.00    -0.271 OA
ATOM      6  H19 non d ame     -33.019   8.263  29.983  0.00  0.00     0.163 HD
BRANCH   4   7
ATOM      7  C9  non d ame     -32.468  10.873  29.075  0.00  0.00     0.092 C 
ATOM      8  H11 non d ame     -31.598  10.401  28.617  0.00  0.00     0.088 H 
BRANCH   7   9
ATOM      9  N3  non d ame     -32.640  12.179  28.432  0.00  0.00    -0.346 N 
ATOM     10  C7  non d ame     -31.804  12.550  27.317  0.00  0.00     0.240 C 
ATOM     11  O3  non d ame     -30.986  11.809  26.925  0.00  0.00    -0.271 OA
ATOM     12  H10 non d ame     -33.340  12.829  28.760  0.00  0.00     0.163 HD
BRANCH  10  13
ATOM     13  C6  non d ame     -31.990  13.943  26.639  0.00  0.00     0.086 C 
ATOM     14  H6  non d ame     -31.360  14.714  27.081  0.00  0.00     0.086 H 
BRANCH  13  15
ATOM     15  N2  non d ame     -31.603  13.841  25.241  0.00  0.00    -0.343 N 
ATOM     16  C5  non d ame     -31.042  15.011  24.561  0.00  0.00     0.273 C 
ATOM     17  O2  non d ame     -30.908  16.029  25.147  0.00  0.00    -0.266 OA
ATOM     18  H5  non d ame     -31.725  12.968  24.748  0.00  0.00     0.163 HD
BRANCH  16  19
ATOM     19  C4  non d ame     -30.628  14.917  23.085  0.00  0.00     0.154 A 
ATOM     20  C1  non d ame     -31.096  15.727  22.002  0.00  0.00    -0.017 A 
ATOM     21  C2  non d ame     -30.414  15.242  20.863  0.00  0.00     0.077 A 
ATOM     22  H1  non d ame     -31.821  16.540  22.036  0.00  0.00     0.091 H 
ATOM     23  O1  non d ame     -29.644  14.270  21.258  0.00  0.00    -0.218 OA
ATOM     24  N1  non d ame     -29.752  14.062  22.550  0.00  0.00    -0.123 NA
BRANCH  21  25
ATOM     25  C3  non d ame     -30.554  15.763  19.439  0.00  0.00    -0.029 C 
ATOM     26  H2  non d ame     -31.574  16.112  19.278  0.00  0.00     0.036 H 
ATOM     27  H3  non d ame     -29.860  16.589  19.285  0.00  0.00     0.036 H 
ATOM     28  H4  non d ame     -30.328  14.963  18.736  0.00  0.00     0.036 H 
ENDBRANCH  21  25
ENDBRANCH  16  19
ENDBRANCH  13  15
BRANCH  13  29
ATOM     29  C8  non d ame     -33.432  14.369  26.746  0.00  0.00    -0.049 C 
ATOM     30  H7  non d ame     -33.909  13.835  27.568  0.00  0.00     0.030 H 
ATOM     31  H8  non d ame     -33.481  15.441  26.933  0.00  0.00     0.030 H 
ATOM     32  H9  non d ame     -33.949  14.139  25.814  0.00  0.00     0.030 H 
ENDBRANCH  13  29
ENDBRANCH  10  13
ENDBRANCH   7   9
BRANCH   7  33
ATOM     33  C11 non d ame     -32.286  11.072  30.608  0.00  0.00    -0.033 C 
ATOM     34  H12 non d ame     -31.946  10.123  31.024  0.00  0.00     0.042 H 
BRANCH  33  35
ATOM     35  C12 non d ame     -31.190  12.139  30.917  0.00  0.00    -0.071 C 
ATOM     36  H13 non d ame     -30.651  11.855  31.821  0.00  0.00     0.028 H 
ATOM     37  H14 non d ame     -30.493  12.196  30.082  0.00  0.00     0.028 H 
ATOM     38  H15 non d ame     -31.660  13.111  31.066  0.00  0.00     0.028 H 
ENDBRANCH  33  35
BRANCH  33  39
ATOM     39  C13 non d ame     -33.643  11.440  31.289  0.00  0.00    -0.071 C 
ATOM     40  H16 non d ame     -33.984  10.601  31.896  0.00  0.00     0.028 H 
ATOM     41  H17 non d ame     -33.506  12.315  31.925  0.00  0.00     0.028 H 
ATOM     42  H18 non d ame     -34.386  11.661  30.524  0.00  0.00     0.028 H 
ENDBRANCH  33  39
ENDBRANCH   7  33
ENDBRANCH   4   7
ENDBRANCH   1   3
BRANCH   1  43
ATOM     43  C15 non d ame     -35.067   7.547  27.659  0.00  0.00     0.240 C 
ATOM     44  O5  non d ame     -36.113   7.711  27.119  0.00  0.00    -0.271 OA
ATOM     45  N6  non d ame     -33.885   7.103  26.866  0.00  0.00    -0.355 N 
ATOM     46  H46 non d ame     -32.990   6.965  27.314  0.00  0.00     0.162 HD
BRANCH  45  47
ATOM     47  C20 non d ame     -34.025   6.861  25.413  0.00  0.00     0.013 C 
ATOM     48  H30 non d ame     -34.832   7.494  25.045  0.00  0.00     0.072 H 
BRANCH  47  49
ATOM     49  C21 non d ame     -34.362   5.406  25.179  0.00  0.00    -0.038 C 
ATOM     50  H31 non d ame     -35.217   5.194  25.823  0.00  0.00     0.036 H 
ATOM     51  H32 non d ame     -34.453   5.295  24.099  0.00  0.00     0.036 H 
BRANCH  49  52
ATOM     52  C22 non d ame     -33.234   4.450  25.622  0.00  0.00     0.018 C 
ATOM     53  H33 non d ame     -33.128   3.725  24.817  0.00  0.00     0.048 H 
ATOM     54  H34 non d ame     -32.393   5.091  25.892  0.00  0.00     0.048 H 
BRANCH  52  55
ATOM     55  C23 non d ame     -33.573   3.630  26.897  0.00  0.00     0.259 C 
ATOM     56  O7  non d ame     -33.727   2.453  26.835  0.00  0.00    -0.265 OA
BRANCH  55  57
ATOM     57  O8  non d ame     -33.711   4.303  28.143  0.00  0.00    -0.317 OA
BRANCH  57  58
ATOM     58  C29 non d ame     -32.528   4.287  28.947  0.00  0.00     0.052 C 
ATOM     59  H47 non d ame     -31.976   3.399  28.641  0.00  0.00     0.082 H 
ATOM     60  H48 non d ame     -32.080   5.274  28.833  0.00  0.00     0.082 H 
BRANCH  58  61
ATOM     61  C35 non d ame     -32.957   4.112  30.429  0.00  0.00    -0.034 A 
ATOM     62  C30 non d ame     -32.263   3.234  31.255  0.00  0.00    -0.075 A 
ATOM     63  C31 non d ame     -32.650   3.076  32.586  0.00  0.00    -0.082 A 
ATOM     64  H49 non d ame     -31.419   2.669  30.862  0.00  0.00     0.084 H 
ATOM     65  C32 non d ame     -33.735   3.798  33.088  0.00  0.00    -0.083 A 
ATOM     66  H50 non d ame     -32.103   2.388  33.232  0.00  0.00     0.083 H 
ATOM     67  C33 non d ame     -34.426   4.671  32.258  0.00  0.00    -0.082 A 
ATOM     68  H51 non d ame     -34.043   3.681  34.127  0.00  0.00     0.083 H 
ATOM     69  C34 non d ame     -34.043   4.833  30.929  0.00  0.00    -0.075 A 
ATOM     70  H52 non d ame     -35.274   5.232  32.652  0.00  0.00     0.083 H 
ATOM     71  H53 non d ame     -34.590   5.521  30.284  0.00  0.00     0.084 H 
ENDBRANCH  58  61
ENDBRANCH  57  58
ENDBRANCH  55  57
ENDBRANCH  52  55
ENDBRANCH  49  52
ENDBRANCH  47  49
BRANCH  47  72
ATOM     72  C24 non d ame     -32.716   7.203  24.705  0.00  0.00    -0.039 C 
ATOM     73  H35 non d ame     -31.954   7.196  25.485  0.00  0.00     0.036 H 
ATOM     74  H36 non d ame     -32.648   6.505  23.871  0.00  0.00     0.036 H 
BRANCH  72  75
ATOM     75  C25 non d ame     -32.745   8.679  24.084  0.00  0.00    -0.001 C 
ATOM     76  C26 non d ame     -31.899   8.711  22.675  0.00  0.00    -0.035 C 
ATOM     77  C27 non d ame     -31.007   9.729  22.725  0.00  0.00     0.085 C 
ATOM     78  H38 non d ame     -31.271   7.824  22.596  0.00  0.00     0.036 H 
ATOM     79  H39 non d ame     -32.556   8.989  21.851  0.00  0.00     0.036 H 
ATOM     80  N5  non d ame     -30.939  10.186  24.162  0.00  0.00    -0.049 N 
ATOM     81  H40 non d ame     -30.048   9.289  22.447  0.00  0.00     0.075 H 
ATOM     82  H41 non d ame     -31.438  10.525  22.119  0.00  0.00     0.075 H 
ATOM     83  C28 non d ame     -32.222   9.538  24.896  0.00  0.00     0.193 C 
ATOM     84  H42 non d ame     -30.103   9.778  24.554  0.00  0.00     0.280 HD
ATOM     85  H43 non d ame     -31.051  11.191  24.147  0.00  0.00     0.280 HD
ATOM     86  H44 non d ame     -33.095  10.147  25.128  0.00  0.00     0.129 H 
ATOM     87  H37 non d ame     -33.750   9.101  24.069  0.00  0.00     0.046 H 
BRANCH  83  88
ATOM     88  O6  non d ame     -31.832   8.941  26.134  0.00  0.00    -0.369 OA
ATOM     89  H45 non d ame     -31.179   8.258  25.969  0.00  0.00     0.212 HD
ENDBRANCH  83  88
ENDBRANCH  72  75
ENDBRANCH  47  72
ENDBRANCH  45  47
ENDBRANCH   1  43
BRANCH   1  90
ATOM     90  C16 non d ame     -36.171   8.538  29.688  0.00  0.00    -0.035 C 
ATOM     91  H21 non d ame     -35.828   9.539  29.948  0.00  0.00     0.037 H 
ATOM     92  H22 non d ame     -36.921   8.405  28.909  0.00  0.00     0.037 H 
BRANCH  90  93
ATOM     93  C17 non d ame     -36.775   7.927  30.992  0.00  0.00    -0.059 C 
ATOM     94  H23 non d ame     -35.959   7.785  31.700  0.00  0.00     0.038 H 
BRANCH  93  95
ATOM     95  C18 non d ame     -37.823   8.876  31.657  0.00  0.00    -0.073 C 
ATOM     96  H24 non d ame     -38.217   8.408  32.559  0.00  0.00     0.028 H 
ATOM     97  H25 non d ame     -37.344   9.820  31.919  0.00  0.00     0.028 H 
ATOM     98  H26 non d ame     -38.638   9.064  30.959  0.00  0.00     0.028 H 
ENDBRANCH  93  95
BRANCH  93  99
ATOM     99  C19 non d ame     -37.384   6.549  30.719  0.00  0.00    -0.073 C 
ATOM    100  H27 non d ame     -37.389   6.360  29.645  0.00  0.00     0.028 H 
ATOM    101  H28 non d ame     -36.791   5.784  31.219  0.00  0.00     0.028 H 
ATOM    102  H29 non d ame     -38.405   6.522  31.098  0.00  0.00     0.028 H 
ENDBRANCH  93  99
ENDBRANCH  90  93
ENDBRANCH   1  90
TORSDOF 26
ENDMDL
MODEL 6
REMARK VINA RESULT:      -7.7      2.934      4.711
REMARK  26 active torsions:
REMARK  status: ('A' for Active; 'I' for Inactive)
REMARK    1  A    between atoms: C2_2  and  C3_3 
REMARK    2  A    between atoms: C4_6  and  C5_7 
REMARK       I    between atoms: C5_7  and  N2_9 
REMARK    3  A    between atoms: N2_9  and  C6_10 
REMARK    4  A    between atoms: C6_10  and  C7_11 
REMARK    5  A    between atoms: C6_10  and  C8_13 
REMARK       I    between atoms: C7_11  and  N3_14 
REMARK    6  A    between atoms: N3_14  and  C9_15 
REMARK    7  A    between atoms: C9_15  and  C10_16 
REMARK    8  A    between atoms: C9_15  and  C11_18 
REMARK       I    between atoms: C10_16  and  N4_21 
REMARK    9  A    between atoms: C11_18  and  C12_19 
REMARK   10  A    between atoms: C11_18  and  C13_20 
REMARK   11  A    between atoms: N4_21  and  C14_22 
REMARK   12  A    between atoms: C14_22  and  C15_23 
REMARK   13  A    between atoms: C14_22  and  C16_25 
REMARK       I    between atoms: C15_23  and  N6_40 
REMARK   14  A    between atoms: C16_25  and  C17_26 
REMARK   15  A    between atoms: C17_26  and  C18_27 
REMARK   16  A    between atoms: C17_26  and  C19_28 
REMARK   17  A    between atoms: C20_29  and  C21_30 
REMARK   18  A    between atoms: C20_29  and  C24_33 
REMARK   19  A    between atoms: C20_29  and  N6_40 
REMARK   20  A    between atoms: C21_30  and  C22_31 
REMARK   21  A    between atoms: C22_31  and  C23_32 
REMARK   22  A    between atoms: C23_32  and  O8_43 
REMARK   23  A    between atoms: C24_33  and  C25_34 
REMARK   24  A    between atoms: C28_38  and  O6_39 
REMARK   25  A    between atoms: C29_42  and  O8_43 
REMARK   26  A    between atoms: C29_42  and  C35_49 
ROOT
ATOM      1  C14 non d ame     -30.973  13.924  24.730  0.00  0.00     0.089 C 
ATOM      2  H20 non d ame     -30.005  13.746  25.201  0.00  0.00     0.087 H 
ENDROOT
BRANCH   1   3
ATOM      3  N4  non d ame     -31.425  12.660  24.168  0.00  0.00    -0.346 N 
ATOM      4  C10 non d ame     -31.358  11.395  24.986  0.00  0.00     0.241 C 
ATOM      5  O4  non d ame     -30.934  11.418  26.093  0.00  0.00    -0.271 OA
ATOM      6  H19 non d ame     -31.780  12.662  23.222  0.00  0.00     0.163 HD
BRANCH   4   7
ATOM      7  C9  non d ame     -31.836  10.097  24.389  0.00  0.00     0.092 C 
ATOM      8  H11 non d ame     -31.570   9.276  25.056  0.00  0.00     0.088 H 
BRANCH   7   9
ATOM      9  N3  non d ame     -33.297  10.115  24.285  0.00  0.00    -0.346 N 
ATOM     10  C7  non d ame     -34.102   9.537  25.333  0.00  0.00     0.240 C 
ATOM     11  O3  non d ame     -33.589   9.051  26.266  0.00  0.00    -0.271 OA
ATOM     12  H10 non d ame     -33.754  10.528  23.485  0.00  0.00     0.163 HD
BRANCH  10  13
ATOM     13  C6  non d ame     -35.658   9.556  25.215  0.00  0.00     0.086 C 
ATOM     14  H6  non d ame     -36.149   9.027  26.032  0.00  0.00     0.086 H 
BRANCH  13  15
ATOM     15  N2  non d ame     -36.118  10.933  25.276  0.00  0.00    -0.343 N 
ATOM     16  C5  non d ame     -36.627  11.469  26.541  0.00  0.00     0.273 C 
ATOM     17  O2  non d ame     -36.665  10.783  27.502  0.00  0.00    -0.266 OA
ATOM     18  H5  non d ame     -36.085  11.511  24.448  0.00  0.00     0.163 HD
BRANCH  16  19
ATOM     19  C4  non d ame     -37.115  12.923  26.619  0.00  0.00     0.154 A 
ATOM     20  C1  non d ame     -36.334  14.109  26.439  0.00  0.00    -0.017 A 
ATOM     21  C2  non d ame     -37.245  15.175  26.612  0.00  0.00     0.077 A 
ATOM     22  H1  non d ame     -35.269  14.184  26.219  0.00  0.00     0.091 H 
ATOM     23  O1  non d ame     -38.410  14.652  26.858  0.00  0.00    -0.218 OA
ATOM     24  N1  non d ame     -38.359  13.340  26.869  0.00  0.00    -0.123 NA
BRANCH  21  25
ATOM     25  C3  non d ame     -36.922  16.660  26.523  0.00  0.00    -0.029 C 
ATOM     26  H2  non d ame     -36.575  17.016  27.493  0.00  0.00     0.036 H 
ATOM     27  H3  non d ame     -36.140  16.818  25.779  0.00  0.00     0.036 H 
ATOM     28  H4  non d ame     -37.816  17.210  26.233  0.00  0.00     0.036 H 
ENDBRANCH  21  25
ENDBRANCH  16  19
ENDBRANCH  13  15
BRANCH  13  29
ATOM     29  C8  non d ame     -36.073   8.930  23.908  0.00  0.00    -0.049 C 
ATOM     30  H7  non d ame     -36.942   8.292  24.070  0.00  0.00     0.030 H 
ATOM     31  H8  non d ame     -36.327   9.714  23.194  0.00  0.00     0.030 H 
ATOM     32  H9  non d ame     -35.251   8.332  23.513  0.00  0.00     0.030 H 
ENDBRANCH  13  29
ENDBRANCH  10  13
ENDBRANCH   7   9
BRANCH   7  33
ATOM     33  C11 non d ame     -31.219   9.921  22.971  0.00  0.00    -0.033 C 
ATOM     34  H12 non d ame     -31.455  10.817  22.396  0.00  0.00     0.042 H 
BRANCH  33  35
ATOM     35  C12 non d ame     -29.664   9.801  23.037  0.00  0.00    -0.071 C 
ATOM     36  H13 non d ame     -29.390   9.007  23.731  0.00  0.00     0.028 H 
ATOM     37  H14 non d ame     -29.276   9.568  22.046  0.00  0.00     0.028 H 
ATOM     38  H15 non d ame     -29.241  10.746  23.380  0.00  0.00     0.028 H 
ENDBRANCH  33  35
BRANCH  33  39
ATOM     39  C13 non d ame     -31.850   8.696  22.234  0.00  0.00    -0.071 C 
ATOM     40  H16 non d ame     -31.809   7.821  22.883  0.00  0.00     0.028 H 
ATOM     41  H17 non d ame     -32.889   8.916  21.986  0.00  0.00     0.028 H 
ATOM     42  H18 non d ame     -31.295   8.496  21.319  0.00  0.00     0.028 H 
ENDBRANCH  33  39
ENDBRANCH   7  33
ENDBRANCH   4   7
ENDBRANCH   1   3
BRANCH   1  43
ATOM     43  C15 non d ame     -32.038  14.423  25.747  0.00  0.00     0.240 C 
ATOM     44  O5  non d ame     -33.132  14.698  25.370  0.00  0.00    -0.271 OA
ATOM     45  N6  non d ame     -31.700  14.549  27.193  0.00  0.00    -0.355 N 
ATOM     46  H46 non d ame     -30.775  14.313  27.525  0.00  0.00     0.162 HD
BRANCH  45  47
ATOM     47  C20 non d ame     -32.725  15.023  28.148  0.00  0.00     0.013 C 
ATOM     48  H30 non d ame     -33.704  14.855  27.700  0.00  0.00     0.072 H 
BRANCH  47  49
ATOM     49  C21 non d ame     -32.522  16.499  28.407  0.00  0.00    -0.038 C 
ATOM     50  H31 non d ame     -32.744  16.646  29.465  0.00  0.00     0.036 H 
ATOM     51  H32 non d ame     -31.530  16.732  28.021  0.00  0.00     0.036 H 
BRANCH  49  52
ATOM     52  C22 non d ame     -33.514  17.387  27.627  0.00  0.00     0.018 C 
ATOM     53  H33 non d ame     -34.252  16.705  27.205  0.00  0.00     0.048 H 
ATOM     54  H34 non d ame     -33.828  18.163  28.326  0.00  0.00     0.048 H 
BRANCH  52  55
ATOM     55  C23 non d ame     -32.877  18.129  26.421  0.00  0.00     0.259 C 
ATOM     56  O7  non d ame     -31.924  17.680  25.870  0.00  0.00    -0.265 OA
BRANCH  55  57
ATOM     57  O8  non d ame     -33.435  19.365  25.988  0.00  0.00    -0.317 OA
BRANCH  57  58
ATOM     58  C29 non d ame     -34.163  20.061  27.004  0.00  0.00     0.052 C 
ATOM     59  H47 non d ame     -34.213  19.378  27.851  0.00  0.00     0.082 H 
ATOM     60  H48 non d ame     -33.669  21.027  27.111  0.00  0.00     0.082 H 
BRANCH  58  61
ATOM     61  C35 non d ame     -35.604  20.303  26.481  0.00  0.00    -0.034 A 
ATOM     62  C30 non d ame     -36.542  20.936  27.291  0.00  0.00    -0.075 A 
ATOM     63  C31 non d ame     -37.837  21.152  26.821  0.00  0.00    -0.082 A 
ATOM     64  H49 non d ame     -36.263  21.262  28.293  0.00  0.00     0.084 H 
ATOM     65  C32 non d ame     -38.193  20.730  25.538  0.00  0.00    -0.083 A 
ATOM     66  H50 non d ame     -38.569  21.650  27.458  0.00  0.00     0.083 H 
ATOM     67  C33 non d ame     -37.255  20.096  24.735  0.00  0.00    -0.082 A 
ATOM     68  H51 non d ame     -39.203  20.897  25.163  0.00  0.00     0.083 H 
ATOM     69  C34 non d ame     -35.960  19.880  25.199  0.00  0.00    -0.075 A 
ATOM     70  H52 non d ame     -37.537  19.766  23.734  0.00  0.00     0.083 H 
ATOM     71  H53 non d ame     -35.228  19.382  24.562  0.00  0.00     0.084 H 
ENDBRANCH  58  61
ENDBRANCH  57  58
ENDBRANCH  55  57
ENDBRANCH  52  55
ENDBRANCH  49  52
ENDBRANCH  47  49
BRANCH  47  72
ATOM     72  C24 non d ame     -32.603  14.253  29.461  0.00  0.00    -0.039 C 
ATOM     73  H35 non d ame     -31.940  14.851  30.087  0.00  0.00     0.036 H 
ATOM     74  H36 non d ame     -33.627  14.061  29.780  0.00  0.00     0.036 H 
BRANCH  72  75
ATOM     75  C25 non d ame     -31.899  12.830  29.251  0.00  0.00    -0.001 C 
ATOM     76  C26 non d ame     -33.036  11.642  29.227  0.00  0.00    -0.035 C 
ATOM     77  C27 non d ame     -32.675  10.675  30.105  0.00  0.00     0.085 C 
ATOM     78  H38 non d ame     -33.976  12.016  29.632  0.00  0.00     0.036 H 
ATOM     79  H39 non d ame     -33.022  11.130  28.265  0.00  0.00     0.036 H 
ATOM     80  N5  non d ame     -31.571  11.246  30.961  0.00  0.00    -0.049 N 
ATOM     81  H40 non d ame     -33.554  10.503  30.726  0.00  0.00     0.075 H 
ATOM     82  H41 non d ame     -32.270   9.866  29.497  0.00  0.00     0.075 H 
ATOM     83  C28 non d ame     -31.062  12.577  30.202  0.00  0.00     0.193 C 
ATOM     84  H42 non d ame     -31.998  11.518  31.835  0.00  0.00     0.280 HD
ATOM     85  H43 non d ame     -30.824  10.566  30.955  0.00  0.00     0.280 HD
ATOM     86  H44 non d ame     -30.126  12.573  29.645  0.00  0.00     0.129 H 
ATOM     87  H37 non d ame     -31.178  12.842  28.434  0.00  0.00     0.046 H 
BRANCH  83  88
ATOM     88  O6  non d ame     -30.953  13.661  31.126  0.00  0.00    -0.369 OA
ATOM     89  H45 non d ame     -30.884  13.315  32.018  0.00  0.00     0.212 HD
ENDBRANCH  83  88
ENDBRANCH  72  75
ENDBRANCH  47  72
ENDBRANCH  45  47
ENDBRANCH   1  43
BRANCH   1  90
ATOM     90  C16 non d ame     -30.821  14.939  23.609  0.00  0.00    -0.035 C 
ATOM     91  H21 non d ame     -31.834  15.259  23.368  0.00  0.00     0.037 H 
ATOM     92  H22 non d ame     -30.094  15.665  23.973  0.00  0.00     0.037 H 
BRANCH  90  93
ATOM     93  C17 non d ame     -30.226  14.339  22.295  0.00  0.00    -0.059 C 
ATOM     94  H23 non d ame     -30.561  13.305  22.222  0.00  0.00     0.038 H 
BRANCH  93  95
ATOM     95  C18 non d ame     -30.726  15.094  21.023  0.00  0.00    -0.073 C 
ATOM     96  H24 non d ame     -30.115  15.983  20.864  0.00  0.00     0.028 H 
ATOM     97  H25 non d ame     -30.643  14.439  20.155  0.00  0.00     0.028 H 
ATOM     98  H26 non d ame     -31.766  15.387  21.159  0.00  0.00     0.028 H 
ENDBRANCH  93  95
BRANCH  93  99
ATOM     99  C19 non d ame     -28.696  14.317  22.349  0.00  0.00    -0.073 C 
ATOM    100  H27 non d ame     -28.294  14.485  21.349  0.00  0.00     0.028 H 
ATOM    101  H28 non d ame     -28.344  15.103  23.017  0.00  0.00     0.028 H 
ATOM    102  H29 non d ame     -28.359  13.349  22.719  0.00  0.00     0.028 H 
ENDBRANCH  93  99
ENDBRANCH  90  93
ENDBRANCH   1  90
TORSDOF 26
ENDMDL
MODEL 7
REMARK VINA RESULT:      -7.6      3.053      6.261
REMARK  26 active torsions:
REMARK  status: ('A' for Active; 'I' for Inactive)
REMARK    1  A    between atoms: C2_2  and  C3_3 
REMARK    2  A    between atoms: C4_6  and  C5_7 
REMARK       I    between atoms: C5_7  and  N2_9 
REMARK    3  A    between atoms: N2_9  and  C6_10 
REMARK    4  A    between atoms: C6_10  and  C7_11 
REMARK    5  A    between atoms: C6_10  and  C8_13 
REMARK       I    between atoms: C7_11  and  N3_14 
REMARK    6  A    between atoms: N3_14  and  C9_15 
REMARK    7  A    between atoms: C9_15  and  C10_16 
REMARK    8  A    between atoms: C9_15  and  C11_18 
REMARK       I    between atoms: C10_16  and  N4_21 
REMARK    9  A    between atoms: C11_18  and  C12_19 
REMARK   10  A    between atoms: C11_18  and  C13_20 
REMARK   11  A    between atoms: N4_21  and  C14_22 
REMARK   12  A    between atoms: C14_22  and  C15_23 
REMARK   13  A    between atoms: C14_22  and  C16_25 
REMARK       I    between atoms: C15_23  and  N6_40 
REMARK   14  A    between atoms: C16_25  and  C17_26 
REMARK   15  A    between atoms: C17_26  and  C18_27 
REMARK   16  A    between atoms: C17_26  and  C19_28 
REMARK   17  A    between atoms: C20_29  and  C21_30 
REMARK   18  A    between atoms: C20_29  and  C24_33 
REMARK   19  A    between atoms: C20_29  and  N6_40 
REMARK   20  A    between atoms: C21_30  and  C22_31 
REMARK   21  A    between atoms: C22_31  and  C23_32 
REMARK   22  A    between atoms: C23_32  and  O8_43 
REMARK   23  A    between atoms: C24_33  and  C25_34 
REMARK   24  A    between atoms: C28_38  and  O6_39 
REMARK   25  A    between atoms: C29_42  and  O8_43 
REMARK   26  A    between atoms: C29_42  and  C35_49 
ROOT
ATOM      1  C14 non d ame     -32.346   9.428  24.563  0.00  0.00     0.089 C 
ATOM      2  H20 non d ame     -31.916   8.544  25.035  0.00  0.00     0.087 H 
ENDROOT
BRANCH   1   3
ATOM      3  N4  non d ame     -33.670   9.629  25.133  0.00  0.00    -0.346 N 
ATOM      4  C10 non d ame     -34.437   8.464  25.707  0.00  0.00     0.241 C 
ATOM      5  O4  non d ame     -33.970   7.373  25.695  0.00  0.00    -0.271 OA
ATOM      6  H19 non d ame     -34.050  10.565  25.132  0.00  0.00     0.163 HD
BRANCH   4   7
ATOM      7  C9  non d ame     -35.803   8.692  26.299  0.00  0.00     0.092 C 
ATOM      8  H11 non d ame     -36.263   7.729  26.520  0.00  0.00     0.088 H 
BRANCH   7   9
ATOM      9  N3  non d ame     -35.672   9.412  27.568  0.00  0.00    -0.346 N 
ATOM     10  C7  non d ame     -36.360   8.935  28.742  0.00  0.00     0.240 C 
ATOM     11  O3  non d ame     -37.025   7.972  28.683  0.00  0.00    -0.271 OA
ATOM     12  H10 non d ame     -35.105  10.244  27.634  0.00  0.00     0.163 HD
BRANCH  10  13
ATOM     13  C6  non d ame     -36.220   9.708  30.090  0.00  0.00     0.086 C 
ATOM     14  H6  non d ame     -35.975   9.054  30.927  0.00  0.00     0.086 H 
BRANCH  13  15
ATOM     15  N2  non d ame     -35.130  10.662  29.974  0.00  0.00    -0.343 N 
ATOM     16  C5  non d ame     -33.906  10.457  30.752  0.00  0.00     0.273 C 
ATOM     17  O2  non d ame     -33.809   9.522  31.469  0.00  0.00    -0.266 OA
ATOM     18  H5  non d ame     -35.223  11.460  29.362  0.00  0.00     0.163 HD
BRANCH  16  19
ATOM     19  C4  non d ame     -32.745  11.457  30.638  0.00  0.00     0.154 A 
ATOM     20  C1  non d ame     -32.763  12.733  29.991  0.00  0.00    -0.017 A 
ATOM     21  C2  non d ame     -31.460  13.249  30.168  0.00  0.00     0.077 A 
ATOM     22  H1  non d ame     -33.593  13.210  29.471  0.00  0.00     0.091 H 
ATOM     23  O1  non d ame     -30.782  12.366  30.842  0.00  0.00    -0.218 OA
ATOM     24  N1  non d ame     -31.510  11.312  31.127  0.00  0.00    -0.123 NA
BRANCH  21  25
ATOM     25  C3  non d ame     -30.945  14.591  29.664  0.00  0.00    -0.029 C 
ATOM     26  H2  non d ame     -31.663  15.372  29.914  0.00  0.00     0.036 H 
ATOM     27  H3  non d ame     -29.988  14.814  30.136  0.00  0.00     0.036 H 
ATOM     28  H4  non d ame     -30.817  14.549  28.584  0.00  0.00     0.036 H 
ENDBRANCH  21  25
ENDBRANCH  16  19
ENDBRANCH  13  15
BRANCH  13  29
ATOM     29  C8  non d ame     -37.508  10.430  30.395  0.00  0.00    -0.049 C 
ATOM     30  H7  non d ame     -37.805  11.025  29.532  0.00  0.00     0.030 H 
ATOM     31  H8  non d ame     -38.288   9.701  30.619  0.00  0.00     0.030 H 
ATOM     32  H9  non d ame     -37.364  11.083  31.255  0.00  0.00     0.030 H 
ENDBRANCH  13  29
ENDBRANCH  10  13
ENDBRANCH   7   9
BRANCH   7  33
ATOM     33  C11 non d ame     -36.661   9.536  25.312  0.00  0.00    -0.033 C 
ATOM     34  H12 non d ame     -36.094   9.633  24.385  0.00  0.00     0.042 H 
BRANCH  33  35
ATOM     35  C12 non d ame     -38.004   8.819  24.968  0.00  0.00    -0.071 C 
ATOM     36  H13 non d ame     -38.840   9.464  25.238  0.00  0.00     0.028 H 
ATOM     37  H14 non d ame     -38.039   8.608  23.899  0.00  0.00     0.028 H 
ATOM     38  H15 non d ame     -38.071   7.885  25.526  0.00  0.00     0.028 H 
ENDBRANCH  33  35
BRANCH  33  39
ATOM     39  C13 non d ame     -36.913  10.971  25.876  0.00  0.00    -0.071 C 
ATOM     40  H16 non d ame     -37.981  11.112  26.047  0.00  0.00     0.028 H 
ATOM     41  H17 non d ame     -36.375  11.092  26.816  0.00  0.00     0.028 H 
ATOM     42  H18 non d ame     -36.559  11.711  25.159  0.00  0.00     0.028 H 
ENDBRANCH  33  39
ENDBRANCH   7  33
ENDBRANCH   4   7
ENDBRANCH   1   3
BRANCH   1  43
ATOM     43  C15 non d ame     -31.496  10.704  24.820  0.00  0.00     0.240 C 
ATOM     44  O5  non d ame     -30.788  10.760  25.773  0.00  0.00    -0.271 OA
ATOM     45  N6  non d ame     -31.558  11.854  23.875  0.00  0.00    -0.355 N 
ATOM     46  H46 non d ame     -32.153  11.816  23.059  0.00  0.00     0.162 HD
BRANCH  45  47
ATOM     47  C20 non d ame     -30.742  13.061  24.132  0.00  0.00     0.013 C 
ATOM     48  H30 non d ame     -30.016  12.816  24.907  0.00  0.00     0.072 H 
BRANCH  47  49
ATOM     49  C21 non d ame     -31.642  14.181  24.603  0.00  0.00    -0.038 C 
ATOM     50  H31 non d ame     -31.084  15.102  24.424  0.00  0.00     0.036 H 
ATOM     51  H32 non d ame     -32.598  14.019  24.108  0.00  0.00     0.036 H 
BRANCH  49  52
ATOM     52  C22 non d ame     -31.920  14.129  26.121  0.00  0.00     0.018 C 
ATOM     53  H33 non d ame     -31.292  13.328  26.509  0.00  0.00     0.048 H 
ATOM     54  H34 non d ame     -31.785  15.150  26.481  0.00  0.00     0.048 H 
BRANCH  52  55
ATOM     55  C23 non d ame     -33.381  13.739  26.477  0.00  0.00     0.259 C 
ATOM     56  O7  non d ame     -33.863  12.743  26.042  0.00  0.00    -0.265 OA
BRANCH  55  57
ATOM     57  O8  non d ame     -34.146  14.594  27.318  0.00  0.00    -0.317 OA
BRANCH  57  58
ATOM     58  C29 non d ame     -34.838  15.632  26.617  0.00  0.00     0.052 C 
ATOM     59  H47 non d ame     -34.824  15.338  25.568  0.00  0.00     0.082 H 
ATOM     60  H48 non d ame     -35.789  15.755  27.136  0.00  0.00     0.082 H 
BRANCH  58  61
ATOM     61  C35 non d ame     -34.021  16.943  26.772  0.00  0.00    -0.034 A 
ATOM     62  C30 non d ame     -33.959  17.852  25.720  0.00  0.00    -0.075 A 
ATOM     63  C31 non d ame     -33.225  19.030  25.859  0.00  0.00    -0.082 A 
ATOM     64  H49 non d ame     -34.483  17.642  24.789  0.00  0.00     0.084 H 
ATOM     65  C32 non d ame     -32.550  19.295  27.053  0.00  0.00    -0.083 A 
ATOM     66  H50 non d ame     -33.179  19.741  25.034  0.00  0.00     0.083 H 
ATOM     67  C33 non d ame     -32.613  18.383  28.098  0.00  0.00    -0.082 A 
ATOM     68  H51 non d ame     -31.974  20.213  27.170  0.00  0.00     0.083 H 
ATOM     69  C34 non d ame     -33.347  17.206  27.965  0.00  0.00    -0.075 A 
ATOM     70  H52 non d ame     -32.083  18.591  29.028  0.00  0.00     0.083 H 
ATOM     71  H53 non d ame     -33.392  16.495  28.791  0.00  0.00     0.084 H 
ENDBRANCH  58  61
ENDBRANCH  57  58
ENDBRANCH  55  57
ENDBRANCH  52  55
ENDBRANCH  49  52
ENDBRANCH  47  49
BRANCH  47  72
ATOM     72  C24 non d ame     -30.027  13.485  22.851  0.00  0.00    -0.039 C 
ATOM     73  H35 non d ame     -28.969  13.299  23.035  0.00  0.00     0.036 H 
ATOM     74  H36 non d ame     -30.541  12.961  22.045  0.00  0.00     0.036 H 
BRANCH  72  75
ATOM     75  C25 non d ame     -30.190  15.054  22.572  0.00  0.00    -0.001 C 
ATOM     76  C26 non d ame     -31.064  15.291  21.200  0.00  0.00    -0.035 C 
ATOM     77  C27 non d ame     -30.385  16.139  20.391  0.00  0.00     0.085 C 
ATOM     78  H38 non d ame     -31.109  14.368  20.621  0.00  0.00     0.036 H 
ATOM     79  H39 non d ame     -31.980  15.836  21.429  0.00  0.00     0.036 H 
ATOM     80  N5  non d ame     -28.983  16.244  20.939  0.00  0.00    -0.049 N 
ATOM     81  H40 non d ame     -30.350  15.649  19.418  0.00  0.00     0.075 H 
ATOM     82  H41 non d ame     -30.881  17.104  20.498  0.00  0.00     0.075 H 
ATOM     83  C28 non d ame     -29.041  15.626  22.430  0.00  0.00     0.193 C 
ATOM     84  H42 non d ame     -28.405  15.647  20.366  0.00  0.00     0.280 HD
ATOM     85  H43 non d ame     -28.776  17.231  21.008  0.00  0.00     0.280 HD
ATOM     86  H44 non d ame     -29.035  16.279  23.301  0.00  0.00     0.129 H 
ATOM     87  H37 non d ame     -30.505  15.601  23.461  0.00  0.00     0.046 H 
BRANCH  83  88
ATOM     88  O6  non d ame     -27.958  14.715  22.628  0.00  0.00    -0.369 OA
ATOM     89  H45 non d ame     -28.058  13.965  22.038  0.00  0.00     0.212 HD
ENDBRANCH  83  88
ENDBRANCH  72  75
ENDBRANCH  47  72
ENDBRANCH  45  47
ENDBRANCH   1  43
BRANCH   1  90
ATOM     90  C16 non d ame     -32.481   9.197  23.066  0.00  0.00    -0.035 C 
ATOM     91  H21 non d ame     -33.472   8.766  22.929  0.00  0.00     0.037 H 
ATOM     92  H22 non d ame     -32.234  10.152  22.603  0.00  0.00     0.037 H 
BRANCH  90  93
ATOM     93  C17 non d ame     -31.466   8.155  22.498  0.00  0.00    -0.059 C 
ATOM     94  H23 non d ame     -31.910   7.710  21.608  0.00  0.00     0.038 H 
BRANCH  93  95
ATOM     95  C18 non d ame     -30.115   8.817  22.078  0.00  0.00    -0.073 C 
ATOM     96  H24 non d ame     -30.214   9.243  21.080  0.00  0.00     0.028 H 
ATOM     97  H25 non d ame     -29.862   9.607  22.785  0.00  0.00     0.028 H 
ATOM     98  H26 non d ame     -29.326   8.066  22.076  0.00  0.00     0.028 H 
ENDBRANCH  93  95
BRANCH  93  99
ATOM     99  C19 non d ame     -31.227   7.022  23.501  0.00  0.00    -0.073 C 
ATOM    100  H27 non d ame     -30.610   6.251  23.038  0.00  0.00     0.028 H 
ATOM    101  H28 non d ame     -30.716   7.415  24.379  0.00  0.00     0.028 H 
ATOM    102  H29 non d ame     -32.183   6.593  23.799  0.00  0.00     0.028 H 
ENDBRANCH  93  99
ENDBRANCH  90  93
ENDBRANCH   1  90
TORSDOF 26
ENDMDL
MODEL 8
REMARK VINA RESULT:      -7.6      3.377      8.647
REMARK  26 active torsions:
REMARK  status: ('A' for Active; 'I' for Inactive)
REMARK    1  A    between atoms: C2_2  and  C3_3 
REMARK    2  A    between atoms: C4_6  and  C5_7 
REMARK       I    between atoms: C5_7  and  N2_9 
REMARK    3  A    between atoms: N2_9  and  C6_10 
REMARK    4  A    between atoms: C6_10  and  C7_11 
REMARK    5  A    between atoms: C6_10  and  C8_13 
REMARK       I    between atoms: C7_11  and  N3_14 
REMARK    6  A    between atoms: N3_14  and  C9_15 
REMARK    7  A    between atoms: C9_15  and  C10_16 
REMARK    8  A    between atoms: C9_15  and  C11_18 
REMARK       I    between atoms: C10_16  and  N4_21 
REMARK    9  A    between atoms: C11_18  and  C12_19 
REMARK   10  A    between atoms: C11_18  and  C13_20 
REMARK   11  A    between atoms: N4_21  and  C14_22 
REMARK   12  A    between atoms: C14_22  and  C15_23 
REMARK   13  A    between atoms: C14_22  and  C16_25 
REMARK       I    between atoms: C15_23  and  N6_40 
REMARK   14  A    between atoms: C16_25  and  C17_26 
REMARK   15  A    between atoms: C17_26  and  C18_27 
REMARK   16  A    between atoms: C17_26  and  C19_28 
REMARK   17  A    between atoms: C20_29  and  C21_30 
REMARK   18  A    between atoms: C20_29  and  C24_33 
REMARK   19  A    between atoms: C20_29  and  N6_40 
REMARK   20  A    between atoms: C21_30  and  C22_31 
REMARK   21  A    between atoms: C22_31  and  C23_32 
REMARK   22  A    between atoms: C23_32  and  O8_43 
REMARK   23  A    between atoms: C24_33  and  C25_34 
REMARK   24  A    between atoms: C28_38  and  O6_39 
REMARK   25  A    between atoms: C29_42  and  O8_43 
REMARK   26  A    between atoms: C29_42  and  C35_49 
ROOT
ATOM      1  C14 non d ame     -32.736   9.943  24.888  0.00  0.00     0.089 C 
ATOM      2  H20 non d ame     -32.563   9.125  25.588  0.00  0.00     0.087 H 
ENDROOT
BRANCH   1   3
ATOM      3  N4  non d ame     -34.064  10.474  25.154  0.00  0.00    -0.346 N 
ATOM      4  C10 non d ame     -35.095   9.630  25.861  0.00  0.00     0.241 C 
ATOM      5  O4  non d ame     -34.833   8.525  26.203  0.00  0.00    -0.271 OA
ATOM      6  H19 non d ame     -34.268  11.417  24.854  0.00  0.00     0.163 HD
BRANCH   4   7
ATOM      7  C9  non d ame     -36.463  10.199  26.134  0.00  0.00     0.092 C 
ATOM      8  H11 non d ame     -36.572  10.373  27.205  0.00  0.00     0.088 H 
BRANCH   7   9
ATOM      9  N3  non d ame     -36.594  11.498  25.468  0.00  0.00    -0.346 N 
ATOM     10  C7  non d ame     -37.076  12.640  26.205  0.00  0.00     0.240 C 
ATOM     11  O3  non d ame     -37.363  12.531  27.335  0.00  0.00    -0.271 OA
ATOM     12  H10 non d ame     -36.352  11.607  24.494  0.00  0.00     0.163 HD
BRANCH  10  13
ATOM     13  C6  non d ame     -37.217  14.020  25.490  0.00  0.00     0.086 C 
ATOM     14  H6  non d ame     -38.115  14.560  25.789  0.00  0.00     0.086 H 
BRANCH  13  15
ATOM     15  N2  non d ame     -36.087  14.858  25.857  0.00  0.00    -0.343 N 
ATOM     16  C5  non d ame     -36.260  15.898  26.874  0.00  0.00     0.273 C 
ATOM     17  O2  non d ame     -37.313  16.053  27.389  0.00  0.00    -0.266 OA
ATOM     18  H5  non d ame     -35.192  14.720  25.409  0.00  0.00     0.163 HD
BRANCH  16  19
ATOM     19  C4  non d ame     -35.074  16.790  27.273  0.00  0.00     0.154 A 
ATOM     20  C1  non d ame     -34.361  17.705  26.436  0.00  0.00    -0.017 A 
ATOM     21  C2  non d ame     -33.373  18.270  27.273  0.00  0.00     0.077 A 
ATOM     22  H1  non d ame     -34.533  17.925  25.382  0.00  0.00     0.091 H 
ATOM     23  O1  non d ame     -33.514  17.736  28.452  0.00  0.00    -0.218 OA
ATOM     24  N1  non d ame     -34.499  16.869  28.476  0.00  0.00    -0.123 NA
BRANCH  21  25
ATOM     25  C3  non d ame     -32.338  19.312  26.871  0.00  0.00    -0.029 C 
ATOM     26  H2  non d ame     -32.371  19.459  25.791  0.00  0.00     0.036 H 
ATOM     27  H3  non d ame     -32.557  20.254  27.372  0.00  0.00     0.036 H 
ATOM     28  H4  non d ame     -31.346  18.968  27.160  0.00  0.00     0.036 H 
ENDBRANCH  21  25
ENDBRANCH  16  19
ENDBRANCH  13  15
BRANCH  13  29
ATOM     29  C8  non d ame     -37.244  13.815  23.997  0.00  0.00    -0.049 C 
ATOM     30  H7  non d ame     -36.354  13.267  23.689  0.00  0.00     0.030 H 
ATOM     31  H8  non d ame     -38.133  13.245  23.725  0.00  0.00     0.030 H 
ATOM     32  H9  non d ame     -37.266  14.783  23.497  0.00  0.00     0.030 H 
ENDBRANCH  13  29
ENDBRANCH  10  13
ENDBRANCH   7   9
BRANCH   7  33
ATOM     33  C11 non d ame     -37.547   9.226  25.586  0.00  0.00    -0.033 C 
ATOM     34  H12 non d ame     -37.116   8.224  25.580  0.00  0.00     0.042 H 
BRANCH  33  35
ATOM     35  C12 non d ame     -38.802   9.191  26.514  0.00  0.00    -0.071 C 
ATOM     36  H13 non d ame     -38.993  10.191  26.904  0.00  0.00     0.028 H 
ATOM     37  H14 non d ame     -39.666   8.854  25.942  0.00  0.00     0.028 H 
ATOM     38  H15 non d ame     -38.623   8.506  27.342  0.00  0.00     0.028 H 
ENDBRANCH  33  35
BRANCH  33  39
ATOM     39  C13 non d ame     -37.937   9.592  24.118  0.00  0.00    -0.071 C 
ATOM     40  H16 non d ame     -38.228   8.688  23.583  0.00  0.00     0.028 H 
ATOM     41  H17 non d ame     -38.773  10.293  24.128  0.00  0.00     0.028 H 
ATOM     42  H18 non d ame     -37.085  10.052  23.620  0.00  0.00     0.028 H 
ENDBRANCH  33  39
ENDBRANCH   7  33
ENDBRANCH   4   7
ENDBRANCH   1   3
BRANCH   1  43
ATOM     43  C15 non d ame     -31.700  11.091  25.057  0.00  0.00     0.240 C 
ATOM     44  O5  non d ame     -30.776  10.949  25.792  0.00  0.00    -0.271 OA
ATOM     45  N6  non d ame     -31.854  12.363  24.297  0.00  0.00    -0.355 N 
ATOM     46  H46 non d ame     -32.632  12.492  23.666  0.00  0.00     0.162 HD
BRANCH  45  47
ATOM     47  C20 non d ame     -30.859  13.445  24.467  0.00  0.00     0.013 C 
ATOM     48  H30 non d ame     -30.165  13.141  25.251  0.00  0.00     0.072 H 
BRANCH  47  49
ATOM     49  C21 non d ame     -31.569  14.717  24.870  0.00  0.00    -0.038 C 
ATOM     50  H31 non d ame     -31.030  15.526  24.373  0.00  0.00     0.036 H 
ATOM     51  H32 non d ame     -32.622  14.549  24.650  0.00  0.00     0.036 H 
BRANCH  49  52
ATOM     52  C22 non d ame     -31.479  15.000  26.385  0.00  0.00     0.018 C 
ATOM     53  H33 non d ame     -30.480  14.687  26.685  0.00  0.00     0.048 H 
ATOM     54  H34 non d ame     -31.783  16.041  26.509  0.00  0.00     0.048 H 
BRANCH  52  55
ATOM     55  C23 non d ame     -32.467  14.160  27.239  0.00  0.00     0.259 C 
ATOM     56  O7  non d ame     -33.442  13.691  26.748  0.00  0.00    -0.265 OA
BRANCH  55  57
ATOM     57  O8  non d ame     -32.202  13.968  28.624  0.00  0.00    -0.317 OA
BRANCH  57  58
ATOM     58  C29 non d ame     -31.418  12.806  28.911  0.00  0.00     0.052 C 
ATOM     59  H47 non d ame     -31.058  12.448  27.946  0.00  0.00     0.082 H 
ATOM     60  H48 non d ame     -30.708  13.111  29.679  0.00  0.00     0.082 H 
BRANCH  58  61
ATOM     61  C35 non d ame     -32.359  11.729  29.513  0.00  0.00    -0.034 A 
ATOM     62  C30 non d ame     -32.733  10.626  28.752  0.00  0.00    -0.075 A 
ATOM     63  C31 non d ame     -33.580   9.659  29.293  0.00  0.00    -0.082 A 
ATOM     64  H49 non d ame     -32.365  10.520  27.732  0.00  0.00     0.084 H 
ATOM     65  C32 non d ame     -34.054   9.799  30.600  0.00  0.00    -0.083 A 
ATOM     66  H50 non d ame     -33.870   8.795  28.694  0.00  0.00     0.083 H 
ATOM     67  C33 non d ame     -33.680  10.903  31.355  0.00  0.00    -0.082 A 
ATOM     68  H51 non d ame     -34.714   9.047  31.031  0.00  0.00     0.083 H 
ATOM     69  C34 non d ame     -32.833  11.871  30.819  0.00  0.00    -0.075 A 
ATOM     70  H52 non d ame     -34.053  11.011  32.374  0.00  0.00     0.083 H 
ATOM     71  H53 non d ame     -32.544  12.734  31.418  0.00  0.00     0.084 H 
ENDBRANCH  58  61
ENDBRANCH  57  58
ENDBRANCH  55  57
ENDBRANCH  52  55
ENDBRANCH  49  52
ENDBRANCH  47  49
BRANCH  47  72
ATOM     72  C24 non d ame     -30.111  13.671  23.155  0.00  0.00    -0.039 C 
ATOM     73  H35 non d ame     -29.073  13.411  23.365  0.00  0.00     0.036 H 
ATOM     74  H36 non d ame     -30.671  13.115  22.403  0.00  0.00     0.036 H 
BRANCH  72  75
ATOM     75  C25 non d ame     -30.134  15.211  22.717  0.00  0.00    -0.001 C 
ATOM     76  C26 non d ame     -31.184  15.423  21.470  0.00  0.00    -0.035 C 
ATOM     77  C27 non d ame     -30.551  16.088  20.474  0.00  0.00     0.085 C 
ATOM     78  H38 non d ame     -31.429  14.461  21.019  0.00  0.00     0.036 H 
ATOM     79  H39 non d ame     -31.982  16.105  21.764  0.00  0.00     0.036 H 
ATOM     80  N5  non d ame     -29.076  16.060  20.793  0.00  0.00    -0.049 N 
ATOM     81  H40 non d ame     -30.730  15.502  19.572  0.00  0.00     0.075 H 
ATOM     82  H41 non d ame     -30.908  17.115  20.536  0.00  0.00     0.075 H 
ATOM     83  C28 non d ame     -28.964  15.608  22.339  0.00  0.00     0.193 C 
ATOM     84  H42 non d ame     -28.671  15.336  20.216  0.00  0.00     0.280 HD
ATOM     85  H43 non d ame     -28.748  17.012  20.712  0.00  0.00     0.280 HD
ATOM     86  H44 non d ame     -28.743  16.339  23.115  0.00  0.00     0.129 H 
ATOM     87  H37 non d ame     -30.236  15.882  23.570  0.00  0.00     0.046 H 
BRANCH  83  88
ATOM     88  O6  non d ame     -27.976  14.586  22.484  0.00  0.00    -0.369 OA
ATOM     89  H45 non d ame     -28.324  13.879  23.033  0.00  0.00     0.212 HD
ENDBRANCH  83  88
ENDBRANCH  72  75
ENDBRANCH  47  72
ENDBRANCH  45  47
ENDBRANCH   1  43
BRANCH   1  90
ATOM     90  C16 non d ame     -32.689   9.418  23.462  0.00  0.00    -0.035 C 
ATOM     91  H21 non d ame     -33.646   8.923  23.305  0.00  0.00     0.037 H 
ATOM     92  H22 non d ame     -32.412  10.274  22.848  0.00  0.00     0.037 H 
BRANCH  90  93
ATOM     93  C17 non d ame     -31.590   8.333  23.229  0.00  0.00    -0.059 C 
ATOM     94  H23 non d ame     -30.625   8.784  23.461  0.00  0.00     0.038 H 
BRANCH  93  95
ATOM     95  C18 non d ame     -31.775   7.096  24.165  0.00  0.00    -0.073 C 
ATOM     96  H24 non d ame     -32.737   6.627  23.961  0.00  0.00     0.028 H 
ATOM     97  H25 non d ame     -30.976   6.378  23.981  0.00  0.00     0.028 H 
ATOM     98  H26 non d ame     -31.741   7.418  25.205  0.00  0.00     0.028 H 
ENDBRANCH  93  95
BRANCH  93  99
ATOM     99  C19 non d ame     -31.549   7.903  21.760  0.00  0.00    -0.073 C 
ATOM    100  H27 non d ame     -32.182   7.026  21.621  0.00  0.00     0.028 H 
ATOM    101  H28 non d ame     -31.914   8.716  21.133  0.00  0.00     0.028 H 
ATOM    102  H29 non d ame     -30.524   7.661  21.481  0.00  0.00     0.028 H 
ENDBRANCH  93  99
ENDBRANCH  90  93
ENDBRANCH   1  90
TORSDOF 26
ENDMDL
MODEL 9
REMARK VINA RESULT:      -7.6      2.581      5.471
REMARK  26 active torsions:
REMARK  status: ('A' for Active; 'I' for Inactive)
REMARK    1  A    between atoms: C2_2  and  C3_3 
REMARK    2  A    between atoms: C4_6  and  C5_7 
REMARK       I    between atoms: C5_7  and  N2_9 
REMARK    3  A    between atoms: N2_9  and  C6_10 
REMARK    4  A    between atoms: C6_10  and  C7_11 
REMARK    5  A    between atoms: C6_10  and  C8_13 
REMARK       I    between atoms: C7_11  and  N3_14 
REMARK    6  A    between atoms: N3_14  and  C9_15 
REMARK    7  A    between atoms: C9_15  and  C10_16 
REMARK    8  A    between atoms: C9_15  and  C11_18 
REMARK       I    between atoms: C10_16  and  N4_21 
REMARK    9  A    between atoms: C11_18  and  C12_19 
REMARK   10  A    between atoms: C11_18  and  C13_20 
REMARK   11  A    between atoms: N4_21  and  C14_22 
REMARK   12  A    between atoms: C14_22  and  C15_23 
REMARK   13  A    between atoms: C14_22  and  C16_25 
REMARK       I    between atoms: C15_23  and  N6_40 
REMARK   14  A    between atoms: C16_25  and  C17_26 
REMARK   15  A    between atoms: C17_26  and  C18_27 
REMARK   16  A    between atoms: C17_26  and  C19_28 
REMARK   17  A    between atoms: C20_29  and  C21_30 
REMARK   18  A    between atoms: C20_29  and  C24_33 
REMARK   19  A    between atoms: C20_29  and  N6_40 
REMARK   20  A    between atoms: C21_30  and  C22_31 
REMARK   21  A    between atoms: C22_31  and  C23_32 
REMARK   22  A    between atoms: C23_32  and  O8_43 
REMARK   23  A    between atoms: C24_33  and  C25_34 
REMARK   24  A    between atoms: C28_38  and  O6_39 
REMARK   25  A    between atoms: C29_42  and  O8_43 
REMARK   26  A    between atoms: C29_42  and  C35_49 
ROOT
ATOM      1  C14 non d ame     -32.979  10.267  25.612  0.00  0.00     0.089 C 
ATOM      2  H20 non d ame     -33.674  10.357  24.777  0.00  0.00     0.087 H 
ENDROOT
BRANCH   1   3
ATOM      3  N4  non d ame     -32.397   8.934  25.555  0.00  0.00    -0.346 N 
ATOM      4  C10 non d ame     -33.108   7.823  24.825  0.00  0.00     0.241 C 
ATOM      5  O4  non d ame     -34.150   8.024  24.294  0.00  0.00    -0.271 OA
ATOM      6  H19 non d ame     -31.511   8.783  26.016  0.00  0.00     0.163 HD
BRANCH   4   7
ATOM      7  C9  non d ame     -32.488   6.451  24.772  0.00  0.00     0.092 C 
ATOM      8  H11 non d ame     -31.431   6.526  25.027  0.00  0.00     0.088 H 
BRANCH   7   9
ATOM      9  N3  non d ame     -33.118   5.590  25.777  0.00  0.00    -0.346 N 
ATOM     10  C7  non d ame     -32.743   5.710  27.165  0.00  0.00     0.240 C 
ATOM     11  O3  non d ame     -31.936   6.493  27.490  0.00  0.00    -0.271 OA
ATOM     12  H10 non d ame     -33.814   4.909  25.512  0.00  0.00     0.163 HD
BRANCH  10  13
ATOM     13  C6  non d ame     -33.415   4.788  28.230  0.00  0.00     0.086 C 
ATOM     14  H6  non d ame     -32.788   4.633  29.108  0.00  0.00     0.086 H 
BRANCH  13  15
ATOM     15  N2  non d ame     -34.637   5.422  28.698  0.00  0.00    -0.343 N 
ATOM     16  C5  non d ame     -34.914   5.480  30.135  0.00  0.00     0.273 C 
ATOM     17  O2  non d ame     -34.150   5.012  30.905  0.00  0.00    -0.266 OA
ATOM     18  H5  non d ame     -35.286   5.815  28.032  0.00  0.00     0.163 HD
BRANCH  16  19
ATOM     19  C4  non d ame     -36.201   6.148  30.644  0.00  0.00     0.154 A 
ATOM     20  C1  non d ame     -36.494   7.548  30.677  0.00  0.00    -0.017 A 
ATOM     21  C2  non d ame     -37.791   7.635  31.229  0.00  0.00     0.077 A 
ATOM     22  H1  non d ame     -35.861   8.374  30.353  0.00  0.00     0.091 H 
ATOM     23  O1  non d ame     -38.189   6.421  31.476  0.00  0.00    -0.218 OA
ATOM     24  N1  non d ame     -37.278   5.536  31.144  0.00  0.00    -0.123 NA
BRANCH  21  25
ATOM     25  C3  non d ame     -38.578   8.914  31.484  0.00  0.00    -0.029 C 
ATOM     26  H2  non d ame     -39.129   8.821  32.420  0.00  0.00     0.036 H 
ATOM     27  H3  non d ame     -37.891   9.757  31.550  0.00  0.00     0.036 H 
ATOM     28  H4  non d ame     -39.278   9.079  30.666  0.00  0.00     0.036 H 
ENDBRANCH  21  25
ENDBRANCH  16  19
ENDBRANCH  13  15
BRANCH  13  29
ATOM     29  C8  non d ame     -33.731   3.449  27.612  0.00  0.00    -0.049 C 
ATOM     30  H7  non d ame     -33.049   3.261  26.784  0.00  0.00     0.030 H 
ATOM     31  H8  non d ame     -33.615   2.667  28.363  0.00  0.00     0.030 H 
ATOM     32  H9  non d ame     -34.758   3.451  27.246  0.00  0.00     0.030 H 
ENDBRANCH  13  29
ENDBRANCH  10  13
ENDBRANCH   7   9
BRANCH   7  33
ATOM     33  C11 non d ame     -32.706   5.839  23.358  0.00  0.00    -0.033 C 
ATOM     34  H12 non d ame     -33.545   6.363  22.899  0.00  0.00     0.042 H 
BRANCH  33  35
ATOM     35  C12 non d ame     -31.460   6.058  22.444  0.00  0.00    -0.071 C 
ATOM     36  H13 non d ame     -31.620   5.562  21.487  0.00  0.00     0.028 H 
ATOM     37  H14 non d ame     -31.313   7.125  22.281  0.00  0.00     0.028 H 
ATOM     38  H15 non d ame     -30.577   5.639  22.927  0.00  0.00     0.028 H 
ENDBRANCH  33  35
BRANCH  33  39
ATOM     39  C13 non d ame     -33.078   4.325  23.455  0.00  0.00    -0.071 C 
ATOM     40  H16 non d ame     -33.618   4.141  24.384  0.00  0.00     0.028 H 
ATOM     41  H17 non d ame     -33.707   4.049  22.608  0.00  0.00     0.028 H 
ATOM     42  H18 non d ame     -32.168   3.725  23.439  0.00  0.00     0.028 H 
ENDBRANCH  33  39
ENDBRANCH   7  33
ENDBRANCH   4   7
ENDBRANCH   1   3
BRANCH   1  43
ATOM     43  C15 non d ame     -31.830  11.313  25.536  0.00  0.00     0.240 C 
ATOM     44  O5  non d ame     -30.827  11.134  26.147  0.00  0.00    -0.271 OA
ATOM     45  N6  non d ame     -31.977  12.534  24.694  0.00  0.00    -0.355 N 
ATOM     46  H46 non d ame     -32.823  12.694  24.166  0.00  0.00     0.162 HD
BRANCH  45  47
ATOM     47  C20 non d ame     -30.875  13.519  24.631  0.00  0.00     0.013 C 
ATOM     48  H30 non d ame     -30.050  13.137  25.232  0.00  0.00     0.072 H 
BRANCH  47  49
ATOM     49  C21 non d ame     -31.353  14.840  25.188  0.00  0.00    -0.038 C 
ATOM     50  H31 non d ame     -30.570  15.561  24.949  0.00  0.00     0.036 H 
ATOM     51  H32 non d ame     -32.359  14.979  24.795  0.00  0.00     0.036 H 
BRANCH  49  52
ATOM     52  C22 non d ame     -31.482  14.831  26.727  0.00  0.00     0.018 C 
ATOM     53  H33 non d ame     -30.975  13.926  27.060  0.00  0.00     0.048 H 
ATOM     54  H34 non d ame     -31.126  15.807  27.058  0.00  0.00     0.048 H 
BRANCH  52  55
ATOM     55  C23 non d ame     -32.946  14.714  27.232  0.00  0.00     0.259 C 
ATOM     56  O7  non d ame     -33.718  13.996  26.684  0.00  0.00    -0.265 OA
BRANCH  55  57
ATOM     57  O8  non d ame     -33.360  15.488  28.352  0.00  0.00    -0.317 OA
BRANCH  57  58
ATOM     58  C29 non d ame     -34.460  16.361  28.081  0.00  0.00     0.052 C 
ATOM     59  H47 non d ame     -35.085  15.832  27.362  0.00  0.00     0.082 H 
ATOM     60  H48 non d ame     -34.864  16.639  29.054  0.00  0.00     0.082 H 
BRANCH  58  61
ATOM     61  C35 non d ame     -33.901  17.638  27.398  0.00  0.00    -0.034 A 
ATOM     62  C30 non d ame     -34.399  18.043  26.164  0.00  0.00    -0.075 A 
ATOM     63  C31 non d ame     -33.896  19.190  25.550  0.00  0.00    -0.082 A 
ATOM     64  H49 non d ame     -35.181  17.462  25.676  0.00  0.00     0.084 H 
ATOM     65  C32 non d ame     -32.890  19.932  26.175  0.00  0.00    -0.083 A 
ATOM     66  H50 non d ame     -34.290  19.506  24.583  0.00  0.00     0.083 H 
ATOM     67  C33 non d ame     -32.395  19.522  27.406  0.00  0.00    -0.082 A 
ATOM     68  H51 non d ame     -32.493  20.830  25.703  0.00  0.00     0.083 H 
ATOM     69  C34 non d ame     -32.895  18.378  28.023  0.00  0.00    -0.075 A 
ATOM     70  H52 non d ame     -31.608  20.102  27.890  0.00  0.00     0.083 H 
ATOM     71  H53 non d ame     -32.501  18.063  28.990  0.00  0.00     0.084 H 
ENDBRANCH  58  61
ENDBRANCH  57  58
ENDBRANCH  55  57
ENDBRANCH  52  55
ENDBRANCH  49  52
ENDBRANCH  47  49
BRANCH  47  72
ATOM     72  C24 non d ame     -30.432  13.706  23.181  0.00  0.00    -0.039 C 
ATOM     73  H35 non d ame     -29.464  13.209  23.108  0.00  0.00     0.036 H 
ATOM     74  H36 non d ame     -31.269  13.360  22.575  0.00  0.00     0.036 H 
BRANCH  72  75
ATOM     75  C25 non d ame     -30.199  15.251  22.828  0.00  0.00    -0.001 C 
ATOM     76  C26 non d ame     -31.282  15.733  21.688  0.00  0.00    -0.035 C 
ATOM     77  C27 non d ame     -30.612  16.337  20.677  0.00  0.00     0.085 C 
ATOM     78  H38 non d ame     -31.735  14.864  21.211  0.00  0.00     0.036 H 
ATOM     79  H39 non d ame     -31.913  16.528  22.085  0.00  0.00     0.036 H 
ATOM     80  N5  non d ame     -29.148  16.019  20.866  0.00  0.00    -0.049 N 
ATOM     81  H40 non d ame     -30.965  15.854  19.765  0.00  0.00     0.075 H 
ATOM     82  H41 non d ame     -30.765  17.406  20.823  0.00  0.00     0.075 H 
ATOM     83  C28 non d ame     -29.008  15.452  22.371  0.00  0.00     0.193 C 
ATOM     84  H42 non d ame     -28.930  15.274  20.220  0.00  0.00     0.280 HD
ATOM     85  H43 non d ame     -28.655  16.899  20.807  0.00  0.00     0.280 HD
ATOM     86  H44 non d ame     -28.596  16.077  23.163  0.00  0.00     0.129 H 
ATOM     87  H37 non d ame     -30.109  15.870  23.720  0.00  0.00     0.046 H 
BRANCH  83  88
ATOM     88  O6  non d ame     -28.220  14.259  22.377  0.00  0.00    -0.369 OA
ATOM     89  H45 non d ame     -28.787  13.501  22.221  0.00  0.00     0.212 HD
ENDBRANCH  83  88
ENDBRANCH  72  75
ENDBRANCH  47  72
ENDBRANCH  45  47
ENDBRANCH   1  43
BRANCH   1  90
ATOM     90  C16 non d ame     -33.729  10.425  26.925  0.00  0.00    -0.035 C 
ATOM     91  H21 non d ame     -33.616   9.471  27.439  0.00  0.00     0.037 H 
ATOM     92  H22 non d ame     -33.333  11.336  27.375  0.00  0.00     0.037 H 
BRANCH  90  93
ATOM     93  C17 non d ame     -35.264  10.651  26.747  0.00  0.00    -0.059 C 
ATOM     94  H23 non d ame     -35.564  11.441  27.435  0.00  0.00     0.038 H 
BRANCH  93  95
ATOM     95  C18 non d ame     -35.627  11.114  25.300  0.00  0.00    -0.073 C 
ATOM     96  H24 non d ame     -35.974  10.258  24.721  0.00  0.00     0.028 H 
ATOM     97  H25 non d ame     -36.418  11.864  25.347  0.00  0.00     0.028 H 
ATOM     98  H26 non d ame     -34.747  11.543  24.824  0.00  0.00     0.028 H 
ENDBRANCH  93  95
BRANCH  93  99
ATOM     99  C19 non d ame     -36.049   9.393  27.130  0.00  0.00    -0.073 C 
ATOM    100  H27 non d ame     -35.704   8.552  26.527  0.00  0.00     0.028 H 
ATOM    101  H28 non d ame     -35.890   9.172  28.185  0.00  0.00     0.028 H 
ATOM    102  H29 non d ame     -37.111   9.559  26.950  0.00  0.00     0.028 H 
ENDBRANCH  93  99
ENDBRANCH  90  93
ENDBRANCH   1  90
TORSDOF 26
ENDMDL
MODEL 10
REMARK VINA RESULT:      -7.3      3.374      9.736
REMARK  26 active torsions:
REMARK  status: ('A' for Active; 'I' for Inactive)
REMARK    1  A    between atoms: C2_2  and  C3_3 
REMARK    2  A    between atoms: C4_6  and  C5_7 
REMARK       I    between atoms: C5_7  and  N2_9 
REMARK    3  A    between atoms: N2_9  and  C6_10 
REMARK    4  A    between atoms: C6_10  and  C7_11 
REMARK    5  A    between atoms: C6_10  and  C8_13 
REMARK       I    between atoms: C7_11  and  N3_14 
REMARK    6  A    between atoms: N3_14  and  C9_15 
REMARK    7  A    between atoms: C9_15  and  C10_16 
REMARK    8  A    between atoms: C9_15  and  C11_18 
REMARK       I    between atoms: C10_16  and  N4_21 
REMARK    9  A    between atoms: C11_18  and  C12_19 
REMARK   10  A    between atoms: C11_18  and  C13_20 
REMARK   11  A    between atoms: N4_21  and  C14_22 
REMARK   12  A    between atoms: C14_22  and  C15_23 
REMARK   13  A    between atoms: C14_22  and  C16_25 
REMARK       I    between atoms: C15_23  and  N6_40 
REMARK   14  A    between atoms: C16_25  and  C17_26 
REMARK   15  A    between atoms: C17_26  and  C18_27 
REMARK   16  A    between atoms: C17_26  and  C19_28 
REMARK   17  A    between atoms: C20_29  and  C21_30 
REMARK   18  A    between atoms: C20_29  and  C24_33 
REMARK   19  A    between atoms: C20_29  and  N6_40 
REMARK   20  A    between atoms: C21_30  and  C22_31 
REMARK   21  A    between atoms: C22_31  and  C23_32 
REMARK   22  A    between atoms: C23_32  and  O8_43 
REMARK   23  A    between atoms: C24_33  and  C25_34 
REMARK   24  A    between atoms: C28_38  and  O6_39 
REMARK   25  A    between atoms: C29_42  and  O8_43 
REMARK   26  A    between atoms: C29_42  and  C35_49 
ROOT
ATOM      1  C14 non d ame     -36.325  13.695  26.083  0.00  0.00     0.089 C 
ATOM      2  H20 non d ame     -37.104  13.548  26.832  0.00  0.00     0.087 H 
ENDROOT
BRANCH   1   3
ATOM      3  N4  non d ame     -36.029  15.119  26.035  0.00  0.00    -0.346 N 
ATOM      4  C10 non d ame     -37.025  16.123  26.559  0.00  0.00     0.241 C 
ATOM      5  O4  non d ame     -38.060  15.761  27.011  0.00  0.00    -0.271 OA
ATOM      6  H19 non d ame     -35.143  15.407  25.644  0.00  0.00     0.163 HD
BRANCH   4   7
ATOM      7  C9  non d ame     -36.698  17.593  26.506  0.00  0.00     0.092 C 
ATOM      8  H11 non d ame     -36.995  18.060  27.446  0.00  0.00     0.088 H 
BRANCH   7   9
ATOM      9  N3  non d ame     -35.250  17.768  26.372  0.00  0.00    -0.346 N 
ATOM     10  C7  non d ame     -34.435  17.955  27.547  0.00  0.00     0.240 C 
ATOM     11  O3  non d ame     -34.929  17.969  28.609  0.00  0.00    -0.271 OA
ATOM     12  H10 non d ame     -34.809  17.759  25.464  0.00  0.00     0.163 HD
BRANCH  10  13
ATOM     13  C6  non d ame     -32.893  18.144  27.399  0.00  0.00     0.086 C 
ATOM     14  H6  non d ame     -32.328  17.620  28.169  0.00  0.00     0.086 H 
BRANCH  13  15
ATOM     15  N2  non d ame     -32.471  17.588  26.124  0.00  0.00    -0.343 N 
ATOM     16  C5  non d ame     -31.963  16.215  26.068  0.00  0.00     0.273 C 
ATOM     17  O2  non d ame     -31.895  15.568  27.055  0.00  0.00    -0.266 OA
ATOM     18  H5  non d ame     -32.529  18.149  25.286  0.00  0.00     0.163 HD
BRANCH  16  19
ATOM     19  C4  non d ame     -31.516  15.614  24.727  0.00  0.00     0.154 A 
ATOM     20  C1  non d ame     -30.778  14.404  24.524  0.00  0.00    -0.017 A 
ATOM     21  C2  non d ame     -30.625  14.302  23.123  0.00  0.00     0.077 A 
ATOM     22  H1  non d ame     -30.409  13.708  25.277  0.00  0.00     0.091 H 
ATOM     23  O1  non d ame     -31.212  15.335  22.593  0.00  0.00    -0.218 OA
ATOM     24  N1  non d ame     -31.738  16.115  23.509  0.00  0.00    -0.123 NA
BRANCH  21  25
ATOM     25  C3  non d ame     -29.908  13.187  22.374  0.00  0.00    -0.029 C 
ATOM     26  H2  non d ame     -30.454  12.954  21.460  0.00  0.00     0.036 H 
ATOM     27  H3  non d ame     -28.898  13.511  22.120  0.00  0.00     0.036 H 
ATOM     28  H4  non d ame     -29.857  12.300  23.003  0.00  0.00     0.036 H 
ENDBRANCH  21  25
ENDBRANCH  16  19
ENDBRANCH  13  15
BRANCH  13  29
ATOM     29  C8  non d ame     -32.556  19.612  27.458  0.00  0.00    -0.049 C 
ATOM     30  H7  non d ame     -33.473  20.198  27.408  0.00  0.00     0.030 H 
ATOM     31  H8  non d ame     -32.038  19.827  28.394  0.00  0.00     0.030 H 
ATOM     32  H9  non d ame     -31.911  19.871  26.618  0.00  0.00     0.030 H 
ENDBRANCH  13  29
ENDBRANCH  10  13
ENDBRANCH   7   9
BRANCH   7  33
ATOM     33  C11 non d ame     -37.412  18.238  25.283  0.00  0.00    -0.033 C 
ATOM     34  H12 non d ame     -38.445  18.435  25.571  0.00  0.00     0.042 H 
BRANCH  33  35
ATOM     35  C12 non d ame     -36.762  19.605  24.901  0.00  0.00    -0.071 C 
ATOM     36  H13 non d ame     -35.771  19.673  25.347  0.00  0.00     0.028 H 
ATOM     37  H14 non d ame     -36.679  19.677  23.817  0.00  0.00     0.028 H 
ATOM     38  H15 non d ame     -37.384  20.420  25.272  0.00  0.00     0.028 H 
ENDBRANCH  33  35
BRANCH  33  39
ATOM     39  C13 non d ame     -37.429  17.260  24.065  0.00  0.00    -0.071 C 
ATOM     40  H16 non d ame     -38.454  16.944  23.867  0.00  0.00     0.028 H 
ATOM     41  H17 non d ame     -37.029  17.766  23.185  0.00  0.00     0.028 H 
ATOM     42  H18 non d ame     -36.817  16.388  24.290  0.00  0.00     0.028 H 
ENDBRANCH  33  39
ENDBRANCH   7  33
ENDBRANCH   4   7
ENDBRANCH   1   3
BRANCH   1  43
ATOM     43  C15 non d ame     -35.018  12.929  26.434  0.00  0.00     0.240 C 
ATOM     44  O5  non d ame     -33.996  13.233  25.911  0.00  0.00    -0.271 OA
ATOM     45  N6  non d ame     -35.040  11.821  27.431  0.00  0.00    -0.355 N 
ATOM     46  H46 non d ame     -35.902  11.557  27.886  0.00  0.00     0.162 HD
BRANCH  45  47
ATOM     47  C20 non d ame     -33.788  11.103  27.757  0.00  0.00     0.013 C 
ATOM     48  H30 non d ame     -32.958  11.663  27.325  0.00  0.00     0.072 H 
BRANCH  47  49
ATOM     49  C21 non d ame     -33.840   9.714  27.161  0.00  0.00    -0.038 C 
ATOM     50  H31 non d ame     -34.024   9.040  28.000  0.00  0.00     0.036 H 
ATOM     51  H32 non d ame     -34.555   9.772  26.341  0.00  0.00     0.036 H 
BRANCH  49  52
ATOM     52  C22 non d ame     -32.496   9.278  26.539  0.00  0.00     0.018 C 
ATOM     53  H33 non d ame     -31.814   9.138  27.377  0.00  0.00     0.048 H 
ATOM     54  H34 non d ame     -32.733   8.438  25.885  0.00  0.00     0.048 H 
BRANCH  52  55
ATOM     55  C23 non d ame     -31.845  10.358  25.632  0.00  0.00     0.259 C 
ATOM     56  O7  non d ame     -30.882  10.951  25.995  0.00  0.00    -0.265 OA
BRANCH  55  57
ATOM     57  O8  non d ame     -32.423  10.642  24.363  0.00  0.00    -0.317 OA
BRANCH  57  58
ATOM     58  C29 non d ame     -32.720   9.479  23.585  0.00  0.00     0.052 C 
ATOM     59  H47 non d ame     -33.212   8.786  24.267  0.00  0.00     0.082 H 
ATOM     60  H48 non d ame     -33.245   9.841  22.701  0.00  0.00     0.082 H 
BRANCH  58  61
ATOM     61  C35 non d ame     -31.374   8.850  23.133  0.00  0.00    -0.034 A 
ATOM     62  C30 non d ame     -31.133   7.496  23.343  0.00  0.00    -0.075 A 
ATOM     63  C31 non d ame     -29.924   6.931  22.937  0.00  0.00    -0.082 A 
ATOM     64  H49 non d ame     -31.889   6.878  23.826  0.00  0.00     0.084 H 
ATOM     65  C32 non d ame     -28.955   7.726  22.320  0.00  0.00    -0.083 A 
ATOM     66  H50 non d ame     -29.739   5.869  23.102  0.00  0.00     0.083 H 
ATOM     67  C33 non d ame     -29.199   9.077  22.116  0.00  0.00    -0.082 A 
ATOM     68  H51 non d ame     -28.008   7.292  21.999  0.00  0.00     0.083 H 
ATOM     69  C34 non d ame     -30.406   9.645  22.518  0.00  0.00    -0.075 A 
ATOM     70  H52 non d ame     -28.439   9.696  21.636  0.00  0.00     0.083 H 
ATOM     71  H53 non d ame     -30.590  10.707  22.352  0.00  0.00     0.084 H 
ENDBRANCH  58  61
ENDBRANCH  57  58
ENDBRANCH  55  57
ENDBRANCH  52  55
ENDBRANCH  49  52
ENDBRANCH  47  49
BRANCH  47  72
ATOM     72  C24 non d ame     -33.629  11.003  29.272  0.00  0.00    -0.039 C 
ATOM     73  H35 non d ame     -34.640  11.078  29.675  0.00  0.00     0.036 H 
ATOM     74  H36 non d ame     -33.040  10.102  29.443  0.00  0.00     0.036 H 
BRANCH  72  75
ATOM     75  C25 non d ame     -32.791  12.234  29.863  0.00  0.00    -0.001 C 
ATOM     76  C26 non d ame     -31.532  12.583  28.865  0.00  0.00    -0.035 C 
ATOM     77  C27 non d ame     -30.394  12.632  29.598  0.00  0.00     0.085 C 
ATOM     78  H38 non d ame     -31.358  11.756  28.177  0.00  0.00     0.036 H 
ATOM     79  H39 non d ame     -31.631  13.599  28.481  0.00  0.00     0.036 H 
ATOM     80  N5  non d ame     -30.710  12.025  30.943  0.00  0.00    -0.049 N 
ATOM     81  H40 non d ame     -29.684  11.989  29.076  0.00  0.00     0.075 H 
ATOM     82  H41 non d ame     -30.176  13.691  29.728  0.00  0.00     0.075 H 
ATOM     83  C28 non d ame     -32.320  11.960  31.034  0.00  0.00     0.193 C 
ATOM     84  H42 non d ame     -30.350  11.081  30.924  0.00  0.00     0.280 HD
ATOM     85  H43 non d ame     -30.374  12.678  31.637  0.00  0.00     0.280 HD
ATOM     86  H44 non d ame     -32.870  12.678  31.641  0.00  0.00     0.129 H 
ATOM     87  H37 non d ame     -33.431  13.063  30.164  0.00  0.00     0.046 H 
BRANCH  83  88
ATOM     88  O6  non d ame     -32.736  10.673  31.495  0.00  0.00    -0.369 OA
ATOM     89  H45 non d ame     -32.628  10.623  32.447  0.00  0.00     0.212 HD
ENDBRANCH  83  88
ENDBRANCH  72  75
ENDBRANCH  47  72
ENDBRANCH  45  47
ENDBRANCH   1  43
BRANCH   1  90
ATOM     90  C16 non d ame     -36.830  13.248  24.720  0.00  0.00    -0.035 C 
ATOM     91  H21 non d ame     -36.595  14.067  24.042  0.00  0.00     0.037 H 
ATOM     92  H22 non d ame     -36.390  12.264  24.559  0.00  0.00     0.037 H 
BRANCH  90  93
ATOM     93  C17 non d ame     -38.378  13.055  24.658  0.00  0.00    -0.059 C 
ATOM     94  H23 non d ame     -38.830  14.040  24.543  0.00  0.00     0.038 H 
BRANCH  93  95
ATOM     95  C18 non d ame     -38.815  12.185  23.436  0.00  0.00    -0.073 C 
ATOM     96  H24 non d ame     -38.183  11.298  23.377  0.00  0.00     0.028 H 
ATOM     97  H25 non d ame     -39.855  11.881  23.559  0.00  0.00     0.028 H 
ATOM     98  H26 non d ame     -38.713  12.766  22.520  0.00  0.00     0.028 H 
ENDBRANCH  93  95
BRANCH  93  99
ATOM     99  C19 non d ame     -38.908  12.461  25.966  0.00  0.00    -0.073 C 
ATOM    100  H27 non d ame     -39.352  13.253  26.571  0.00  0.00     0.028 H 
ATOM    101  H28 non d ame     -39.665  11.708  25.743  0.00  0.00     0.028 H 
ATOM    102  H29 non d ame     -38.088  12.000  26.514  0.00  0.00     0.028 H 
ENDBRANCH  93  99
ENDBRANCH  90  93
ENDBRANCH   1  90
TORSDOF 26
ENDMDL
MODEL 11
REMARK VINA RESULT:      -7.3      3.384     10.559
REMARK  26 active torsions:
REMARK  status: ('A' for Active; 'I' for Inactive)
REMARK    1  A    between atoms: C2_2  and  C3_3 
REMARK    2  A    between atoms: C4_6  and  C5_7 
REMARK       I    between atoms: C5_7  and  N2_9 
REMARK    3  A    between atoms: N2_9  and  C6_10 
REMARK    4  A    between atoms: C6_10  and  C7_11 
REMARK    5  A    between atoms: C6_10  and  C8_13 
REMARK       I    between atoms: C7_11  and  N3_14 
REMARK    6  A    between atoms: N3_14  and  C9_15 
REMARK    7  A    between atoms: C9_15  and  C10_16 
REMARK    8  A    between atoms: C9_15  and  C11_18 
REMARK       I    between atoms: C10_16  and  N4_21 
REMARK    9  A    between atoms: C11_18  and  C12_19 
REMARK   10  A    between atoms: C11_18  and  C13_20 
REMARK   11  A    between atoms: N4_21  and  C14_22 
REMARK   12  A    between atoms: C14_22  and  C15_23 
REMARK   13  A    between atoms: C14_22  and  C16_25 
REMARK       I    between atoms: C15_23  and  N6_40 
REMARK   14  A    between atoms: C16_25  and  C17_26 
REMARK   15  A    between atoms: C17_26  and  C18_27 
REMARK   16  A    between atoms: C17_26  and  C19_28 
REMARK   17  A    between atoms: C20_29  and  C21_30 
REMARK   18  A    between atoms: C20_29  and  C24_33 
REMARK   19  A    between atoms: C20_29  and  N6_40 
REMARK   20  A    between atoms: C21_30  and  C22_31 
REMARK   21  A    between atoms: C22_31  and  C23_32 
REMARK   22  A    between atoms: C23_32  and  O8_43 
REMARK   23  A    between atoms: C24_33  and  C25_34 
REMARK   24  A    between atoms: C28_38  and  O6_39 
REMARK   25  A    between atoms: C29_42  and  O8_43 
REMARK   26  A    between atoms: C29_42  and  C35_49 
ROOT
ATOM      1  C14 non d ame     -35.160   6.286  31.147  0.00  0.00     0.089 C 
ATOM      2  H20 non d ame     -34.828   6.534  32.156  0.00  0.00     0.087 H 
ENDROOT
BRANCH   1   3
ATOM      3  N4  non d ame     -35.254   7.531  30.400  0.00  0.00    -0.346 N 
ATOM      4  C10 non d ame     -34.959   8.849  31.073  0.00  0.00     0.241 C 
ATOM      5  O4  non d ame     -34.651   8.881  32.218  0.00  0.00    -0.271 OA
ATOM      6  H19 non d ame     -35.521   7.482  29.427  0.00  0.00     0.163 HD
BRANCH   4   7
ATOM      7  C9  non d ame     -35.057  10.127  30.282  0.00  0.00     0.092 C 
ATOM      8  H11 non d ame     -35.333  10.942  30.951  0.00  0.00     0.088 H 
BRANCH   7   9
ATOM      9  N3  non d ame     -33.745  10.454  29.718  0.00  0.00    -0.346 N 
ATOM     10  C7  non d ame     -32.917  11.452  30.350  0.00  0.00     0.240 C 
ATOM     11  O3  non d ame     -33.293  12.002  31.313  0.00  0.00    -0.271 OA
ATOM     12  H10 non d ame     -33.408   9.989  28.888  0.00  0.00     0.163 HD
BRANCH  10  13
ATOM     13  C6  non d ame     -31.522  11.799  29.743  0.00  0.00     0.086 C 
ATOM     14  H6  non d ame     -31.118  10.995  29.128  0.00  0.00     0.086 H 
BRANCH  13  15
ATOM     15  N2  non d ame     -31.661  12.957  28.875  0.00  0.00    -0.343 N 
ATOM     16  C5  non d ame     -31.324  12.837  27.454  0.00  0.00     0.273 C 
ATOM     17  O2  non d ame     -30.941  11.807  27.021  0.00  0.00    -0.266 OA
ATOM     18  H5  non d ame     -31.986  13.834  29.255  0.00  0.00     0.163 HD
BRANCH  16  19
ATOM     19  C4  non d ame     -31.468  14.052  26.525  0.00  0.00     0.154 A 
ATOM     20  C1  non d ame     -31.195  14.105  25.121  0.00  0.00    -0.017 A 
ATOM     21  C2  non d ame     -31.483  15.436  24.744  0.00  0.00     0.077 A 
ATOM     22  H1  non d ame     -30.840  13.302  24.476  0.00  0.00     0.091 H 
ATOM     23  O1  non d ame     -31.878  16.064  25.813  0.00  0.00    -0.218 OA
ATOM     24  N1  non d ame     -31.876  15.278  26.865  0.00  0.00    -0.123 NA
BRANCH  21  25
ATOM     25  C3  non d ame     -31.357  16.024  23.345  0.00  0.00    -0.029 C 
ATOM     26  H2  non d ame     -30.344  16.399  23.198  0.00  0.00     0.036 H 
ATOM     27  H3  non d ame     -31.568  15.251  22.606  0.00  0.00     0.036 H 
ATOM     28  H4  non d ame     -32.067  16.841  23.229  0.00  0.00     0.036 H 
ENDBRANCH  21  25
ENDBRANCH  16  19
ENDBRANCH  13  15
BRANCH  13  29
ATOM     29  C8  non d ame     -30.548  12.100  30.854  0.00  0.00    -0.049 C 
ATOM     30  H7  non d ame     -29.530  11.964  30.492  0.00  0.00     0.030 H 
ATOM     31  H8  non d ame     -30.681  13.132  31.183  0.00  0.00     0.030 H 
ATOM     32  H9  non d ame     -30.731  11.426  31.691  0.00  0.00     0.030 H 
ENDBRANCH  13  29
ENDBRANCH  10  13
ENDBRANCH   7   9
BRANCH   7  33
ATOM     33  C11 non d ame     -36.085   9.944  29.128  0.00  0.00    -0.033 C 
ATOM     34  H12 non d ame     -36.197   8.874  28.954  0.00  0.00     0.042 H 
BRANCH  33  35
ATOM     35  C12 non d ame     -37.487  10.506  29.519  0.00  0.00    -0.071 C 
ATOM     36  H13 non d ame     -37.632  10.403  30.594  0.00  0.00     0.028 H 
ATOM     37  H14 non d ame     -37.545  11.559  29.245  0.00  0.00     0.028 H 
ATOM     38  H15 non d ame     -38.262   9.949  28.993  0.00  0.00     0.028 H 
ENDBRANCH  33  35
BRANCH  33  39
ATOM     39  C13 non d ame     -35.563  10.595  27.806  0.00  0.00    -0.071 C 
ATOM     40  H16 non d ame     -36.394  10.730  27.114  0.00  0.00     0.028 H 
ATOM     41  H17 non d ame     -35.114  11.564  28.030  0.00  0.00     0.028 H 
ATOM     42  H18 non d ame     -34.814   9.946  27.353  0.00  0.00     0.028 H 
ENDBRANCH  33  39
ENDBRANCH   7  33
ENDBRANCH   4   7
ENDBRANCH   1   3
BRANCH   1  43
ATOM     43  C15 non d ame     -34.163   5.344  30.415  0.00  0.00     0.240 C 
ATOM     44  O5  non d ame     -33.659   4.444  31.005  0.00  0.00    -0.271 OA
ATOM     45  N6  non d ame     -33.843   5.557  28.975  0.00  0.00    -0.355 N 
ATOM     46  H46 non d ame     -34.270   6.315  28.462  0.00  0.00     0.162 HD
BRANCH  45  47
ATOM     47  C20 non d ame     -32.894   4.650  28.292  0.00  0.00     0.013 C 
ATOM     48  H30 non d ame     -32.055   4.475  28.965  0.00  0.00     0.072 H 
BRANCH  47  49
ATOM     49  C21 non d ame     -32.407   5.305  27.019  0.00  0.00    -0.038 C 
ATOM     50  H31 non d ame     -31.483   4.787  26.757  0.00  0.00     0.036 H 
ATOM     51  H32 non d ame     -33.255   5.285  26.335  0.00  0.00     0.036 H 
BRANCH  49  52
ATOM     52  C22 non d ame     -32.035   6.790  27.212  0.00  0.00     0.018 C 
ATOM     53  H33 non d ame     -32.036   6.957  28.289  0.00  0.00     0.048 H 
ATOM     54  H34 non d ame     -31.119   6.942  26.639  0.00  0.00     0.048 H 
BRANCH  52  55
ATOM     55  C23 non d ame     -33.078   7.779  26.624  0.00  0.00     0.259 C 
ATOM     56  O7  non d ame     -34.217   7.459  26.509  0.00  0.00    -0.265 OA
BRANCH  55  57
ATOM     57  O8  non d ame     -32.655   9.072  26.207  0.00  0.00    -0.317 OA
BRANCH  57  58
ATOM     58  C29 non d ame     -33.150   9.460  24.921  0.00  0.00     0.052 C 
ATOM     59  H47 non d ame     -33.835   8.668  24.619  0.00  0.00     0.082 H 
ATOM     60  H48 non d ame     -33.514  10.480  25.041  0.00  0.00     0.082 H 
BRANCH  58  61
ATOM     61  C35 non d ame     -31.954   9.478  23.932  0.00  0.00    -0.034 A 
ATOM     62  C30 non d ame     -31.602   8.321  23.244  0.00  0.00    -0.075 A 
ATOM     63  C31 non d ame     -30.527   8.338  22.355  0.00  0.00    -0.082 A 
ATOM     64  H49 non d ame     -32.167   7.403  23.400  0.00  0.00     0.084 H 
ATOM     65  C32 non d ame     -29.802   9.516  22.159  0.00  0.00    -0.083 A 
ATOM     66  H50 non d ame     -30.254   7.430  21.816  0.00  0.00     0.083 H 
ATOM     67  C33 non d ame     -30.154  10.667  22.851  0.00  0.00    -0.082 A 
ATOM     68  H51 non d ame     -28.961   9.537  21.466  0.00  0.00     0.083 H 
ATOM     69  C34 non d ame     -31.229  10.655  23.738  0.00  0.00    -0.075 A 
ATOM     70  H52 non d ame     -29.585  11.584  22.697  0.00  0.00     0.083 H 
ATOM     71  H53 non d ame     -31.501  11.564  24.277  0.00  0.00     0.084 H 
ENDBRANCH  58  61
ENDBRANCH  57  58
ENDBRANCH  55  57
ENDBRANCH  52  55
ENDBRANCH  49  52
ENDBRANCH  47  49
BRANCH  47  72
ATOM     72  C24 non d ame     -33.589   3.333  27.955  0.00  0.00    -0.039 C 
ATOM     73  H35 non d ame     -32.784   2.616  27.788  0.00  0.00     0.036 H 
ATOM     74  H36 non d ame     -34.306   3.169  28.759  0.00  0.00     0.036 H 
BRANCH  72  75
ATOM     75  C25 non d ame     -34.423   3.434  26.591  0.00  0.00    -0.001 C 
ATOM     76  C26 non d ame     -36.033   3.479  26.923  0.00  0.00    -0.035 C 
ATOM     77  C27 non d ame     -36.659   2.539  26.176  0.00  0.00     0.085 C 
ATOM     78  H38 non d ame     -36.213   3.154  27.947  0.00  0.00     0.036 H 
ATOM     79  H39 non d ame     -36.462   4.415  26.564  0.00  0.00     0.036 H 
ATOM     80  N5  non d ame     -35.587   1.637  25.612  0.00  0.00    -0.049 N 
ATOM     81  H40 non d ame     -37.270   1.969  26.877  0.00  0.00     0.075 H 
ATOM     82  H41 non d ame     -37.132   3.082  25.358  0.00  0.00     0.075 H 
ATOM     83  C28 non d ame     -34.191   2.420  25.825  0.00  0.00     0.193 C 
ATOM     84  H42 non d ame     -35.580   0.806  26.185  0.00  0.00     0.280 HD
ATOM     85  H43 non d ame     -35.767   1.565  24.620  0.00  0.00     0.280 HD
ATOM     86  H44 non d ame     -33.700   2.914  24.988  0.00  0.00     0.129 H 
ATOM     87  H37 non d ame     -34.032   4.201  25.924  0.00  0.00     0.046 H 
BRANCH  83  88
ATOM     88  O6  non d ame     -33.211   1.539  26.378  0.00  0.00    -0.369 OA
ATOM     89  H45 non d ame     -32.537   2.053  26.828  0.00  0.00     0.212 HD
ENDBRANCH  83  88
ENDBRANCH  72  75
ENDBRANCH  47  72
ENDBRANCH  45  47
ENDBRANCH   1  43
BRANCH   1  90
ATOM     90  C16 non d ame     -36.533   5.635  31.202  0.00  0.00    -0.035 C 
ATOM     91  H21 non d ame     -36.371   4.596  30.918  0.00  0.00     0.037 H 
ATOM     92  H22 non d ame     -36.926   5.875  32.189  0.00  0.00     0.037 H 
BRANCH  90  93
ATOM     93  C17 non d ame     -37.546   6.221  30.167  0.00  0.00    -0.059 C 
ATOM     94  H23 non d ame     -36.977   6.789  29.432  0.00  0.00     0.038 H 
BRANCH  93  95
ATOM     95  C18 non d ame     -38.325   5.100  29.407  0.00  0.00    -0.073 C 
ATOM     96  H24 non d ame     -38.633   4.329  30.112  0.00  0.00     0.028 H 
ATOM     97  H25 non d ame     -39.207   5.530  28.932  0.00  0.00     0.028 H 
ATOM     98  H26 non d ame     -37.680   4.661  28.646  0.00  0.00     0.028 H 
ENDBRANCH  93  95
BRANCH  93  99
ATOM     99  C19 non d ame     -38.515   7.194  30.843  0.00  0.00    -0.073 C 
ATOM    100  H27 non d ame     -38.148   8.214  30.725  0.00  0.00     0.028 H 
ATOM    101  H28 non d ame     -39.499   7.108  30.381  0.00  0.00     0.028 H 
ATOM    102  H29 non d ame     -38.591   6.955  31.903  0.00  0.00     0.028 H 
ENDBRANCH  93  99
ENDBRANCH  90  93
ENDBRANCH   1  90
TORSDOF 26
ENDMDL
MODEL 12
REMARK VINA RESULT:      -7.3      2.971     10.572
REMARK  26 active torsions:
REMARK  status: ('A' for Active; 'I' for Inactive)
REMARK    1  A    between atoms: C2_2  and  C3_3 
REMARK    2  A    between atoms: C4_6  and  C5_7 
REMARK       I    between atoms: C5_7  and  N2_9 
REMARK    3  A    between atoms: N2_9  and  C6_10 
REMARK    4  A    between atoms: C6_10  and  C7_11 
REMARK    5  A    between atoms: C6_10  and  C8_13 
REMARK       I    between atoms: C7_11  and  N3_14 
REMARK    6  A    between atoms: N3_14  and  C9_15 
REMARK    7  A    between atoms: C9_15  and  C10_16 
REMARK    8  A    between atoms: C9_15  and  C11_18 
REMARK       I    between atoms: C10_16  and  N4_21 
REMARK    9  A    between atoms: C11_18  and  C12_19 
REMARK   10  A    between atoms: C11_18  and  C13_20 
REMARK   11  A    between atoms: N4_21  and  C14_22 
REMARK   12  A    between atoms: C14_22  and  C15_23 
REMARK   13  A    between atoms: C14_22  and  C16_25 
REMARK       I    between atoms: C15_23  and  N6_40 
REMARK   14  A    between atoms: C16_25  and  C17_26 
REMARK   15  A    between atoms: C17_26  and  C18_27 
REMARK   16  A    between atoms: C17_26  and  C19_28 
REMARK   17  A    between atoms: C20_29  and  C21_30 
REMARK   18  A    between atoms: C20_29  and  C24_33 
REMARK   19  A    between atoms: C20_29  and  N6_40 
REMARK   20  A    between atoms: C21_30  and  C22_31 
REMARK   21  A    between atoms: C22_31  and  C23_32 
REMARK   22  A    between atoms: C23_32  and  O8_43 
REMARK   23  A    between atoms: C24_33  and  C25_34 
REMARK   24  A    between atoms: C28_38  and  O6_39 
REMARK   25  A    between atoms: C29_42  and  O8_43 
REMARK   26  A    between atoms: C29_42  and  C35_49 
ROOT
ATOM      1  C14 non d ame     -32.961  10.640  29.863  0.00  0.00     0.089 C 
ATOM      2  H20 non d ame     -31.929  10.314  29.731  0.00  0.00     0.087 H 
ENDROOT
BRANCH   1   3
ATOM      3  N4  non d ame     -33.526  10.848  28.539  0.00  0.00    -0.346 N 
ATOM      4  C10 non d ame     -32.630  10.904  27.327  0.00  0.00     0.241 C 
ATOM      5  O4  non d ame     -31.455  10.783  27.444  0.00  0.00    -0.271 OA
ATOM      6  H19 non d ame     -34.528  10.951  28.461  0.00  0.00     0.163 HD
BRANCH   4   7
ATOM      7  C9  non d ame     -33.233  11.114  25.964  0.00  0.00     0.092 C 
ATOM      8  H11 non d ame     -34.312  10.961  26.021  0.00  0.00     0.088 H 
BRANCH   7   9
ATOM      9  N3  non d ame     -33.014  12.500  25.540  0.00  0.00    -0.346 N 
ATOM     10  C7  non d ame     -33.701  13.576  26.210  0.00  0.00     0.240 C 
ATOM     11  O3  non d ame     -34.436  13.345  27.091  0.00  0.00    -0.271 OA
ATOM     12  H10 non d ame     -32.385  12.715  24.780  0.00  0.00     0.163 HD
BRANCH  10  13
ATOM     13  C6  non d ame     -33.466  15.049  25.752  0.00  0.00     0.086 C 
ATOM     14  H6  non d ame     -32.816  15.603  26.429  0.00  0.00     0.086 H 
BRANCH  13  15
ATOM     15  N2  non d ame     -32.805  15.040  24.457  0.00  0.00    -0.343 N 
ATOM     16  C5  non d ame     -31.519  15.724  24.299  0.00  0.00     0.273 C 
ATOM     17  O2  non d ame     -31.027  16.281  25.218  0.00  0.00    -0.266 OA
ATOM     18  H5  non d ame     -33.234  14.565  23.676  0.00  0.00     0.163 HD
BRANCH  16  19
ATOM     19  C4  non d ame     -30.808  15.721  22.937  0.00  0.00     0.154 A 
ATOM     20  C1  non d ame     -31.408  15.884  21.648  0.00  0.00    -0.017 A 
ATOM     21  C2  non d ame     -30.334  15.804  20.734  0.00  0.00     0.077 A 
ATOM     22  H1  non d ame     -32.461  16.037  21.411  0.00  0.00     0.091 H 
ATOM     23  O1  non d ame     -29.248  15.619  21.427  0.00  0.00    -0.218 OA
ATOM     24  N1  non d ame     -29.500  15.566  22.715  0.00  0.00    -0.123 NA
BRANCH  21  25
ATOM     25  C3  non d ame     -30.429  15.916  19.218  0.00  0.00    -0.029 C 
ATOM     26  H2  non d ame     -29.472  15.643  18.772  0.00  0.00     0.036 H 
ATOM     27  H3  non d ame     -31.204  15.242  18.852  0.00  0.00     0.036 H 
ATOM     28  H4  non d ame     -30.679  16.940  18.944  0.00  0.00     0.036 H 
ENDBRANCH  21  25
ENDBRANCH  16  19
ENDBRANCH  13  15
BRANCH  13  29
ATOM     29  C8  non d ame     -34.789  15.765  25.650  0.00  0.00    -0.049 C 
ATOM     30  H7  non d ame     -35.292  15.739  26.617  0.00  0.00     0.030 H 
ATOM     31  H8  non d ame     -34.620  16.801  25.357  0.00  0.00     0.030 H 
ATOM     32  H9  non d ame     -35.412  15.273  24.903  0.00  0.00     0.030 H 
ENDBRANCH  13  29
ENDBRANCH  10  13
ENDBRANCH   7   9
BRANCH   7  33
ATOM     33  C11 non d ame     -32.560  10.149  24.945  0.00  0.00    -0.033 C 
ATOM     34  H12 non d ame     -32.052   9.371  25.516  0.00  0.00     0.042 H 
BRANCH  33  35
ATOM     35  C12 non d ame     -33.620   9.450  24.037  0.00  0.00    -0.071 C 
ATOM     36  H13 non d ame     -33.936   8.516  24.502  0.00  0.00     0.028 H 
ATOM     37  H14 non d ame     -34.482  10.105  23.915  0.00  0.00     0.028 H 
ATOM     38  H15 non d ame     -33.181   9.239  23.062  0.00  0.00     0.028 H 
ENDBRANCH  33  35
BRANCH  33  39
ATOM     39  C13 non d ame     -31.488  10.898  24.090  0.00  0.00    -0.071 C 
ATOM     40  H16 non d ame     -31.965  11.343  23.216  0.00  0.00     0.028 H 
ATOM     41  H17 non d ame     -31.025  11.682  24.691  0.00  0.00     0.028 H 
ATOM     42  H18 non d ame     -30.724  10.192  23.766  0.00  0.00     0.028 H 
ENDBRANCH  33  39
ENDBRANCH   7  33
ENDBRANCH   4   7
ENDBRANCH   1   3
BRANCH   1  43
ATOM     43  C15 non d ame     -33.821   9.580  30.609  0.00  0.00     0.240 C 
ATOM     44  O5  non d ame     -34.054   9.716  31.766  0.00  0.00    -0.271 OA
ATOM     45  N6  non d ame     -34.362   8.399  29.877  0.00  0.00    -0.355 N 
ATOM     46  H46 non d ame     -34.175   8.276  28.892  0.00  0.00     0.162 HD
BRANCH  45  47
ATOM     47  C20 non d ame     -35.180   7.400  30.600  0.00  0.00     0.013 C 
ATOM     48  H30 non d ame     -34.843   7.377  31.636  0.00  0.00     0.072 H 
BRANCH  47  49
ATOM     49  C21 non d ame     -34.988   6.042  29.963  0.00  0.00    -0.038 C 
ATOM     50  H31 non d ame     -34.331   5.491  30.639  0.00  0.00     0.036 H 
ATOM     51  H32 non d ame     -35.990   5.671  29.754  0.00  0.00     0.036 H 
BRANCH  49  52
ATOM     52  C22 non d ame     -34.256   6.114  28.606  0.00  0.00     0.018 C 
ATOM     53  H33 non d ame     -35.036   6.074  27.847  0.00  0.00     0.048 H 
ATOM     54  H34 non d ame     -33.602   6.986  28.670  0.00  0.00     0.048 H 
BRANCH  52  55
ATOM     55  C23 non d ame     -33.325   4.901  28.331  0.00  0.00     0.259 C 
ATOM     56  O7  non d ame     -32.932   4.227  29.227  0.00  0.00    -0.265 OA
BRANCH  55  57
ATOM     57  O8  non d ame     -32.935   4.612  26.994  0.00  0.00    -0.317 OA
BRANCH  57  58
ATOM     58  C29 non d ame     -33.876   5.045  26.006  0.00  0.00     0.052 C 
ATOM     59  H47 non d ame     -34.435   4.154  25.722  0.00  0.00     0.082 H 
ATOM     60  H48 non d ame     -34.394   5.897  26.446  0.00  0.00     0.082 H 
BRANCH  58  61
ATOM     61  C35 non d ame     -33.079   5.540  24.769  0.00  0.00    -0.034 A 
ATOM     62  C30 non d ame     -31.861   6.191  24.941  0.00  0.00    -0.075 A 
ATOM     63  C31 non d ame     -31.146   6.636  23.829  0.00  0.00    -0.082 A 
ATOM     64  H49 non d ame     -31.468   6.354  25.944  0.00  0.00     0.084 H 
ATOM     65  C32 non d ame     -31.653   6.430  22.544  0.00  0.00    -0.083 A 
ATOM     66  H50 non d ame     -30.191   7.145  23.967  0.00  0.00     0.083 H 
ATOM     67  C33 non d ame     -32.870   5.782  22.379  0.00  0.00    -0.082 A 
ATOM     68  H51 non d ame     -31.099   6.774  21.671  0.00  0.00     0.083 H 
ATOM     69  C34 non d ame     -33.587   5.334  23.486  0.00  0.00    -0.075 A 
ATOM     70  H52 non d ame     -33.264   5.624  21.374  0.00  0.00     0.083 H 
ATOM     71  H53 non d ame     -34.541   4.825  23.347  0.00  0.00     0.084 H 
ENDBRANCH  58  61
ENDBRANCH  57  58
ENDBRANCH  55  57
ENDBRANCH  52  55
ENDBRANCH  49  52
ENDBRANCH  47  49
BRANCH  47  72
ATOM     72  C24 non d ame     -36.655   7.792  30.530  0.00  0.00    -0.039 C 
ATOM     73  H35 non d ame     -37.195   6.858  30.370  0.00  0.00     0.036 H 
ATOM     74  H36 non d ame     -36.840   8.382  31.428  0.00  0.00     0.036 H 
BRANCH  72  75
ATOM     75  C25 non d ame     -36.959   8.737  29.273  0.00  0.00    -0.001 C 
ATOM     76  C26 non d ame     -37.409  10.230  29.791  0.00  0.00    -0.035 C 
ATOM     77  C27 non d ame     -38.568  10.574  29.180  0.00  0.00     0.085 C 
ATOM     78  H38 non d ame     -37.678  10.195  30.847  0.00  0.00     0.036 H 
ATOM     79  H39 non d ame     -36.701  10.979  29.434  0.00  0.00     0.036 H 
ATOM     80  N5  non d ame     -39.119   9.321  28.544  0.00  0.00    -0.049 N 
ATOM     81  H40 non d ame     -39.237  10.891  29.981  0.00  0.00     0.075 H 
ATOM     82  H41 non d ame     -38.286  11.276  28.395  0.00  0.00     0.075 H 
ATOM     83  C28 non d ame     -37.909   8.253  28.543  0.00  0.00     0.193 C 
ATOM     84  H42 non d ame     -39.846   8.983  29.159  0.00  0.00     0.280 HD
ATOM     85  H43 non d ame     -39.339   9.559  27.587  0.00  0.00     0.280 HD
ATOM     86  H44 non d ame     -37.363   8.035  27.626  0.00  0.00     0.129 H 
ATOM     87  H37 non d ame     -36.172   8.689  28.520  0.00  0.00     0.046 H 
BRANCH  83  88
ATOM     88  O6  non d ame     -38.367   6.988  29.024  0.00  0.00    -0.369 OA
ATOM     89  H45 non d ame     -39.238   6.806  28.666  0.00  0.00     0.212 HD
ENDBRANCH  83  88
ENDBRANCH  72  75
ENDBRANCH  47  72
ENDBRANCH  45  47
ENDBRANCH   1  43
BRANCH   1  90
ATOM     90  C16 non d ame     -32.992  11.953  30.628  0.00  0.00    -0.035 C 
ATOM     91  H21 non d ame     -33.652  12.605  30.056  0.00  0.00     0.037 H 
ATOM     92  H22 non d ame     -33.248  11.685  31.653  0.00  0.00     0.037 H 
BRANCH  90  93
ATOM     93  C17 non d ame     -31.609  12.675  30.692  0.00  0.00    -0.059 C 
ATOM     94  H23 non d ame     -31.583  13.261  31.610  0.00  0.00     0.038 H 
BRANCH  93  95
ATOM     95  C18 non d ame     -30.419  11.665  30.736  0.00  0.00    -0.073 C 
ATOM     96  H24 non d ame     -29.867  11.793  31.667  0.00  0.00     0.028 H 
ATOM     97  H25 non d ame     -30.805  10.646  30.682  0.00  0.00     0.028 H 
ATOM     98  H26 non d ame     -29.755  11.847  29.892  0.00  0.00     0.028 H 
ENDBRANCH  93  95
BRANCH  93  99
ATOM     99  C19 non d ame     -31.449  13.653  29.525  0.00  0.00    -0.073 C 
ATOM    100  H27 non d ame     -31.869  13.212  28.620  0.00  0.00     0.028 H 
ATOM    101  H28 non d ame     -31.974  14.581  29.753  0.00  0.00     0.028 H 
ATOM    102  H29 non d ame     -30.391  13.865  29.370  0.00  0.00     0.028 H 
ENDBRANCH  93  99
ENDBRANCH  90  93
ENDBRANCH   1  90
TORSDOF 26
ENDMDL
MODEL 13
REMARK VINA RESULT:      -7.2      3.149      9.808
REMARK  26 active torsions:
REMARK  status: ('A' for Active; 'I' for Inactive)
REMARK    1  A    between atoms: C2_2  and  C3_3 
REMARK    2  A    between atoms: C4_6  and  C5_7 
REMARK       I    between atoms: C5_7  and  N2_9 
REMARK    3  A    between atoms: N2_9  and  C6_10 
REMARK    4  A    between atoms: C6_10  and  C7_11 
REMARK    5  A    between atoms: C6_10  and  C8_13 
REMARK       I    between atoms: C7_11  and  N3_14 
REMARK    6  A    between atoms: N3_14  and  C9_15 
REMARK    7  A    between atoms: C9_15  and  C10_16 
REMARK    8  A    between atoms: C9_15  and  C11_18 
REMARK       I    between atoms: C10_16  and  N4_21 
REMARK    9  A    between atoms: C11_18  and  C12_19 
REMARK   10  A    between atoms: C11_18  and  C13_20 
REMARK   11  A    between atoms: N4_21  and  C14_22 
REMARK   12  A    between atoms: C14_22  and  C15_23 
REMARK   13  A    between atoms: C14_22  and  C16_25 
REMARK       I    between atoms: C15_23  and  N6_40 
REMARK   14  A    between atoms: C16_25  and  C17_26 
REMARK   15  A    between atoms: C17_26  and  C18_27 
REMARK   16  A    between atoms: C17_26  and  C19_28 
REMARK   17  A    between atoms: C20_29  and  C21_30 
REMARK   18  A    between atoms: C20_29  and  C24_33 
REMARK   19  A    between atoms: C20_29  and  N6_40 
REMARK   20  A    between atoms: C21_30  and  C22_31 
REMARK   21  A    between atoms: C22_31  and  C23_32 
REMARK   22  A    between atoms: C23_32  and  O8_43 
REMARK   23  A    between atoms: C24_33  and  C25_34 
REMARK   24  A    between atoms: C28_38  and  O6_39 
REMARK   25  A    between atoms: C29_42  and  O8_43 
REMARK   26  A    between atoms: C29_42  and  C35_49 
ROOT
ATOM      1  C14 non d ame     -31.725  14.908  24.695  0.00  0.00     0.089 C 
ATOM      2  H20 non d ame     -32.539  14.528  24.077  0.00  0.00     0.087 H 
ENDROOT
BRANCH   1   3
ATOM      3  N4  non d ame     -32.078  16.260  25.100  0.00  0.00    -0.346 N 
ATOM      4  C10 non d ame     -33.521  16.634  25.331  0.00  0.00     0.241 C 
ATOM      5  O4  non d ame     -34.381  15.831  25.180  0.00  0.00    -0.271 OA
ATOM      6  H19 non d ame     -31.331  16.930  25.221  0.00  0.00     0.163 HD
BRANCH   4   7
ATOM      7  C9  non d ame     -33.867  18.037  25.756  0.00  0.00     0.092 C 
ATOM      8  H11 non d ame     -33.808  18.699  24.892  0.00  0.00     0.088 H 
BRANCH   7   9
ATOM      9  N3  non d ame     -35.250  18.075  26.238  0.00  0.00    -0.346 N 
ATOM     10  C7  non d ame     -36.226  18.896  25.565  0.00  0.00     0.240 C 
ATOM     11  O3  non d ame     -35.914  19.535  24.635  0.00  0.00    -0.271 OA
ATOM     12  H10 non d ame     -35.534  17.531  27.040  0.00  0.00     0.163 HD
BRANCH  10  13
ATOM     13  C6  non d ame     -37.697  18.935  26.085  0.00  0.00     0.086 C 
ATOM     14  H6  non d ame     -38.197  17.970  26.007  0.00  0.00     0.086 H 
BRANCH  13  15
ATOM     15  N2  non d ame     -37.689  19.287  27.495  0.00  0.00    -0.343 N 
ATOM     16  C5  non d ame     -38.060  18.280  28.492  0.00  0.00     0.273 C 
ATOM     17  O2  non d ame     -38.366  17.192  28.149  0.00  0.00    -0.266 OA
ATOM     18  H5  non d ame     -37.430  20.221  27.779  0.00  0.00     0.163 HD
BRANCH  16  19
ATOM     19  C4  non d ame     -38.054  18.638  29.986  0.00  0.00     0.154 A 
ATOM     20  C1  non d ame     -37.256  19.633  30.634  0.00  0.00    -0.017 A 
ATOM     21  C2  non d ame     -37.624  19.565  31.997  0.00  0.00     0.077 A 
ATOM     22  H1  non d ame     -36.521  20.301  30.186  0.00  0.00     0.091 H 
ATOM     23  O1  non d ame     -38.531  18.638  32.106  0.00  0.00    -0.218 OA
ATOM     24  N1  non d ame     -38.798  18.083  30.947  0.00  0.00    -0.123 NA
BRANCH  21  25
ATOM     25  C3  non d ame     -37.065  20.420  33.126  0.00  0.00    -0.029 C 
ATOM     26  H2  non d ame     -36.203  19.920  33.568  0.00  0.00     0.036 H 
ATOM     27  H3  non d ame     -36.759  21.389  32.731  0.00  0.00     0.036 H 
ATOM     28  H4  non d ame     -37.831  20.564  33.887  0.00  0.00     0.036 H 
ENDBRANCH  21  25
ENDBRANCH  16  19
ENDBRANCH  13  15
BRANCH  13  29
ATOM     29  C8  non d ame     -38.483  19.957  25.302  0.00  0.00    -0.049 C 
ATOM     30  H7  non d ame     -39.499  20.010  25.691  0.00  0.00     0.030 H 
ATOM     31  H8  non d ame     -38.006  20.933  25.398  0.00  0.00     0.030 H 
ATOM     32  H9  non d ame     -38.510  19.668  24.252  0.00  0.00     0.030 H 
ENDBRANCH  13  29
ENDBRANCH  10  13
ENDBRANCH   7   9
BRANCH   7  33
ATOM     33  C11 non d ame     -32.909  18.483  26.899  0.00  0.00    -0.033 C 
ATOM     34  H12 non d ame     -31.888  18.386  26.528  0.00  0.00     0.042 H 
BRANCH  33  35
ATOM     35  C12 non d ame     -33.132  19.981  27.277  0.00  0.00    -0.071 C 
ATOM     36  H13 non d ame     -32.343  20.305  27.955  0.00  0.00     0.028 H 
ATOM     37  H14 non d ame     -33.108  20.590  26.374  0.00  0.00     0.028 H 
ATOM     38  H15 non d ame     -34.099  20.092  27.767  0.00  0.00     0.028 H 
ENDBRANCH  33  35
BRANCH  33  39
ATOM     39  C13 non d ame     -33.058  17.555  28.148  0.00  0.00    -0.071 C 
ATOM     40  H16 non d ame     -33.050  16.513  27.830  0.00  0.00     0.028 H 
ATOM     41  H17 non d ame     -32.230  17.733  28.834  0.00  0.00     0.028 H 
ATOM     42  H18 non d ame     -33.999  17.774  28.652  0.00  0.00     0.028 H 
ENDBRANCH  33  39
ENDBRANCH   7  33
ENDBRANCH   4   7
ENDBRANCH   1   3
BRANCH   1  43
ATOM     43  C15 non d ame     -31.506  14.048  25.972  0.00  0.00     0.240 C 
ATOM     44  O5  non d ame     -30.752  14.421  26.813  0.00  0.00    -0.271 OA
ATOM     45  N6  non d ame     -32.243  12.766  26.153  0.00  0.00    -0.355 N 
ATOM     46  H46 non d ame     -32.890  12.442  25.448  0.00  0.00     0.162 HD
BRANCH  45  47
ATOM     47  C20 non d ame     -32.026  11.960  27.375  0.00  0.00     0.013 C 
ATOM     48  H30 non d ame     -31.089  12.286  27.829  0.00  0.00     0.072 H 
BRANCH  47  49
ATOM     49  C21 non d ame     -31.937  10.498  27.000  0.00  0.00    -0.038 C 
ATOM     50  H31 non d ame     -31.429  10.472  26.034  0.00  0.00     0.036 H 
ATOM     51  H32 non d ame     -31.493  10.000  27.862  0.00  0.00     0.036 H 
BRANCH  49  52
ATOM     52  C22 non d ame     -33.320   9.849  26.783  0.00  0.00     0.018 C 
ATOM     53  H33 non d ame     -33.716   9.658  27.780  0.00  0.00     0.048 H 
ATOM     54  H34 non d ame     -33.855  10.515  26.104  0.00  0.00     0.048 H 
BRANCH  52  55
ATOM     55  C23 non d ame     -33.261   8.469  26.073  0.00  0.00     0.259 C 
ATOM     56  O7  non d ame     -32.797   7.525  26.625  0.00  0.00    -0.265 OA
BRANCH  55  57
ATOM     57  O8  non d ame     -33.756   8.347  24.744  0.00  0.00    -0.317 OA
BRANCH  57  58
ATOM     58  C29 non d ame     -33.608   9.534  23.958  0.00  0.00     0.052 C 
ATOM     59  H47 non d ame     -34.353   9.457  23.167  0.00  0.00     0.082 H 
ATOM     60  H48 non d ame     -33.645  10.363  24.664  0.00  0.00     0.082 H 
BRANCH  58  61
ATOM     61  C35 non d ame     -32.198   9.505  23.309  0.00  0.00    -0.034 A 
ATOM     62  C30 non d ame     -31.331  10.579  23.480  0.00  0.00    -0.075 A 
ATOM     63  C31 non d ame     -30.064  10.554  22.897  0.00  0.00    -0.082 A 
ATOM     64  H49 non d ame     -31.642  11.441  24.071  0.00  0.00     0.084 H 
ATOM     65  C32 non d ame     -29.668   9.450  22.137  0.00  0.00    -0.083 A 
ATOM     66  H50 non d ame     -29.386  11.397  23.034  0.00  0.00     0.083 H 
ATOM     67  C33 non d ame     -30.538   8.382  21.966  0.00  0.00    -0.082 A 
ATOM     68  H51 non d ame     -28.680   9.422  21.679  0.00  0.00     0.083 H 
ATOM     69  C34 non d ame     -31.804   8.402  22.549  0.00  0.00    -0.075 A 
ATOM     70  H52 non d ame     -30.227   7.523  21.371  0.00  0.00     0.083 H 
ATOM     71  H53 non d ame     -32.481   7.559  22.411  0.00  0.00     0.084 H 
ENDBRANCH  58  61
ENDBRANCH  57  58
ENDBRANCH  55  57
ENDBRANCH  52  55
ENDBRANCH  49  52
ENDBRANCH  47  49
BRANCH  47  72
ATOM     72  C24 non d ame     -33.186  12.169  28.345  0.00  0.00    -0.039 C 
ATOM     73  H35 non d ame     -33.769  12.990  27.927  0.00  0.00     0.036 H 
ATOM     74  H36 non d ame     -33.641  11.186  28.468  0.00  0.00     0.036 H 
BRANCH  72  75
ATOM     75  C25 non d ame     -32.675  12.638  29.789  0.00  0.00    -0.001 C 
ATOM     76  C26 non d ame     -31.039  12.801  29.777  0.00  0.00    -0.035 C 
ATOM     77  C27 non d ame     -30.524  12.109  30.821  0.00  0.00     0.085 C 
ATOM     78  H38 non d ame     -30.619  12.299  28.906  0.00  0.00     0.036 H 
ATOM     79  H39 non d ame     -30.765  13.834  29.996  0.00  0.00     0.036 H 
ATOM     80  N5  non d ame     -31.625  11.222  31.349  0.00  0.00    -0.049 N 
ATOM     81  H40 non d ame     -29.737  11.484  30.396  0.00  0.00     0.075 H 
ATOM     82  H41 non d ame     -30.278  12.857  31.574  0.00  0.00     0.075 H 
ATOM     83  C28 non d ame     -32.994  11.779  30.700  0.00  0.00     0.193 C 
ATOM     84  H42 non d ame     -31.449  10.297  30.983  0.00  0.00     0.280 HD
ATOM     85  H43 non d ame     -31.658  11.372  32.348  0.00  0.00     0.280 HD
ATOM     86  H44 non d ame     -33.689  12.371  31.294  0.00  0.00     0.129 H 
ATOM     87  H37 non d ame     -33.254  13.474  30.181  0.00  0.00     0.046 H 
BRANCH  83  88
ATOM     88  O6  non d ame     -33.767  10.698  30.174  0.00  0.00    -0.369 OA
ATOM     89  H45 non d ame     -33.818   9.995  30.825  0.00  0.00     0.212 HD
ENDBRANCH  83  88
ENDBRANCH  72  75
ENDBRANCH  47  72
ENDBRANCH  45  47
ENDBRANCH   1  43
BRANCH   1  90
ATOM     90  C16 non d ame     -30.440  14.953  23.883  0.00  0.00    -0.035 C 
ATOM     91  H21 non d ame     -30.055  15.964  24.009  0.00  0.00     0.037 H 
ATOM     92  H22 non d ame     -29.854  14.101  24.223  0.00  0.00     0.037 H 
BRANCH  90  93
ATOM     93  C17 non d ame     -30.661  14.755  22.349  0.00  0.00    -0.059 C 
ATOM     94  H23 non d ame     -31.520  14.098  22.220  0.00  0.00     0.038 H 
BRANCH  93  95
ATOM     95  C18 non d ame     -30.975  16.100  21.620  0.00  0.00    -0.073 C 
ATOM     96  H24 non d ame     -30.510  16.924  22.161  0.00  0.00     0.028 H 
ATOM     97  H25 non d ame     -30.580  16.064  20.605  0.00  0.00     0.028 H 
ATOM     98  H26 non d ame     -32.053  16.251  21.584  0.00  0.00     0.028 H 
ENDBRANCH  93  95
BRANCH  93  99
ATOM     99  C19 non d ame     -29.456  14.058  21.710  0.00  0.00    -0.073 C 
ATOM    100  H27 non d ame     -28.866  14.788  21.156  0.00  0.00     0.028 H 
ATOM    101  H28 non d ame     -28.840  13.610  22.489  0.00  0.00     0.028 H 
ATOM    102  H29 non d ame     -29.805  13.281  21.031  0.00  0.00     0.028 H 
ENDBRANCH  93  99
ENDBRANCH  90  93
ENDBRANCH   1  90
TORSDOF 26
ENDMDL
MODEL 14
REMARK VINA RESULT:      -7.2      2.899      9.779
REMARK  26 active torsions:
REMARK  status: ('A' for Active; 'I' for Inactive)
REMARK    1  A    between atoms: C2_2  and  C3_3 
REMARK    2  A    between atoms: C4_6  and  C5_7 
REMARK       I    between atoms: C5_7  and  N2_9 
REMARK    3  A    between atoms: N2_9  and  C6_10 
REMARK    4  A    between atoms: C6_10  and  C7_11 
REMARK    5  A    between atoms: C6_10  and  C8_13 
REMARK       I    between atoms: C7_11  and  N3_14 
REMARK    6  A    between atoms: N3_14  and  C9_15 
REMARK    7  A    between atoms: C9_15  and  C10_16 
REMARK    8  A    between atoms: C9_15  and  C11_18 
REMARK       I    between atoms: C10_16  and  N4_21 
REMARK    9  A    between atoms: C11_18  and  C12_19 
REMARK   10  A    between atoms: C11_18  and  C13_20 
REMARK   11  A    between atoms: N4_21  and  C14_22 
REMARK   12  A    between atoms: C14_22  and  C15_23 
REMARK   13  A    between atoms: C14_22  and  C16_25 
REMARK       I    between atoms: C15_23  and  N6_40 
REMARK   14  A    between atoms: C16_25  and  C17_26 
REMARK   15  A    between atoms: C17_26  and  C18_27 
REMARK   16  A    between atoms: C17_26  and  C19_28 
REMARK   17  A    between atoms: C20_29  and  C21_30 
REMARK   18  A    between atoms: C20_29  and  C24_33 
REMARK   19  A    between atoms: C20_29  and  N6_40 
REMARK   20  A    between atoms: C21_30  and  C22_31 
REMARK   21  A    between atoms: C22_31  and  C23_32 
REMARK   22  A    between atoms: C23_32  and  O8_43 
REMARK   23  A    between atoms: C24_33  and  C25_34 
REMARK   24  A    between atoms: C28_38  and  O6_39 
REMARK   25  A    between atoms: C29_42  and  O8_43 
REMARK   26  A    between atoms: C29_42  and  C35_49 
ROOT
ATOM      1  C14 non d ame     -36.072  13.386  26.250  0.00  0.00     0.089 C 
ATOM      2  H20 non d ame     -36.754  13.226  27.086  0.00  0.00     0.087 H 
ENDROOT
BRANCH   1   3
ATOM      3  N4  non d ame     -35.810  14.815  26.167  0.00  0.00    -0.346 N 
ATOM      4  C10 non d ame     -36.861  15.809  26.593  0.00  0.00     0.241 C 
ATOM      5  O4  non d ame     -37.912  15.435  26.997  0.00  0.00    -0.271 OA
ATOM      6  H19 non d ame     -34.910  15.113  25.818  0.00  0.00     0.163 HD
BRANCH   4   7
ATOM      7  C9  non d ame     -36.570  17.284  26.506  0.00  0.00     0.092 C 
ATOM      8  H11 non d ame     -36.832  17.759  27.452  0.00  0.00     0.088 H 
BRANCH   7   9
ATOM      9  N3  non d ame     -35.133  17.488  26.301  0.00  0.00    -0.346 N 
ATOM     10  C7  non d ame     -34.286  17.823  27.419  0.00  0.00     0.240 C 
ATOM     11  O3  non d ame     -34.745  17.934  28.491  0.00  0.00    -0.271 OA
ATOM     12  H10 non d ame     -34.723  17.397  25.383  0.00  0.00     0.163 HD
BRANCH  10  13
ATOM     13  C6  non d ame     -32.758  18.042  27.195  0.00  0.00     0.086 C 
ATOM     14  H6  non d ame     -32.146  17.540  27.944  0.00  0.00     0.086 H 
BRANCH  13  15
ATOM     15  N2  non d ame     -32.385  17.477  25.908  0.00  0.00    -0.343 N 
ATOM     16  C5  non d ame     -31.797  16.136  25.852  0.00  0.00     0.273 C 
ATOM     17  O2  non d ame     -31.627  15.522  26.846  0.00  0.00    -0.266 OA
ATOM     18  H5  non d ame     -32.531  18.011  25.064  0.00  0.00     0.163 HD
BRANCH  16  19
ATOM     19  C4  non d ame     -31.400  15.527  24.498  0.00  0.00     0.154 A 
ATOM     20  C1  non d ame     -30.602  14.361  24.275  0.00  0.00    -0.017 A 
ATOM     21  C2  non d ame     -30.534  14.229  22.870  0.00  0.00     0.077 A 
ATOM     22  H1  non d ame     -30.140  13.711  25.019  0.00  0.00     0.091 H 
ATOM     23  O1  non d ame     -31.220  15.209  22.356  0.00  0.00    -0.218 OA
ATOM     24  N1  non d ame     -31.734  15.979  23.286  0.00  0.00    -0.123 NA
BRANCH  21  25
ATOM     25  C3  non d ame     -29.796  13.141  22.101  0.00  0.00    -0.029 C 
ATOM     26  H2  non d ame     -29.466  12.367  22.794  0.00  0.00     0.036 H 
ATOM     27  H3  non d ame     -30.465  12.704  21.360  0.00  0.00     0.036 H 
ATOM     28  H4  non d ame     -28.931  13.573  21.601  0.00  0.00     0.036 H 
ENDBRANCH  21  25
ENDBRANCH  16  19
ENDBRANCH  13  15
BRANCH  13  29
ATOM     29  C8  non d ame     -32.449  19.517  27.221  0.00  0.00    -0.049 C 
ATOM     30  H7  non d ame     -31.468  19.676  27.666  0.00  0.00     0.030 H 
ATOM     31  H8  non d ame     -32.452  19.906  26.202  0.00  0.00     0.030 H 
ATOM     32  H9  non d ame     -33.205  20.036  27.810  0.00  0.00     0.030 H 
ENDBRANCH  13  29
ENDBRANCH  10  13
ENDBRANCH   7   9
BRANCH   7  33
ATOM     33  C11 non d ame     -37.354  17.897  25.309  0.00  0.00    -0.033 C 
ATOM     34  H12 non d ame     -38.384  18.047  25.633  0.00  0.00     0.042 H 
BRANCH  33  35
ATOM     35  C12 non d ame     -36.781  19.292  24.906  0.00  0.00    -0.071 C 
ATOM     36  H13 non d ame     -37.534  19.846  24.347  0.00  0.00     0.028 H 
ATOM     37  H14 non d ame     -36.514  19.847  25.805  0.00  0.00     0.028 H 
ATOM     38  H15 non d ame     -35.895  19.156  24.286  0.00  0.00     0.028 H 
ENDBRANCH  33  35
BRANCH  33  39
ATOM     39  C13 non d ame     -37.370  16.918  24.090  0.00  0.00    -0.071 C 
ATOM     40  H16 non d ame     -36.346  16.660  23.818  0.00  0.00     0.028 H 
ATOM     41  H17 non d ame     -37.915  16.012  24.358  0.00  0.00     0.028 H 
ATOM     42  H18 non d ame     -37.860  17.399  23.245  0.00  0.00     0.028 H 
ENDBRANCH  33  39
ENDBRANCH   7  33
ENDBRANCH   4   7
ENDBRANCH   1   3
BRANCH   1  43
ATOM     43  C15 non d ame     -34.720  12.644  26.445  0.00  0.00     0.240 C 
ATOM     44  O5  non d ame     -33.737  13.061  25.923  0.00  0.00    -0.271 OA
ATOM     45  N6  non d ame     -34.647  11.420  27.291  0.00  0.00    -0.355 N 
ATOM     46  H46 non d ame     -35.475  11.059  27.744  0.00  0.00     0.162 HD
BRANCH  45  47
ATOM     47  C20 non d ame     -33.352  10.726  27.468  0.00  0.00     0.013 C 
ATOM     48  H30 non d ame     -32.583  11.323  26.979  0.00  0.00     0.072 H 
BRANCH  47  49
ATOM     49  C21 non d ame     -33.427   9.357  26.831  0.00  0.00    -0.038 C 
ATOM     50  H31 non d ame     -34.490   9.121  26.764  0.00  0.00     0.036 H 
ATOM     51  H32 non d ame     -32.825   9.421  25.925  0.00  0.00     0.036 H 
BRANCH  49  52
ATOM     52  C22 non d ame     -32.789   8.254  27.703  0.00  0.00     0.018 C 
ATOM     53  H33 non d ame     -31.800   8.080  27.282  0.00  0.00     0.048 H 
ATOM     54  H34 non d ame     -32.890   8.598  28.733  0.00  0.00     0.048 H 
BRANCH  52  55
ATOM     55  C23 non d ame     -33.532   6.891  27.632  0.00  0.00     0.259 C 
ATOM     56  O7  non d ame     -33.536   6.258  26.626  0.00  0.00    -0.265 OA
BRANCH  55  57
ATOM     57  O8  non d ame     -34.222   6.413  28.780  0.00  0.00    -0.317 OA
BRANCH  57  58
ATOM     58  C29 non d ame     -35.599   6.799  28.833  0.00  0.00     0.052 C 
ATOM     59  H47 non d ame     -35.827   7.212  27.851  0.00  0.00     0.082 H 
ATOM     60  H48 non d ame     -36.137   5.923  29.196  0.00  0.00     0.082 H 
BRANCH  58  61
ATOM     61  C35 non d ame     -35.739   7.931  29.887  0.00  0.00    -0.034 A 
ATOM     62  C30 non d ame     -36.381   9.118  29.551  0.00  0.00    -0.075 A 
ATOM     63  C31 non d ame     -36.507  10.135  30.497  0.00  0.00    -0.082 A 
ATOM     64  H49 non d ame     -36.786   9.253  28.548  0.00  0.00     0.084 H 
ATOM     65  C32 non d ame     -35.984   9.962  31.782  0.00  0.00    -0.083 A 
ATOM     66  H50 non d ame     -37.012  11.064  30.232  0.00  0.00     0.083 H 
ATOM     67  C33 non d ame     -35.342   8.776  32.111  0.00  0.00    -0.082 A 
ATOM     68  H51 non d ame     -36.079  10.751  32.527  0.00  0.00     0.083 H 
ATOM     69  C34 non d ame     -35.216   7.757  31.169  0.00  0.00    -0.075 A 
ATOM     70  H52 non d ame     -34.933   8.644  33.113  0.00  0.00     0.083 H 
ATOM     71  H53 non d ame     -34.710   6.828  31.436  0.00  0.00     0.084 H 
ENDBRANCH  58  61
ENDBRANCH  57  58
ENDBRANCH  55  57
ENDBRANCH  52  55
ENDBRANCH  49  52
ENDBRANCH  47  49
BRANCH  47  72
ATOM     72  C24 non d ame     -33.044  10.580  28.957  0.00  0.00    -0.039 C 
ATOM     73  H35 non d ame     -33.891  10.036  29.376  0.00  0.00     0.036 H 
ATOM     74  H36 non d ame     -32.043  10.151  29.005  0.00  0.00     0.036 H 
BRANCH  72  75
ATOM     75  C25 non d ame     -32.984  12.002  29.692  0.00  0.00    -0.001 C 
ATOM     76  C26 non d ame     -31.866  12.962  28.963  0.00  0.00    -0.035 C 
ATOM     77  C27 non d ame     -31.030  13.455  29.908  0.00  0.00     0.085 C 
ATOM     78  H38 non d ame     -31.211  12.361  28.332  0.00  0.00     0.036 H 
ATOM     79  H39 non d ame     -32.346  13.853  28.558  0.00  0.00     0.036 H 
ATOM     80  N5  non d ame     -31.273  12.660  31.169  0.00  0.00    -0.049 N 
ATOM     81  H40 non d ame     -30.024  13.245  29.545  0.00  0.00     0.075 H 
ATOM     82  H41 non d ame     -31.348  14.484  30.071  0.00  0.00     0.075 H 
ATOM     83  C28 non d ame     -32.662  11.872  30.937  0.00  0.00     0.193 C 
ATOM     84  H42 non d ame     -30.526  11.984  31.230  0.00  0.00     0.280 HD
ATOM     85  H43 non d ame     -31.406  13.335  31.910  0.00  0.00     0.280 HD
ATOM     86  H44 non d ame     -33.580  12.213  31.414  0.00  0.00     0.129 H 
ATOM     87  H37 non d ame     -33.975  12.427  29.851  0.00  0.00     0.046 H 
BRANCH  83  88
ATOM     88  O6  non d ame     -32.521  10.501  31.316  0.00  0.00    -0.369 OA
ATOM     89  H45 non d ame     -32.732   9.939  30.568  0.00  0.00     0.212 HD
ENDBRANCH  83  88
ENDBRANCH  72  75
ENDBRANCH  47  72
ENDBRANCH  45  47
ENDBRANCH   1  43
BRANCH   1  90
ATOM     90  C16 non d ame     -36.727  12.926  24.957  0.00  0.00    -0.035 C 
ATOM     91  H21 non d ame     -36.881  13.832  24.373  0.00  0.00     0.037 H 
ATOM     92  H22 non d ame     -36.083  12.134  24.574  0.00  0.00     0.037 H 
BRANCH  90  93
ATOM     93  C17 non d ame     -38.138  12.288  25.161  0.00  0.00    -0.059 C 
ATOM     94  H23 non d ame     -38.166  11.358  24.594  0.00  0.00     0.038 H 
BRANCH  93  95
ATOM     95  C18 non d ame     -38.418  11.943  26.658  0.00  0.00    -0.073 C 
ATOM     96  H24 non d ame     -37.499  12.052  27.234  0.00  0.00     0.028 H 
ATOM     97  H25 non d ame     -39.175  12.622  27.052  0.00  0.00     0.028 H 
ATOM     98  H26 non d ame     -38.776  10.917  26.734  0.00  0.00     0.028 H 
ENDBRANCH  93  95
BRANCH  93  99
ATOM     99  C19 non d ame     -39.234  13.196  24.597  0.00  0.00    -0.073 C 
ATOM    100  H27 non d ame     -38.869  14.223  24.552  0.00  0.00     0.028 H 
ATOM    101  H28 non d ame     -39.502  12.863  23.594  0.00  0.00     0.028 H 
ATOM    102  H29 non d ame     -40.111  13.150  25.241  0.00  0.00     0.028 H 
ENDBRANCH  93  99
ENDBRANCH  90  93
ENDBRANCH   1  90
TORSDOF 26
ENDMDL
MODEL 15
REMARK VINA RESULT:      -7.2      2.677     11.265
REMARK  26 active torsions:
REMARK  status: ('A' for Active; 'I' for Inactive)
REMARK    1  A    between atoms: C2_2  and  C3_3 
REMARK    2  A    between atoms: C4_6  and  C5_7 
REMARK       I    between atoms: C5_7  and  N2_9 
REMARK    3  A    between atoms: N2_9  and  C6_10 
REMARK    4  A    between atoms: C6_10  and  C7_11 
REMARK    5  A    between atoms: C6_10  and  C8_13 
REMARK       I    between atoms: C7_11  and  N3_14 
REMARK    6  A    between atoms: N3_14  and  C9_15 
REMARK    7  A    between atoms: C9_15  and  C10_16 
REMARK    8  A    between atoms: C9_15  and  C11_18 
REMARK       I    between atoms: C10_16  and  N4_21 
REMARK    9  A    between atoms: C11_18  and  C12_19 
REMARK   10  A    between atoms: C11_18  and  C13_20 
REMARK   11  A    between atoms: N4_21  and  C14_22 
REMARK   12  A    between atoms: C14_22  and  C15_23 
REMARK   13  A    between atoms: C14_22  and  C16_25 
REMARK       I    between atoms: C15_23  and  N6_40 
REMARK   14  A    between atoms: C16_25  and  C17_26 
REMARK   15  A    between atoms: C17_26  and  C18_27 
REMARK   16  A    between atoms: C17_26  and  C19_28 
REMARK   17  A    between atoms: C20_29  and  C21_30 
REMARK   18  A    between atoms: C20_29  and  C24_33 
REMARK   19  A    between atoms: C20_29  and  N6_40 
REMARK   20  A    between atoms: C21_30  and  C22_31 
REMARK   21  A    between atoms: C22_31  and  C23_32 
REMARK   22  A    between atoms: C23_32  and  O8_43 
REMARK   23  A    between atoms: C24_33  and  C25_34 
REMARK   24  A    between atoms: C28_38  and  O6_39 
REMARK   25  A    between atoms: C29_42  and  O8_43 
REMARK   26  A    between atoms: C29_42  and  C35_49 
ROOT
ATOM      1  C14 non d ame     -33.176  10.201  27.552  0.00  0.00     0.089 C 
ATOM      2  H20 non d ame     -32.178  10.631  27.468  0.00  0.00     0.087 H 
ENDROOT
BRANCH   1   3
ATOM      3  N4  non d ame     -34.132  11.296  27.482  0.00  0.00    -0.346 N 
ATOM      4  C10 non d ame     -33.815  12.534  26.681  0.00  0.00     0.241 C 
ATOM      5  O4  non d ame     -32.783  12.628  26.104  0.00  0.00    -0.271 OA
ATOM      6  H19 non d ame     -35.004  11.198  27.982  0.00  0.00     0.163 HD
BRANCH   4   7
ATOM      7  C9  non d ame     -34.819  13.655  26.615  0.00  0.00     0.092 C 
ATOM      8  H11 non d ame     -35.157  13.894  27.623  0.00  0.00     0.088 H 
BRANCH   7   9
ATOM      9  N3  non d ame     -34.176  14.857  26.076  0.00  0.00    -0.346 N 
ATOM     10  C7  non d ame     -33.716  15.890  26.971  0.00  0.00     0.240 C 
ATOM     11  O3  non d ame     -33.857  15.772  28.127  0.00  0.00    -0.271 OA
ATOM     12  H10 non d ame     -34.049  14.974  25.082  0.00  0.00     0.163 HD
BRANCH  10  13
ATOM     13  C6  non d ame     -33.035  17.169  26.392  0.00  0.00     0.086 C 
ATOM     14  H6  non d ame     -32.198  17.513  26.999  0.00  0.00     0.086 H 
BRANCH  13  15
ATOM     15  N2  non d ame     -32.496  16.861  25.077  0.00  0.00    -0.343 N 
ATOM     16  C5  non d ame     -31.395  15.902  24.956  0.00  0.00     0.273 C 
ATOM     17  O2  non d ame     -30.949  15.386  25.921  0.00  0.00    -0.266 OA
ATOM     18  H5  non d ame     -32.880  17.310  24.258  0.00  0.00     0.163 HD
BRANCH  16  19
ATOM     19  C4  non d ame     -30.816  15.566  23.573  0.00  0.00     0.154 A 
ATOM     20  C1  non d ame     -31.333  15.963  22.299  0.00  0.00    -0.017 A 
ATOM     21  C2  non d ame     -30.445  15.402  21.355  0.00  0.00     0.077 A 
ATOM     22  H1  non d ame     -32.218  16.565  22.092  0.00  0.00     0.091 H 
ATOM     23  O1  non d ame     -29.527  14.763  22.019  0.00  0.00    -0.218 OA
ATOM     24  N1  non d ame     -29.723  14.844  23.315  0.00  0.00    -0.123 NA
BRANCH  21  25
ATOM     25  C3  non d ame     -30.544  15.526  19.840  0.00  0.00    -0.029 C 
ATOM     26  H2  non d ame     -31.588  15.644  19.552  0.00  0.00     0.036 H 
ATOM     27  H3  non d ame     -29.975  16.395  19.509  0.00  0.00     0.036 H 
ATOM     28  H4  non d ame     -30.139  14.628  19.375  0.00  0.00     0.036 H 
ENDBRANCH  21  25
ENDBRANCH  16  19
ENDBRANCH  13  15
BRANCH  13  29
ATOM     29  C8  non d ame     -34.050  18.279  26.286  0.00  0.00    -0.049 C 
ATOM     30  H7  non d ame     -33.564  19.184  25.923  0.00  0.00     0.030 H 
ATOM     31  H8  non d ame     -34.837  17.986  25.590  0.00  0.00     0.030 H 
ATOM     32  H9  non d ame     -34.485  18.468  27.268  0.00  0.00     0.030 H 
ENDBRANCH  13  29
ENDBRANCH  10  13
ENDBRANCH   7   9
BRANCH   7  33
ATOM     33  C11 non d ame     -35.998  13.241  25.687  0.00  0.00    -0.033 C 
ATOM     34  H12 non d ame     -35.689  12.348  25.141  0.00  0.00     0.042 H 
BRANCH  33  35
ATOM     35  C12 non d ame     -37.269  12.869  26.512  0.00  0.00    -0.071 C 
ATOM     36  H13 non d ame     -37.333  13.513  27.390  0.00  0.00     0.028 H 
ATOM     37  H14 non d ame     -38.156  13.007  25.895  0.00  0.00     0.028 H 
ATOM     38  H15 non d ame     -37.205  11.828  26.830  0.00  0.00     0.028 H 
ENDBRANCH  33  35
BRANCH  33  39
ATOM     39  C13 non d ame     -36.308  14.360  24.642  0.00  0.00    -0.071 C 
ATOM     40  H16 non d ame     -35.866  14.095  23.682  0.00  0.00     0.028 H 
ATOM     41  H17 non d ame     -37.388  14.464  24.530  0.00  0.00     0.028 H 
ATOM     42  H18 non d ame     -35.889  15.305  24.987  0.00  0.00     0.028 H 
ENDBRANCH  33  39
ENDBRANCH   7  33
ENDBRANCH   4   7
ENDBRANCH   1   3
BRANCH   1  43
ATOM     43  C15 non d ame     -33.484   9.200  26.402  0.00  0.00     0.240 C 
ATOM     44  O5  non d ame     -34.610   8.912  26.155  0.00  0.00    -0.271 OA
ATOM     45  N6  non d ame     -32.375   8.608  25.602  0.00  0.00    -0.355 N 
ATOM     46  H46 non d ame     -31.414   8.850  25.799  0.00  0.00     0.162 HD
BRANCH  45  47
ATOM     47  C20 non d ame     -32.683   7.659  24.510  0.00  0.00     0.013 C 
ATOM     48  H30 non d ame     -33.768   7.572  24.439  0.00  0.00     0.072 H 
BRANCH  47  49
ATOM     49  C21 non d ame     -32.076   6.313  24.831  0.00  0.00    -0.038 C 
ATOM     50  H31 non d ame     -32.015   5.782  23.879  0.00  0.00     0.036 H 
ATOM     51  H32 non d ame     -31.169   6.526  25.395  0.00  0.00     0.036 H 
BRANCH  49  52
ATOM     52  C22 non d ame     -32.971   5.455  25.751  0.00  0.00     0.018 C 
ATOM     53  H33 non d ame     -33.970   5.882  25.672  0.00  0.00     0.048 H 
ATOM     54  H34 non d ame     -32.796   4.421  25.452  0.00  0.00     0.048 H 
BRANCH  52  55
ATOM     55  C23 non d ame     -32.586   5.538  27.254  0.00  0.00     0.259 C 
ATOM     56  O7  non d ame     -31.804   6.348  27.633  0.00  0.00    -0.265 OA
BRANCH  55  57
ATOM     57  O8  non d ame     -33.169   4.622  28.174  0.00  0.00    -0.317 OA
BRANCH  57  58
ATOM     58  C29 non d ame     -32.266   4.156  29.181  0.00  0.00     0.052 C 
ATOM     59  H47 non d ame     -32.060   3.115  28.932  0.00  0.00     0.082 H 
ATOM     60  H48 non d ame     -31.454   4.882  29.208  0.00  0.00     0.082 H 
BRANCH  58  61
ATOM     61  C35 non d ame     -33.006   4.197  30.545  0.00  0.00    -0.034 A 
ATOM     62  C30 non d ame     -34.106   5.031  30.715  0.00  0.00    -0.075 A 
ATOM     63  C31 non d ame     -34.771   5.068  31.941  0.00  0.00    -0.082 A 
ATOM     64  H49 non d ame     -34.447   5.656  29.890  0.00  0.00     0.084 H 
ATOM     65  C32 non d ame     -34.330   4.268  32.998  0.00  0.00    -0.083 A 
ATOM     66  H50 non d ame     -35.634   5.722  32.070  0.00  0.00     0.083 H 
ATOM     67  C33 non d ame     -33.230   3.440  32.824  0.00  0.00    -0.082 A 
ATOM     68  H51 non d ame     -34.845   4.291  33.959  0.00  0.00     0.083 H 
ATOM     69  C34 non d ame     -32.564   3.398  31.601  0.00  0.00    -0.075 A 
ATOM     70  H52 non d ame     -32.887   2.818  33.652  0.00  0.00     0.083 H 
ATOM     71  H53 non d ame     -31.702   2.744  31.472  0.00  0.00     0.084 H 
ENDBRANCH  58  61
ENDBRANCH  57  58
ENDBRANCH  55  57
ENDBRANCH  52  55
ENDBRANCH  49  52
ENDBRANCH  47  49
BRANCH  47  72
ATOM     72  C24 non d ame     -32.106   8.179  23.195  0.00  0.00    -0.039 C 
ATOM     73  H35 non d ame     -31.953   7.294  22.576  0.00  0.00     0.036 H 
ATOM     74  H36 non d ame     -32.791   8.960  22.866  0.00  0.00     0.036 H 
BRANCH  72  75
ATOM     75  C25 non d ame     -30.674   8.864  23.405  0.00  0.00    -0.001 C 
ATOM     76  C26 non d ame     -30.813  10.498  23.291  0.00  0.00    -0.035 C 
ATOM     77  C27 non d ame     -29.892  10.954  22.408  0.00  0.00     0.085 C 
ATOM     78  H38 non d ame     -31.763  10.761  22.826  0.00  0.00     0.036 H 
ATOM     79  H39 non d ame     -30.518  10.965  24.230  0.00  0.00     0.036 H 
ATOM     80  N5  non d ame     -29.359   9.752  21.666  0.00  0.00    -0.049 N 
ATOM     81  H40 non d ame     -30.444  11.585  21.711  0.00  0.00     0.075 H 
ATOM     82  H41 non d ame     -29.093  11.379  23.014  0.00  0.00     0.075 H 
ATOM     83  C28 non d ame     -29.827   8.461  22.516  0.00  0.00     0.193 C 
ATOM     84  H42 non d ame     -29.828   9.735  20.772  0.00  0.00     0.280 HD
ATOM     85  H43 non d ame     -28.351   9.815  21.706  0.00  0.00     0.280 HD
ATOM     86  H44 non d ame     -29.119   7.926  23.146  0.00  0.00     0.129 H 
ATOM     87  H37 non d ame     -30.152   8.470  24.277  0.00  0.00     0.046 H 
BRANCH  83  88
ATOM     88  O6  non d ame     -30.387   7.475  21.647  0.00  0.00    -0.369 OA
ATOM     89  H45 non d ame     -31.328   7.637  21.543  0.00  0.00     0.212 HD
ENDBRANCH  83  88
ENDBRANCH  72  75
ENDBRANCH  47  72
ENDBRANCH  45  47
ENDBRANCH   1  43
BRANCH   1  90
ATOM     90  C16 non d ame     -33.323   9.500  28.893  0.00  0.00    -0.035 C 
ATOM     91  H21 non d ame     -34.168   8.823  28.774  0.00  0.00     0.037 H 
ATOM     92  H22 non d ame     -32.335   9.102  29.120  0.00  0.00     0.037 H 
BRANCH  90  93
ATOM     93  C17 non d ame     -33.692  10.462  30.067  0.00  0.00    -0.059 C 
ATOM     94  H23 non d ame     -34.314  11.259  29.659  0.00  0.00     0.038 H 
BRANCH  93  95
ATOM     95  C18 non d ame     -34.511   9.741  31.184  0.00  0.00    -0.073 C 
ATOM     96  H24 non d ame     -34.062   8.772  31.397  0.00  0.00     0.028 H 
ATOM     97  H25 non d ame     -34.505  10.349  32.089  0.00  0.00     0.028 H 
ATOM     98  H26 non d ame     -35.538   9.601  30.849  0.00  0.00     0.028 H 
ENDBRANCH  93  95
BRANCH  93  99
ATOM     99  C19 non d ame     -32.438  11.119  30.650  0.00  0.00    -0.073 C 
ATOM    100  H27 non d ame     -31.725  11.317  29.848  0.00  0.00     0.028 H 
ATOM    101  H28 non d ame     -32.710  12.058  31.132  0.00  0.00     0.028 H 
ATOM    102  H29 non d ame     -31.986  10.453  31.383  0.00  0.00     0.028 H 
ENDBRANCH  93  99
ENDBRANCH  90  93
ENDBRANCH   1  90
TORSDOF 26
ENDMDL
MODEL 16
REMARK VINA RESULT:      -7.1      3.456      5.820
REMARK  26 active torsions:
REMARK  status: ('A' for Active; 'I' for Inactive)
REMARK    1  A    between atoms: C2_2  and  C3_3 
REMARK    2  A    between atoms: C4_6  and  C5_7 
REMARK       I    between atoms: C5_7  and  N2_9 
REMARK    3  A    between atoms: N2_9  and  C6_10 
REMARK    4  A    between atoms: C6_10  and  C7_11 
REMARK    5  A    between atoms: C6_10  and  C8_13 
REMARK       I    between atoms: C7_11  and  N3_14 
REMARK    6  A    between atoms: N3_14  and  C9_15 
REMARK    7  A    between atoms: C9_15  and  C10_16 
REMARK    8  A    between atoms: C9_15  and  C11_18 
REMARK       I    between atoms: C10_16  and  N4_21 
REMARK    9  A    between atoms: C11_18  and  C12_19 
REMARK   10  A    between atoms: C11_18  and  C13_20 
REMARK   11  A    between atoms: N4_21  and  C14_22 
REMARK   12  A    between atoms: C14_22  and  C15_23 
REMARK   13  A    between atoms: C14_22  and  C16_25 
REMARK       I    between atoms: C15_23  and  N6_40 
REMARK   14  A    between atoms: C16_25  and  C17_26 
REMARK   15  A    between atoms: C17_26  and  C18_27 
REMARK   16  A    between atoms: C17_26  and  C19_28 
REMARK   17  A    between atoms: C20_29  and  C21_30 
REMARK   18  A    between atoms: C20_29  and  C24_33 
REMARK   19  A    between atoms: C20_29  and  N6_40 
REMARK   20  A    between atoms: C21_30  and  C22_31 
REMARK   21  A    between atoms: C22_31  and  C23_32 
REMARK   22  A    between atoms: C23_32  and  O8_43 
REMARK   23  A    between atoms: C24_33  and  C25_34 
REMARK   24  A    between atoms: C28_38  and  O6_39 
REMARK   25  A    between atoms: C29_42  and  O8_43 
REMARK   26  A    between atoms: C29_42  and  C35_49 
ROOT
ATOM      1  C14 non d ame     -30.914  14.010  24.578  0.00  0.00     0.089 C 
ATOM      2  H20 non d ame     -29.907  13.770  24.922  0.00  0.00     0.087 H 
ENDROOT
BRANCH   1   3
ATOM      3  N4  non d ame     -31.530  12.770  24.129  0.00  0.00    -0.346 N 
ATOM      4  C10 non d ame     -31.373  11.505  24.935  0.00  0.00     0.241 C 
ATOM      5  O4  non d ame     -30.744  11.508  25.940  0.00  0.00    -0.271 OA
ATOM      6  H19 non d ame     -32.060  12.789  23.269  0.00  0.00     0.163 HD
BRANCH   4   7
ATOM      7  C9  non d ame     -32.022  10.233  24.457  0.00  0.00     0.092 C 
ATOM      8  H11 non d ame     -31.793   9.429  25.156  0.00  0.00     0.088 H 
BRANCH   7   9
ATOM      9  N3  non d ame     -33.478  10.400  24.449  0.00  0.00    -0.346 N 
ATOM     10  C7  non d ame     -34.225  10.272  25.676  0.00  0.00     0.240 C 
ATOM     11  O3  non d ame     -33.670  10.033  26.679  0.00  0.00    -0.271 OA
ATOM     12  H10 non d ame     -33.971  10.604  23.592  0.00  0.00     0.163 HD
BRANCH  10  13
ATOM     13  C6  non d ame     -35.775  10.447  25.661  0.00  0.00     0.086 C 
ATOM     14  H6  non d ame     -36.134  11.098  26.459  0.00  0.00     0.086 H 
BRANCH  13  15
ATOM     15  N2  non d ame     -36.167  11.072  24.408  0.00  0.00    -0.343 N 
ATOM     16  C5  non d ame     -37.166  12.143  24.418  0.00  0.00     0.273 C 
ATOM     17  O2  non d ame     -37.650  12.493  25.437  0.00  0.00    -0.266 OA
ATOM     18  H5  non d ame     -35.750  10.764  23.541  0.00  0.00     0.163 HD
BRANCH  16  19
ATOM     19  C4  non d ame     -37.588  12.813  23.101  0.00  0.00     0.154 A 
ATOM     20  C1  non d ame     -38.609  12.378  22.198  0.00  0.00    -0.017 A 
ATOM     21  C2  non d ame     -38.600  13.329  21.153  0.00  0.00     0.077 A 
ATOM     22  H1  non d ame     -39.257  11.506  22.286  0.00  0.00     0.091 H 
ATOM     23  O1  non d ame     -37.679  14.205  21.435  0.00  0.00    -0.218 OA
ATOM     24  N1  non d ame     -37.074  13.924  22.565  0.00  0.00    -0.123 NA
BRANCH  21  25
ATOM     25  C3  non d ame     -39.502  13.330  19.926  0.00  0.00    -0.029 C 
ATOM     26  H2  non d ame     -39.866  12.319  19.742  0.00  0.00     0.036 H 
ATOM     27  H3  non d ame     -40.350  13.993  20.099  0.00  0.00     0.036 H 
ATOM     28  H4  non d ame     -38.939  13.677  19.061  0.00  0.00     0.036 H 
ENDBRANCH  21  25
ENDBRANCH  16  19
ENDBRANCH  13  15
BRANCH  13  29
ATOM     29  C8  non d ame     -36.438   9.099  25.796  0.00  0.00    -0.049 C 
ATOM     30  H7  non d ame     -35.998   8.405  25.081  0.00  0.00     0.030 H 
ATOM     31  H8  non d ame     -36.288   8.721  26.808  0.00  0.00     0.030 H 
ATOM     32  H9  non d ame     -37.505   9.198  25.598  0.00  0.00     0.030 H 
ENDBRANCH  13  29
ENDBRANCH  10  13
ENDBRANCH   7   9
BRANCH   7  33
ATOM     33  C11 non d ame     -31.532   9.911  23.015  0.00  0.00    -0.033 C 
ATOM     34  H12 non d ame     -31.745  10.782  22.393  0.00  0.00     0.042 H 
BRANCH  33  35
ATOM     35  C12 non d ame     -29.990   9.674  22.978  0.00  0.00    -0.071 C 
ATOM     36  H13 non d ame     -29.728   9.132  22.069  0.00  0.00     0.028 H 
ATOM     37  H14 non d ame     -29.475  10.634  22.989  0.00  0.00     0.028 H 
ATOM     38  H15 non d ame     -29.691   9.090  23.848  0.00  0.00     0.028 H 
ENDBRANCH  33  35
BRANCH  33  39
ATOM     39  C13 non d ame     -32.307   8.692  22.419  0.00  0.00    -0.071 C 
ATOM     40  H16 non d ame     -31.721   8.246  21.616  0.00  0.00     0.028 H 
ATOM     41  H17 non d ame     -32.477   7.951  23.201  0.00  0.00     0.028 H 
ATOM     42  H18 non d ame     -33.266   9.029  22.026  0.00  0.00     0.028 H 
ENDBRANCH  33  39
ENDBRANCH   7  33
ENDBRANCH   4   7
ENDBRANCH   1   3
BRANCH   1  43
ATOM     43  C15 non d ame     -31.792  14.617  25.710  0.00  0.00     0.240 C 
ATOM     44  O5  non d ame     -31.609  15.737  26.063  0.00  0.00    -0.271 OA
ATOM     45  N6  non d ame     -32.868  13.806  26.346  0.00  0.00    -0.355 N 
ATOM     46  H46 non d ame     -33.036  12.855  26.050  0.00  0.00     0.162 HD
BRANCH  45  47
ATOM     47  C20 non d ame     -33.696  14.398  27.420  0.00  0.00     0.013 C 
ATOM     48  H30 non d ame     -34.468  13.676  27.684  0.00  0.00     0.072 H 
BRANCH  47  49
ATOM     49  C21 non d ame     -34.332  15.673  26.914  0.00  0.00    -0.038 C 
ATOM     50  H31 non d ame     -34.920  16.060  27.749  0.00  0.00     0.036 H 
ATOM     51  H32 non d ame     -33.517  16.265  26.501  0.00  0.00     0.036 H 
BRANCH  49  52
ATOM     52  C22 non d ame     -35.325  15.430  25.758  0.00  0.00     0.018 C 
ATOM     53  H33 non d ame     -34.770  15.634  24.844  0.00  0.00     0.048 H 
ATOM     54  H34 non d ame     -35.742  14.437  25.931  0.00  0.00     0.048 H 
BRANCH  52  55
ATOM     55  C23 non d ame     -36.534  16.406  25.753  0.00  0.00     0.259 C 
ATOM     56  O7  non d ame     -37.472  16.209  26.455  0.00  0.00    -0.265 OA
BRANCH  55  57
ATOM     57  O8  non d ame     -36.514  17.536  24.888  0.00  0.00    -0.317 OA
BRANCH  57  58
ATOM     58  C29 non d ame     -36.647  18.789  25.565  0.00  0.00     0.052 C 
ATOM     59  H47 non d ame     -36.863  19.522  24.788  0.00  0.00     0.082 H 
ATOM     60  H48 non d ame     -37.364  18.617  26.367  0.00  0.00     0.082 H 
BRANCH  58  61
ATOM     61  C35 non d ame     -35.274  19.139  26.200  0.00  0.00    -0.034 A 
ATOM     62  C30 non d ame     -34.147  19.266  25.394  0.00  0.00    -0.075 A 
ATOM     63  C31 non d ame     -32.913  19.579  25.965  0.00  0.00    -0.082 A 
ATOM     64  H49 non d ame     -34.228  19.119  24.318  0.00  0.00     0.084 H 
ATOM     65  C32 non d ame     -32.810  19.763  27.346  0.00  0.00    -0.083 A 
ATOM     66  H50 non d ame     -32.032  19.679  25.331  0.00  0.00     0.083 H 
ATOM     67  C33 non d ame     -33.937  19.632  28.146  0.00  0.00    -0.082 A 
ATOM     68  H51 non d ame     -31.850  20.009  27.800  0.00  0.00     0.083 H 
ATOM     69  C34 non d ame     -35.172  19.321  27.580  0.00  0.00    -0.075 A 
ATOM     70  H52 non d ame     -33.853  19.774  29.224  0.00  0.00     0.083 H 
ATOM     71  H53 non d ame     -36.053  19.221  28.215  0.00  0.00     0.084 H 
ENDBRANCH  58  61
ENDBRANCH  57  58
ENDBRANCH  55  57
ENDBRANCH  52  55
ENDBRANCH  49  52
ENDBRANCH  47  49
BRANCH  47  72
ATOM     72  C24 non d ame     -32.823  14.710  28.634  0.00  0.00    -0.039 C 
ATOM     73  H35 non d ame     -32.193  15.547  28.330  0.00  0.00     0.036 H 
ATOM     74  H36 non d ame     -33.516  14.824  29.467  0.00  0.00     0.036 H 
BRANCH  72  75
ATOM     75  C25 non d ame     -31.849  13.490  28.992  0.00  0.00    -0.001 C 
ATOM     76  C26 non d ame     -32.724  12.232  29.587  0.00  0.00    -0.035 C 
ATOM     77  C27 non d ame     -32.173  11.831  30.758  0.00  0.00     0.085 C 
ATOM     78  H38 non d ame     -33.719  12.571  29.876  0.00  0.00     0.036 H 
ATOM     79  H39 non d ame     -32.612  11.360  28.941  0.00  0.00     0.036 H 
ATOM     80  N5  non d ame     -31.203  12.907  31.179  0.00  0.00    -0.049 N 
ATOM     81  H40 non d ame     -32.997  11.796  31.471  0.00  0.00     0.075 H 
ATOM     82  H41 non d ame     -31.617  10.924  30.523  0.00  0.00     0.075 H 
ATOM     83  C28 non d ame     -30.974  13.834  29.878  0.00  0.00     0.193 C 
ATOM     84  H42 non d ame     -31.672  13.455  31.886  0.00  0.00     0.280 HD
ATOM     85  H43 non d ame     -30.334  12.439  31.398  0.00  0.00     0.280 HD
ATOM     86  H44 non d ame     -30.059  13.753  29.293  0.00  0.00     0.129 H 
ATOM     87  H37 non d ame     -31.148  13.270  28.187  0.00  0.00     0.046 H 
BRANCH  83  88
ATOM     88  O6  non d ame     -31.080  15.215  30.231  0.00  0.00    -0.369 OA
ATOM     89  H45 non d ame     -31.394  15.716  29.475  0.00  0.00     0.212 HD
ENDBRANCH  83  88
ENDBRANCH  72  75
ENDBRANCH  47  72
ENDBRANCH  45  47
ENDBRANCH   1  43
BRANCH   1  90
ATOM     90  C16 non d ame     -30.842  14.980  23.410  0.00  0.00    -0.035 C 
ATOM     91  H21 non d ame     -31.843  14.989  22.979  0.00  0.00     0.037 H 
ATOM     92  H22 non d ame     -30.419  15.896  23.822  0.00  0.00     0.037 H 
BRANCH  90  93
ATOM     93  C17 non d ame     -29.877  14.521  22.272  0.00  0.00    -0.059 C 
ATOM     94  H23 non d ame     -29.907  13.432  22.231  0.00  0.00     0.038 H 
BRANCH  93  95
ATOM     95  C18 non d ame     -30.315  15.062  20.873  0.00  0.00    -0.073 C 
ATOM     96  H24 non d ame     -29.857  14.459  20.090  0.00  0.00     0.028 H 
ATOM     97  H25 non d ame     -31.400  15.007  20.786  0.00  0.00     0.028 H 
ATOM     98  H26 non d ame     -29.995  16.098  20.768  0.00  0.00     0.028 H 
ENDBRANCH  93  95
BRANCH  93  99
ATOM     99  C19 non d ame     -28.433  14.924  22.584  0.00  0.00    -0.073 C 
ATOM    100  H27 non d ame     -27.798  14.037  22.575  0.00  0.00     0.028 H 
ATOM    101  H28 non d ame     -28.081  15.629  21.830  0.00  0.00     0.028 H 
ATOM    102  H29 non d ame     -28.391  15.392  23.566  0.00  0.00     0.028 H 
ENDBRANCH  93  99
ENDBRANCH  90  93
ENDBRANCH   1  90
TORSDOF 26
ENDMDL
MODEL 17
REMARK VINA RESULT:      -7.0      2.858      9.975
REMARK  26 active torsions:
REMARK  status: ('A' for Active; 'I' for Inactive)
REMARK    1  A    between atoms: C2_2  and  C3_3 
REMARK    2  A    between atoms: C4_6  and  C5_7 
REMARK       I    between atoms: C5_7  and  N2_9 
REMARK    3  A    between atoms: N2_9  and  C6_10 
REMARK    4  A    between atoms: C6_10  and  C7_11 
REMARK    5  A    between atoms: C6_10  and  C8_13 
REMARK       I    between atoms: C7_11  and  N3_14 
REMARK    6  A    between atoms: N3_14  and  C9_15 
REMARK    7  A    between atoms: C9_15  and  C10_16 
REMARK    8  A    between atoms: C9_15  and  C11_18 
REMARK       I    between atoms: C10_16  and  N4_21 
REMARK    9  A    between atoms: C11_18  and  C12_19 
REMARK   10  A    between atoms: C11_18  and  C13_20 
REMARK   11  A    between atoms: N4_21  and  C14_22 
REMARK   12  A    between atoms: C14_22  and  C15_23 
REMARK   13  A    between atoms: C14_22  and  C16_25 
REMARK       I    between atoms: C15_23  and  N6_40 
REMARK   14  A    between atoms: C16_25  and  C17_26 
REMARK   15  A    between atoms: C17_26  and  C18_27 
REMARK   16  A    between atoms: C17_26  and  C19_28 
REMARK   17  A    between atoms: C20_29  and  C21_30 
REMARK   18  A    between atoms: C20_29  and  C24_33 
REMARK   19  A    between atoms: C20_29  and  N6_40 
REMARK   20  A    between atoms: C21_30  and  C22_31 
REMARK   21  A    between atoms: C22_31  and  C23_32 
REMARK   22  A    between atoms: C23_32  and  O8_43 
REMARK   23  A    between atoms: C24_33  and  C25_34 
REMARK   24  A    between atoms: C28_38  and  O6_39 
REMARK   25  A    between atoms: C29_42  and  O8_43 
REMARK   26  A    between atoms: C29_42  and  C35_49 
ROOT
ATOM      1  C14 non d ame     -33.886   5.938  26.502  0.00  0.00     0.089 C 
ATOM      2  H20 non d ame     -33.136   5.818  27.285  0.00  0.00     0.087 H 
ENDROOT
BRANCH   1   3
ATOM      3  N4  non d ame     -34.411   7.291  26.604  0.00  0.00    -0.346 N 
ATOM      4  C10 non d ame     -33.595   8.379  27.255  0.00  0.00     0.241 C 
ATOM      5  O4  non d ame     -32.519   8.141  27.693  0.00  0.00    -0.271 OA
ATOM      6  H19 non d ame     -35.331   7.473  26.226  0.00  0.00     0.163 HD
BRANCH   4   7
ATOM      7  C9  non d ame     -34.152   9.775  27.345  0.00  0.00     0.092 C 
ATOM      8  H11 non d ame     -34.884   9.818  28.153  0.00  0.00     0.088 H 
BRANCH   7   9
ATOM      9  N3  non d ame     -33.077  10.711  27.684  0.00  0.00    -0.346 N 
ATOM     10  C7  non d ame     -32.990  11.257  29.017  0.00  0.00     0.240 C 
ATOM     11  O3  non d ame     -33.778  10.954  29.828  0.00  0.00    -0.271 OA
ATOM     12  H10 non d ame     -32.391  10.982  26.995  0.00  0.00     0.163 HD
BRANCH  10  13
ATOM     13  C6  non d ame     -31.844  12.255  29.371  0.00  0.00     0.086 C 
ATOM     14  H6  non d ame     -30.980  12.155  28.715  0.00  0.00     0.086 H 
BRANCH  13  15
ATOM     15  N2  non d ame     -32.336  13.613  29.207  0.00  0.00    -0.343 N 
ATOM     16  C5  non d ame     -31.781  14.458  28.146  0.00  0.00     0.273 C 
ATOM     17  O2  non d ame     -30.939  14.036  27.432  0.00  0.00    -0.266 OA
ATOM     18  H5  non d ame     -33.053  13.966  29.824  0.00  0.00     0.163 HD
BRANCH  16  19
ATOM     19  C4  non d ame     -32.292  15.894  27.961  0.00  0.00     0.154 A 
ATOM     20  C1  non d ame     -32.487  16.590  26.726  0.00  0.00    -0.017 A 
ATOM     21  C2  non d ame     -32.966  17.866  27.099  0.00  0.00     0.077 A 
ATOM     22  H1  non d ame     -32.308  16.227  25.714  0.00  0.00     0.091 H 
ATOM     23  O1  non d ame     -33.037  17.889  28.398  0.00  0.00    -0.218 OA
ATOM     24  N1  non d ame     -32.648  16.750  28.923  0.00  0.00    -0.123 NA
BRANCH  21  25
ATOM     25  C3  non d ame     -33.333  19.003  26.154  0.00  0.00    -0.029 C 
ATOM     26  H2  non d ame     -34.082  19.640  26.625  0.00  0.00     0.036 H 
ATOM     27  H3  non d ame     -32.443  19.593  25.933  0.00  0.00     0.036 H 
ATOM     28  H4  non d ame     -33.735  18.592  25.230  0.00  0.00     0.036 H 
ENDBRANCH  21  25
ENDBRANCH  16  19
ENDBRANCH  13  15
BRANCH  13  29
ATOM     29  C8  non d ame     -31.404  12.033  30.796  0.00  0.00    -0.049 C 
ATOM     30  H7  non d ame     -30.325  12.169  30.869  0.00  0.00     0.030 H 
ATOM     31  H8  non d ame     -31.904  12.752  31.446  0.00  0.00     0.030 H 
ATOM     32  H9  non d ame     -31.665  11.021  31.104  0.00  0.00     0.030 H 
ENDBRANCH  13  29
ENDBRANCH  10  13
ENDBRANCH   7   9
BRANCH   7  33
ATOM     33  C11 non d ame     -34.772  10.175  25.974  0.00  0.00    -0.033 C 
ATOM     34  H12 non d ame     -35.480   9.395  25.694  0.00  0.00     0.042 H 
BRANCH  33  35
ATOM     35  C12 non d ame     -35.566  11.515  26.077  0.00  0.00    -0.071 C 
ATOM     36  H13 non d ame     -36.228  11.480  26.943  0.00  0.00     0.028 H 
ATOM     37  H14 non d ame     -34.867  12.343  26.188  0.00  0.00     0.028 H 
ATOM     38  H15 non d ame     -36.158  11.657  25.174  0.00  0.00     0.028 H 
ENDBRANCH  33  35
BRANCH  33  39
ATOM     39  C13 non d ame     -33.674  10.251  24.865  0.00  0.00    -0.071 C 
ATOM     40  H16 non d ame     -34.150  10.329  23.887  0.00  0.00     0.028 H 
ATOM     41  H17 non d ame     -33.046  11.127  25.034  0.00  0.00     0.028 H 
ATOM     42  H18 non d ame     -33.059   9.353  24.901  0.00  0.00     0.028 H 
ENDBRANCH  33  39
ENDBRANCH   7  33
ENDBRANCH   4   7
ENDBRANCH   1   3
BRANCH   1  43
ATOM     43  C15 non d ame     -33.287   5.744  25.080  0.00  0.00     0.240 C 
ATOM     44  O5  non d ame     -33.004   4.653  24.702  0.00  0.00    -0.271 OA
ATOM     45  N6  non d ame     -33.075   6.917  24.186  0.00  0.00    -0.355 N 
ATOM     46  H46 non d ame     -33.317   7.848  24.494  0.00  0.00     0.162 HD
BRANCH  45  47
ATOM     47  C20 non d ame     -32.506   6.716  22.835  0.00  0.00     0.013 C 
ATOM     48  H30 non d ame     -32.555   5.652  22.605  0.00  0.00     0.072 H 
BRANCH  47  49
ATOM     49  C21 non d ame     -31.068   7.182  22.824  0.00  0.00    -0.038 C 
ATOM     50  H31 non d ame     -30.859   7.516  23.841  0.00  0.00     0.036 H 
ATOM     51  H32 non d ame     -30.496   6.361  22.392  0.00  0.00     0.036 H 
BRANCH  49  52
ATOM     52  C22 non d ame     -30.839   8.403  21.908  0.00  0.00     0.018 C 
ATOM     53  H33 non d ame     -30.763   8.004  20.898  0.00  0.00     0.048 H 
ATOM     54  H34 non d ame     -31.633   9.110  22.156  0.00  0.00     0.048 H 
BRANCH  52  55
ATOM     55  C23 non d ame     -29.503   9.148  22.178  0.00  0.00     0.259 C 
ATOM     56  O7  non d ame     -28.502   8.809  21.634  0.00  0.00    -0.265 OA
BRANCH  55  57
ATOM     57  O8  non d ame     -29.484  10.234  23.097  0.00  0.00    -0.317 OA
BRANCH  57  58
ATOM     58  C29 non d ame     -30.703  10.982  23.139  0.00  0.00     0.052 C 
ATOM     59  H47 non d ame     -31.250  10.704  22.239  0.00  0.00     0.082 H 
ATOM     60  H48 non d ame     -31.134  10.789  24.121  0.00  0.00     0.082 H 
BRANCH  58  61
ATOM     61  C35 non d ame     -30.344  12.489  23.048  0.00  0.00    -0.034 A 
ATOM     62  C30 non d ame     -30.887  13.390  23.959  0.00  0.00    -0.075 A 
ATOM     63  C31 non d ame     -30.564  14.745  23.878  0.00  0.00    -0.082 A 
ATOM     64  H49 non d ame     -31.564  13.037  24.736  0.00  0.00     0.084 H 
ATOM     65  C32 non d ame     -29.698  15.197  22.879  0.00  0.00    -0.083 A 
ATOM     66  H50 non d ame     -30.990  15.448  24.594  0.00  0.00     0.083 H 
ATOM     67  C33 non d ame     -29.161  14.295  21.971  0.00  0.00    -0.082 A 
ATOM     68  H51 non d ame     -29.440  16.254  22.809  0.00  0.00     0.083 H 
ATOM     69  C34 non d ame     -29.479  12.940  22.050  0.00  0.00    -0.075 A 
ATOM     70  H52 non d ame     -28.487  14.650  21.191  0.00  0.00     0.083 H 
ATOM     71  H53 non d ame     -29.053  12.238  21.333  0.00  0.00     0.084 H 
ENDBRANCH  58  61
ENDBRANCH  57  58
ENDBRANCH  55  57
ENDBRANCH  52  55
ENDBRANCH  49  52
ENDBRANCH  47  49
BRANCH  47  72
ATOM     72  C24 non d ame     -33.309   7.516  21.811  0.00  0.00    -0.039 C 
ATOM     73  H35 non d ame     -34.065   8.050  22.390  0.00  0.00     0.036 H 
ATOM     74  H36 non d ame     -32.571   8.073  21.235  0.00  0.00     0.036 H 
BRANCH  72  75
ATOM     75  C25 non d ame     -34.085   6.560  20.788  0.00  0.00    -0.001 C 
ATOM     76  C26 non d ame     -33.006   5.785  19.819  0.00  0.00    -0.035 C 
ATOM     77  C27 non d ame     -33.377   5.957  18.527  0.00  0.00     0.085 C 
ATOM     78  H38 non d ame     -32.035   6.276  19.873  0.00  0.00     0.036 H 
ATOM     79  H39 non d ame     -33.081   4.707  19.964  0.00  0.00     0.036 H 
ATOM     80  N5  non d ame     -34.420   7.049  18.509  0.00  0.00    -0.049 N 
ATOM     81  H40 non d ame     -32.483   6.311  18.012  0.00  0.00     0.075 H 
ATOM     82  H41 non d ame     -33.842   5.017  18.230  0.00  0.00     0.075 H 
ATOM     83  C28 non d ame     -34.896   7.233  20.041  0.00  0.00     0.193 C 
ATOM     84  H42 non d ame     -33.947   7.891  18.215  0.00  0.00     0.280 HD
ATOM     85  H43 non d ame     -35.197   6.692  17.971  0.00  0.00     0.280 HD
ATOM     86  H44 non d ame     -35.852   6.834  20.376  0.00  0.00     0.129 H 
ATOM     87  H37 non d ame     -34.836   5.946  21.284  0.00  0.00     0.046 H 
BRANCH  83  88
ATOM     88  O6  non d ame     -34.920   8.620  20.385  0.00  0.00    -0.369 OA
ATOM     89  H45 non d ame     -34.066   8.876  20.741  0.00  0.00     0.212 HD
ENDBRANCH  83  88
ENDBRANCH  72  75
ENDBRANCH  47  72
ENDBRANCH  45  47
ENDBRANCH   1  43
BRANCH   1  90
ATOM     90  C16 non d ame     -35.019   4.948  26.719  0.00  0.00    -0.035 C 
ATOM     91  H21 non d ame     -35.920   5.463  26.387  0.00  0.00     0.037 H 
ATOM     92  H22 non d ame     -34.702   4.032  26.222  0.00  0.00     0.037 H 
BRANCH  90  93
ATOM     93  C17 non d ame     -35.252   4.580  28.219  0.00  0.00    -0.059 C 
ATOM     94  H23 non d ame     -35.458   3.511  28.269  0.00  0.00     0.038 H 
BRANCH  93  95
ATOM     95  C18 non d ame     -33.992   4.864  29.097  0.00  0.00    -0.073 C 
ATOM     96  H24 non d ame     -33.744   5.924  29.046  0.00  0.00     0.028 H 
ATOM     97  H25 non d ame     -34.201   4.590  30.132  0.00  0.00     0.028 H 
ATOM     98  H26 non d ame     -33.151   4.276  28.729  0.00  0.00     0.028 H 
ENDBRANCH  93  95
BRANCH  93  99
ATOM     99  C19 non d ame     -36.479   5.306  28.777  0.00  0.00    -0.073 C 
ATOM    100  H27 non d ame     -37.273   4.584  28.970  0.00  0.00     0.028 H 
ATOM    101  H28 non d ame     -36.212   5.809  29.706  0.00  0.00     0.028 H 
ATOM    102  H29 non d ame     -36.825   6.043  28.053  0.00  0.00     0.028 H 
ENDBRANCH  93  99
ENDBRANCH  90  93
ENDBRANCH   1  90
TORSDOF 26
ENDMDL
MODEL 18
REMARK VINA RESULT:      -7.0      3.475      7.323
REMARK  26 active torsions:
REMARK  status: ('A' for Active; 'I' for Inactive)
REMARK    1  A    between atoms: C2_2  and  C3_3 
REMARK    2  A    between atoms: C4_6  and  C5_7 
REMARK       I    between atoms: C5_7  and  N2_9 
REMARK    3  A    between atoms: N2_9  and  C6_10 
REMARK    4  A    between atoms: C6_10  and  C7_11 
REMARK    5  A    between atoms: C6_10  and  C8_13 
REMARK       I    between atoms: C7_11  and  N3_14 
REMARK    6  A    between atoms: N3_14  and  C9_15 
REMARK    7  A    between atoms: C9_15  and  C10_16 
REMARK    8  A    between atoms: C9_15  and  C11_18 
REMARK       I    between atoms: C10_16  and  N4_21 
REMARK    9  A    between atoms: C11_18  and  C12_19 
REMARK   10  A    between atoms: C11_18  and  C13_20 
REMARK   11  A    between atoms: N4_21  and  C14_22 
REMARK   12  A    between atoms: C14_22  and  C15_23 
REMARK   13  A    between atoms: C14_22  and  C16_25 
REMARK       I    between atoms: C15_23  and  N6_40 
REMARK   14  A    between atoms: C16_25  and  C17_26 
REMARK   15  A    between atoms: C17_26  and  C18_27 
REMARK   16  A    between atoms: C17_26  and  C19_28 
REMARK   17  A    between atoms: C20_29  and  C21_30 
REMARK   18  A    between atoms: C20_29  and  C24_33 
REMARK   19  A    between atoms: C20_29  and  N6_40 
REMARK   20  A    between atoms: C21_30  and  C22_31 
REMARK   21  A    between atoms: C22_31  and  C23_32 
REMARK   22  A    between atoms: C23_32  and  O8_43 
REMARK   23  A    between atoms: C24_33  and  C25_34 
REMARK   24  A    between atoms: C28_38  and  O6_39 
REMARK   25  A    between atoms: C29_42  and  O8_43 
REMARK   26  A    between atoms: C29_42  and  C35_49 
ROOT
ATOM      1  C14 non d ame     -34.864   8.940  29.780  0.00  0.00     0.089 C 
ATOM      2  H20 non d ame     -35.954   8.923  29.753  0.00  0.00     0.087 H 
ENDROOT
BRANCH   1   3
ATOM      3  N4  non d ame     -34.392   7.734  29.115  0.00  0.00    -0.346 N 
ATOM      4  C10 non d ame     -35.375   6.765  28.505  0.00  0.00     0.241 C 
ATOM      5  O4  non d ame     -36.541   6.976  28.565  0.00  0.00    -0.271 OA
ATOM      6  H19 non d ame     -33.396   7.572  29.077  0.00  0.00     0.163 HD
BRANCH   4   7
ATOM      7  C9  non d ame     -34.868   5.526  27.817  0.00  0.00     0.092 C 
ATOM      8  H11 non d ame     -35.564   4.706  27.995  0.00  0.00     0.088 H 
BRANCH   7   9
ATOM      9  N3  non d ame     -34.825   5.753  26.370  0.00  0.00    -0.346 N 
ATOM     10  C7  non d ame     -35.510   4.849  25.478  0.00  0.00     0.240 C 
ATOM     11  O3  non d ame     -36.098   3.933  25.909  0.00  0.00    -0.271 OA
ATOM     12  H10 non d ame     -34.321   6.537  25.983  0.00  0.00     0.163 HD
BRANCH  10  13
ATOM     13  C6  non d ame     -35.459   5.093  23.938  0.00  0.00     0.086 C 
ATOM     14  H6  non d ame     -36.129   5.890  23.615  0.00  0.00     0.086 H 
BRANCH  13  15
ATOM     15  N2  non d ame     -34.115   5.508  23.571  0.00  0.00    -0.343 N 
ATOM     16  C5  non d ame     -33.760   6.928  23.618  0.00  0.00     0.273 C 
ATOM     17  O2  non d ame     -34.563   7.729  23.950  0.00  0.00    -0.266 OA
ATOM     18  H5  non d ame     -33.436   4.817  23.285  0.00  0.00     0.163 HD
BRANCH  16  19
ATOM     19  C4  non d ame     -32.342   7.380  23.235  0.00  0.00     0.154 A 
ATOM     20  C1  non d ame     -31.934   8.686  22.815  0.00  0.00    -0.017 A 
ATOM     21  C2  non d ame     -30.545   8.576  22.584  0.00  0.00     0.077 A 
ATOM     22  H1  non d ame     -32.551   9.576  22.695  0.00  0.00     0.091 H 
ATOM     23  O1  non d ame     -30.204   7.348  22.847  0.00  0.00    -0.218 OA
ATOM     24  N1  non d ame     -31.236   6.631  23.227  0.00  0.00    -0.123 NA
BRANCH  21  25
ATOM     25  C3  non d ame     -29.618   9.691  22.117  0.00  0.00    -0.029 C 
ATOM     26  H2  non d ame     -29.750  10.565  22.754  0.00  0.00     0.036 H 
ATOM     27  H3  non d ame     -28.583   9.352  22.177  0.00  0.00     0.036 H 
ATOM     28  H4  non d ame     -29.855   9.953  21.087  0.00  0.00     0.036 H 
ENDBRANCH  21  25
ENDBRANCH  16  19
ENDBRANCH  13  15
BRANCH  13  29
ATOM     29  C8  non d ame     -35.824   3.823  23.212  0.00  0.00    -0.049 C 
ATOM     30  H7  non d ame     -35.524   2.964  23.810  0.00  0.00     0.030 H 
ATOM     31  H8  non d ame     -36.902   3.795  23.050  0.00  0.00     0.030 H 
ATOM     32  H9  non d ame     -35.311   3.794  22.251  0.00  0.00     0.030 H 
ENDBRANCH  13  29
ENDBRANCH  10  13
ENDBRANCH   7   9
BRANCH   7  33
ATOM     33  C11 non d ame     -33.435   5.197  28.330  0.00  0.00    -0.033 C 
ATOM     34  H12 non d ame     -33.256   5.808  29.215  0.00  0.00     0.042 H 
BRANCH  33  35
ATOM     35  C12 non d ame     -33.313   3.702  28.759  0.00  0.00    -0.071 C 
ATOM     36  H13 non d ame     -34.067   3.112  28.238  0.00  0.00     0.028 H 
ATOM     37  H14 non d ame     -32.321   3.331  28.503  0.00  0.00     0.028 H 
ATOM     38  H15 non d ame     -33.467   3.618  29.835  0.00  0.00     0.028 H 
ENDBRANCH  33  35
BRANCH  33  39
ATOM     39  C13 non d ame     -32.359   5.569  27.260  0.00  0.00    -0.071 C 
ATOM     40  H16 non d ame     -31.455   5.919  27.760  0.00  0.00     0.028 H 
ATOM     41  H17 non d ame     -32.125   4.691  26.659  0.00  0.00     0.028 H 
ATOM     42  H18 non d ame     -32.745   6.357  26.615  0.00  0.00     0.028 H 
ENDBRANCH  33  39
ENDBRANCH   7  33
ENDBRANCH   4   7
ENDBRANCH   1   3
BRANCH   1  43
ATOM     43  C15 non d ame     -34.277  10.175  29.040  0.00  0.00     0.240 C 
ATOM     44  O5  non d ame     -35.008  10.986  28.572  0.00  0.00    -0.271 OA
ATOM     45  N6  non d ame     -32.801  10.353  28.925  0.00  0.00    -0.355 N 
ATOM     46  H46 non d ame     -32.170   9.673  29.324  0.00  0.00     0.162 HD
BRANCH  45  47
ATOM     47  C20 non d ame     -32.257  11.534  28.220  0.00  0.00     0.013 C 
ATOM     48  H30 non d ame     -33.059  12.267  28.127  0.00  0.00     0.072 H 
BRANCH  47  49
ATOM     49  C21 non d ame     -31.775  11.120  26.848  0.00  0.00    -0.038 C 
ATOM     50  H31 non d ame     -30.748  11.481  26.776  0.00  0.00     0.036 H 
ATOM     51  H32 non d ame     -31.984  10.053  26.773  0.00  0.00     0.036 H 
BRANCH  49  52
ATOM     52  C22 non d ame     -32.558  11.801  25.706  0.00  0.00     0.018 C 
ATOM     53  H33 non d ame     -32.086  11.466  24.784  0.00  0.00     0.048 H 
ATOM     54  H34 non d ame     -33.609  11.575  25.893  0.00  0.00     0.048 H 
BRANCH  52  55
ATOM     55  C23 non d ame     -32.447  13.351  25.707  0.00  0.00     0.259 C 
ATOM     56  O7  non d ame     -33.422  14.026  25.784  0.00  0.00    -0.265 OA
BRANCH  55  57
ATOM     57  O8  non d ame     -31.164  13.958  25.600  0.00  0.00    -0.317 OA
BRANCH  57  58
ATOM     58  C29 non d ame     -31.187  15.266  25.021  0.00  0.00     0.052 C 
ATOM     59  H47 non d ame     -32.225  15.595  25.077  0.00  0.00     0.082 H 
ATOM     60  H48 non d ame     -30.407  15.829  25.533  0.00  0.00     0.082 H 
BRANCH  58  61
ATOM     61  C35 non d ame     -30.795  15.135  23.524  0.00  0.00    -0.034 A 
ATOM     62  C30 non d ame     -31.224  16.088  22.606  0.00  0.00    -0.075 A 
ATOM     63  C31 non d ame     -30.871  15.970  21.262  0.00  0.00    -0.082 A 
ATOM     64  H49 non d ame     -31.836  16.926  22.938  0.00  0.00     0.084 H 
ATOM     65  C32 non d ame     -30.089  14.892  20.837  0.00  0.00    -0.083 A 
ATOM     66  H50 non d ame     -31.208  16.719  20.544  0.00  0.00     0.083 H 
ATOM     67  C33 non d ame     -29.666  13.943  21.757  0.00  0.00    -0.082 A 
ATOM     68  H51 non d ame     -29.809  14.793  19.789  0.00  0.00     0.083 H 
ATOM     69  C34 non d ame     -30.014  14.058  23.102  0.00  0.00    -0.075 A 
ATOM     70  H52 non d ame     -29.057  13.102  21.423  0.00  0.00     0.083 H 
ATOM     71  H53 non d ame     -29.677  13.308  23.818  0.00  0.00     0.084 H 
ENDBRANCH  58  61
ENDBRANCH  57  58
ENDBRANCH  55  57
ENDBRANCH  52  55
ENDBRANCH  49  52
ENDBRANCH  47  49
BRANCH  47  72
ATOM     72  C24 non d ame     -31.093  12.120  29.016  0.00  0.00    -0.039 C 
ATOM     73  H35 non d ame     -30.927  11.425  29.840  0.00  0.00     0.036 H 
ATOM     74  H36 non d ame     -30.303  12.297  28.286  0.00  0.00     0.036 H 
BRANCH  72  75
ATOM     75  C25 non d ame     -31.468  13.538  29.659  0.00  0.00    -0.001 C 
ATOM     76  C26 non d ame     -33.065  13.853  29.426  0.00  0.00    -0.035 C 
ATOM     77  C27 non d ame     -33.191  15.087  28.881  0.00  0.00     0.085 C 
ATOM     78  H38 non d ame     -33.468  13.192  28.659  0.00  0.00     0.036 H 
ATOM     79  H39 non d ame     -33.571  13.946  30.387  0.00  0.00     0.036 H 
ATOM     80  N5  non d ame     -31.818  15.507  28.418  0.00  0.00    -0.049 N 
ATOM     81  H40 non d ame     -33.835  14.956  28.010  0.00  0.00     0.075 H 
ATOM     82  H41 non d ame     -33.505  15.736  29.698  0.00  0.00     0.075 H 
ATOM     83  C28 non d ame     -30.780  14.491  29.124  0.00  0.00     0.193 C 
ATOM     84  H42 non d ame     -31.791  15.352  27.420  0.00  0.00     0.280 HD
ATOM     85  H43 non d ame     -31.663  16.434  28.789  0.00  0.00     0.280 HD
ATOM     86  H44 non d ame     -30.187  14.811  29.979  0.00  0.00     0.129 H 
ATOM     87  H37 non d ame     -31.084  13.646  30.673  0.00  0.00     0.046 H 
BRANCH  83  88
ATOM     88  O6  non d ame     -29.838  14.004  28.166  0.00  0.00    -0.369 OA
ATOM     89  H45 non d ame     -28.974  13.929  28.576  0.00  0.00     0.212 HD
ENDBRANCH  83  88
ENDBRANCH  72  75
ENDBRANCH  47  72
ENDBRANCH  45  47
ENDBRANCH   1  43
BRANCH   1  90
ATOM     90  C16 non d ame     -34.384   8.931  31.222  0.00  0.00    -0.035 C 
ATOM     91  H21 non d ame     -34.140   7.892  31.439  0.00  0.00     0.037 H 
ATOM     92  H22 non d ame     -33.609   9.695  31.273  0.00  0.00     0.037 H 
BRANCH  90  93
ATOM     93  C17 non d ame     -35.483   9.348  32.251  0.00  0.00    -0.059 C 
ATOM     94  H23 non d ame     -35.477   8.615  33.057  0.00  0.00     0.038 H 
BRANCH  93  95
ATOM     95  C18 non d ame     -35.200  10.750  32.879  0.00  0.00    -0.073 C 
ATOM     96  H24 non d ame     -35.696  11.520  32.288  0.00  0.00     0.028 H 
ATOM     97  H25 non d ame     -35.583  10.775  33.900  0.00  0.00     0.028 H 
ATOM     98  H26 non d ame     -34.127  10.934  32.889  0.00  0.00     0.028 H 
ENDBRANCH  93  95
BRANCH  93  99
ATOM     99  C19 non d ame     -36.874   9.309  31.611  0.00  0.00    -0.073 C 
ATOM    100  H27 non d ame     -37.550   8.735  32.246  0.00  0.00     0.028 H 
ATOM    101  H28 non d ame     -37.253  10.325  31.504  0.00  0.00     0.028 H 
ATOM    102  H29 non d ame     -36.809   8.840  30.630  0.00  0.00     0.028 H 
ENDBRANCH  93  99
ENDBRANCH  90  93
ENDBRANCH   1  90
TORSDOF 26
ENDMDL
