MODEL 1
REMARK VINA RESULT:      -7.1      0.000      0.000
REMARK  26 active torsions:
REMARK  status: ('A' for Active; 'I' for Inactive)
REMARK    1  A    between atoms: C2_2  and  C3_3 
REMARK    2  A    between atoms: C4_6  and  C5_7 
REMARK       I    between atoms: C5_7  and  N2_9 
REMARK    3  A    between atoms: N2_9  and  C6_10 
REMARK    4  A    between atoms: C6_10  and  C7_11 
REMARK    5  A    between atoms: C6_10  and  C8_13 
REMARK       I    between atoms: C7_11  and  N3_14 
REMARK    6  A    between atoms: N3_14  and  C9_15 
REMARK    7  A    between atoms: C9_15  and  C10_16 
REMARK    8  A    between atoms: C9_15  and  C11_18 
REMARK       I    between atoms: C10_16  and  N4_21 
REMARK    9  A    between atoms: C11_18  and  C12_19 
REMARK   10  A    between atoms: C11_18  and  C13_20 
REMARK   11  A    between atoms: N4_21  and  C14_22 
REMARK   12  A    between atoms: C14_22  and  C15_23 
REMARK   13  A    between atoms: C14_22  and  C16_25 
REMARK       I    between atoms: C15_23  and  N6_40 
REMARK   14  A    between atoms: C16_25  and  C17_26 
REMARK   15  A    between atoms: C17_26  and  C18_27 
REMARK   16  A    between atoms: C17_26  and  C19_28 
REMARK   17  A    between atoms: C20_29  and  C21_30 
REMARK   18  A    between atoms: C20_29  and  C24_33 
REMARK   19  A    between atoms: C20_29  and  N6_40 
REMARK   20  A    between atoms: C21_30  and  C22_31 
REMARK   21  A    between atoms: C22_31  and  C23_32 
REMARK   22  A    between atoms: C23_32  and  O8_43 
REMARK   23  A    between atoms: C24_33  and  C25_34 
REMARK   24  A    between atoms: C28_38  and  O6_39 
REMARK   25  A    between atoms: C29_42  and  O8_43 
REMARK   26  A    between atoms: C29_42  and  C35_49 
ROOT
ATOM      1  C14 non d ame     -30.827  14.456  23.820  0.00  0.00     0.089 C 
ATOM      2  H20 non d ame     -29.742  14.496  23.715  0.00  0.00     0.087 H 
ENDROOT
BRANCH   1   3
ATOM      3  N4  non d ame     -31.188  13.076  24.105  0.00  0.00    -0.346 N 
ATOM      4  C10 non d ame     -30.546  11.946  23.339  0.00  0.00     0.241 C 
ATOM      5  O4  non d ame     -29.744  12.174  22.495  0.00  0.00    -0.271 OA
ATOM      6  H19 non d ame     -31.875  12.904  24.826  0.00  0.00     0.163 HD
BRANCH   4   7
ATOM      7  C9  non d ame     -30.928  10.524  23.651  0.00  0.00     0.092 C 
ATOM      8  H11 non d ame     -30.379  10.190  24.533  0.00  0.00     0.088 H 
BRANCH   7   9
ATOM      9  N3  non d ame     -32.355  10.460  23.979  0.00  0.00    -0.346 N 
ATOM     10  C7  non d ame     -32.774  10.346  25.354  0.00  0.00     0.240 C 
ATOM     11  O3  non d ame     -31.976  10.302  26.210  0.00  0.00    -0.271 OA
ATOM     12  H10 non d ame     -33.054  10.495  23.252  0.00  0.00     0.163 HD
BRANCH  10  13
ATOM     13  C6  non d ame     -34.295  10.276  25.697  0.00  0.00     0.086 C 
ATOM     14  H6  non d ame     -34.481  10.118  26.759  0.00  0.00     0.086 H 
BRANCH  13  15
ATOM     15  N2  non d ame     -34.915  11.544  25.350  0.00  0.00    -0.343 N 
ATOM     16  C5  non d ame     -35.697  12.264  26.358  0.00  0.00     0.273 C 
ATOM     17  O2  non d ame     -35.824  11.814  27.443  0.00  0.00    -0.266 OA
ATOM     18  H5  non d ame     -34.804  11.920  24.419  0.00  0.00     0.163 HD
BRANCH  16  19
ATOM     19  C4  non d ame     -36.356  13.607  26.005  0.00  0.00     0.154 A 
ATOM     20  C1  non d ame     -36.507  14.180  24.703  0.00  0.00    -0.017 A 
ATOM     21  C2  non d ame     -37.172  15.408  24.921  0.00  0.00     0.077 A 
ATOM     22  H1  non d ame     -36.184  13.770  23.747  0.00  0.00     0.091 H 
ATOM     23  O1  non d ame     -37.376  15.516  26.202  0.00  0.00    -0.218 OA
ATOM     24  N1  non d ame     -36.908  14.477  26.855  0.00  0.00    -0.123 NA
BRANCH  21  25
ATOM     25  C3  non d ame     -37.575  16.417  23.855  0.00  0.00    -0.029 C 
ATOM     26  H2  non d ame     -37.398  15.992  22.866  0.00  0.00     0.036 H 
ATOM     27  H3  non d ame     -38.633  16.656  23.962  0.00  0.00     0.036 H 
ATOM     28  H4  non d ame     -36.984  17.325  23.970  0.00  0.00     0.036 H 
ENDBRANCH  21  25
ENDBRANCH  16  19
ENDBRANCH  13  15
BRANCH  13  29
ATOM     29  C8  non d ame     -34.938   9.157  24.917  0.00  0.00    -0.049 C 
ATOM     30  H7  non d ame     -35.783   9.547  24.351  0.00  0.00     0.030 H 
ATOM     31  H8  non d ame     -34.208   8.728  24.229  0.00  0.00     0.030 H 
ATOM     32  H9  non d ame     -35.285   8.386  25.606  0.00  0.00     0.030 H 
ENDBRANCH  13  29
ENDBRANCH  10  13
ENDBRANCH   7   9
BRANCH   7  33
ATOM     33  C11 non d ame     -30.642   9.626  22.412  0.00  0.00    -0.033 C 
ATOM     34  H12 non d ame     -30.561  10.281  21.544  0.00  0.00     0.042 H 
BRANCH  33  35
ATOM     35  C12 non d ame     -29.285   8.870  22.557  0.00  0.00    -0.071 C 
ATOM     36  H13 non d ame     -29.173   8.163  21.735  0.00  0.00     0.028 H 
ATOM     37  H14 non d ame     -28.465   9.587  22.533  0.00  0.00     0.028 H 
ATOM     38  H15 non d ame     -29.268   8.331  23.504  0.00  0.00     0.028 H 
ENDBRANCH  33  35
BRANCH  33  39
ATOM     39  C13 non d ame     -31.820   8.632  22.158  0.00  0.00    -0.071 C 
ATOM     40  H16 non d ame     -31.665   7.726  22.745  0.00  0.00     0.028 H 
ATOM     41  H17 non d ame     -32.761   9.099  22.452  0.00  0.00     0.028 H 
ATOM     42  H18 non d ame     -31.858   8.376  21.100  0.00  0.00     0.028 H 
ENDBRANCH  33  39
ENDBRANCH   7  33
ENDBRANCH   4   7
ENDBRANCH   1   3
BRANCH   1  43
ATOM     43  C15 non d ame     -31.338  15.353  24.984  0.00  0.00     0.240 C 
ATOM     44  O5  non d ame     -30.816  16.399  25.197  0.00  0.00    -0.271 OA
ATOM     45  N6  non d ame     -32.485  14.911  25.827  0.00  0.00    -0.355 N 
ATOM     46  H46 non d ame     -32.940  14.027  25.652  0.00  0.00     0.162 HD
BRANCH  45  47
ATOM     47  C20 non d ame     -32.961  15.776  26.930  0.00  0.00     0.013 C 
ATOM     48  H30 non d ame     -32.129  16.407  27.243  0.00  0.00     0.072 H 
BRANCH  47  49
ATOM     49  C21 non d ame     -33.415  14.910  28.083  0.00  0.00    -0.038 C 
ATOM     50  H31 non d ame     -34.281  15.419  28.510  0.00  0.00     0.036 H 
ATOM     51  H32 non d ame     -33.521  13.906  27.673  0.00  0.00     0.036 H 
BRANCH  49  52
ATOM     52  C22 non d ame     -32.366  14.814  29.211  0.00  0.00     0.018 C 
ATOM     53  H33 non d ame     -31.919  15.805  29.284  0.00  0.00     0.048 H 
ATOM     54  H34 non d ame     -32.892  14.390  30.067  0.00  0.00     0.048 H 
BRANCH  52  55
ATOM     55  C23 non d ame     -31.198  13.839  28.899  0.00  0.00     0.259 C 
ATOM     56  O7  non d ame     -30.330  14.155  28.152  0.00  0.00    -0.265 OA
BRANCH  55  57
ATOM     57  O8  non d ame     -31.184  12.552  29.506  0.00  0.00    -0.317 OA
BRANCH  57  58
ATOM     58  C29 non d ame     -31.911  12.481  30.736  0.00  0.00     0.052 C 
ATOM     59  H47 non d ame     -31.183  12.189  31.493  0.00  0.00     0.082 H 
ATOM     60  H48 non d ame     -32.438  13.431  30.823  0.00  0.00     0.082 H 
BRANCH  58  61
ATOM     61  C35 non d ame     -32.964  11.347  30.605  0.00  0.00    -0.034 A 
ATOM     62  C30 non d ame     -33.928  11.175  31.594  0.00  0.00    -0.075 A 
ATOM     63  C31 non d ame     -34.874  10.157  31.476  0.00  0.00    -0.082 A 
ATOM     64  H49 non d ame     -33.943  11.837  32.459  0.00  0.00     0.084 H 
ATOM     65  C32 non d ame     -34.850   9.307  30.367  0.00  0.00    -0.083 A 
ATOM     66  H50 non d ame     -35.629  10.025  32.252  0.00  0.00     0.083 H 
ATOM     67  C33 non d ame     -33.884   9.481  29.386  0.00  0.00    -0.082 A 
ATOM     68  H51 non d ame     -35.586   8.510  30.268  0.00  0.00     0.083 H 
ATOM     69  C34 non d ame     -32.939  10.499  29.497  0.00  0.00    -0.075 A 
ATOM     70  H52 non d ame     -33.867   8.815  28.522  0.00  0.00     0.083 H 
ATOM     71  H53 non d ame     -32.184  10.629  28.722  0.00  0.00     0.084 H 
ENDBRANCH  58  61
ENDBRANCH  57  58
ENDBRANCH  55  57
ENDBRANCH  52  55
ENDBRANCH  49  52
ENDBRANCH  47  49
BRANCH  47  72
ATOM     72  C24 non d ame     -34.126  16.635  26.446  0.00  0.00    -0.039 C 
ATOM     73  H35 non d ame     -34.377  16.252  25.456  0.00  0.00     0.036 H 
ATOM     74  H36 non d ame     -34.864  16.600  27.247  0.00  0.00     0.036 H 
BRANCH  72  75
ATOM     75  C25 non d ame     -33.698  18.168  26.266  0.00  0.00    -0.001 C 
ATOM     76  C26 non d ame     -32.561  18.566  27.385  0.00  0.00    -0.035 C 
ATOM     77  C27 non d ame     -32.954  19.695  28.023  0.00  0.00     0.085 C 
ATOM     78  H38 non d ame     -32.539  17.819  28.178  0.00  0.00     0.036 H 
ATOM     79  H39 non d ame     -31.637  18.864  26.889  0.00  0.00     0.036 H 
ATOM     80  N5  non d ame     -34.405  19.918  27.673  0.00  0.00    -0.049 N 
ATOM     81  H40 non d ame     -32.877  19.469  29.088  0.00  0.00     0.075 H 
ATOM     82  H41 non d ame     -32.357  20.497  27.591  0.00  0.00     0.075 H 
ATOM     83  C28 non d ame     -34.710  18.957  26.411  0.00  0.00     0.193 C 
ATOM     84  H42 non d ame     -34.945  19.593  28.462  0.00  0.00     0.280 HD
ATOM     85  H43 non d ame     -34.482  20.879  27.371  0.00  0.00     0.280 HD
ATOM     86  H44 non d ame     -34.786  19.370  25.406  0.00  0.00     0.129 H 
ATOM     87  H37 non d ame     -33.480  18.417  25.227  0.00  0.00     0.046 H 
BRANCH  83  88
ATOM     88  O6  non d ame     -35.928  18.239  26.622  0.00  0.00    -0.369 OA
ATOM     89  H45 non d ame     -36.140  18.237  27.558  0.00  0.00     0.212 HD
ENDBRANCH  83  88
ENDBRANCH  72  75
ENDBRANCH  47  72
ENDBRANCH  45  47
ENDBRANCH   1  43
BRANCH   1  90
ATOM     90  C16 non d ame     -31.487  14.883  22.519  0.00  0.00    -0.035 C 
ATOM     91  H21 non d ame     -31.720  13.956  21.996  0.00  0.00     0.037 H 
ATOM     92  H22 non d ame     -32.289  15.560  22.810  0.00  0.00     0.037 H 
BRANCH  90  93
ATOM     93  C17 non d ame     -30.544  15.695  21.574  0.00  0.00    -0.059 C 
ATOM     94  H23 non d ame     -30.818  16.746  21.657  0.00  0.00     0.038 H 
BRANCH  93  95
ATOM     95  C18 non d ame     -29.042  15.559  21.982  0.00  0.00    -0.073 C 
ATOM     96  H24 non d ame     -28.938  15.745  23.051  0.00  0.00     0.028 H 
ATOM     97  H25 non d ame     -28.694  14.551  21.754  0.00  0.00     0.028 H 
ATOM     98  H26 non d ame     -28.448  16.284  21.427  0.00  0.00     0.028 H 
ENDBRANCH  93  95
BRANCH  93  99
ATOM     99  C19 non d ame     -30.750  15.286  20.113  0.00  0.00    -0.073 C 
ATOM    100  H27 non d ame     -30.338  16.055  19.459  0.00  0.00     0.028 H 
ATOM    101  H28 non d ame     -30.243  14.340  19.925  0.00  0.00     0.028 H 
ATOM    102  H29 non d ame     -31.815  15.172  19.915  0.00  0.00     0.028 H 
ENDBRANCH  93  99
ENDBRANCH  90  93
ENDBRANCH   1  90
TORSDOF 26
ENDMDL
MODEL 2
REMARK VINA RESULT:      -7.1      1.565      2.285
REMARK  26 active torsions:
REMARK  status: ('A' for Active; 'I' for Inactive)
REMARK    1  A    between atoms: C2_2  and  C3_3 
REMARK    2  A    between atoms: C4_6  and  C5_7 
REMARK       I    between atoms: C5_7  and  N2_9 
REMARK    3  A    between atoms: N2_9  and  C6_10 
REMARK    4  A    between atoms: C6_10  and  C7_11 
REMARK    5  A    between atoms: C6_10  and  C8_13 
REMARK       I    between atoms: C7_11  and  N3_14 
REMARK    6  A    between atoms: N3_14  and  C9_15 
REMARK    7  A    between atoms: C9_15  and  C10_16 
REMARK    8  A    between atoms: C9_15  and  C11_18 
REMARK       I    between atoms: C10_16  and  N4_21 
REMARK    9  A    between atoms: C11_18  and  C12_19 
REMARK   10  A    between atoms: C11_18  and  C13_20 
REMARK   11  A    between atoms: N4_21  and  C14_22 
REMARK   12  A    between atoms: C14_22  and  C15_23 
REMARK   13  A    between atoms: C14_22  and  C16_25 
REMARK       I    between atoms: C15_23  and  N6_40 
REMARK   14  A    between atoms: C16_25  and  C17_26 
REMARK   15  A    between atoms: C17_26  and  C18_27 
REMARK   16  A    between atoms: C17_26  and  C19_28 
REMARK   17  A    between atoms: C20_29  and  C21_30 
REMARK   18  A    between atoms: C20_29  and  C24_33 
REMARK   19  A    between atoms: C20_29  and  N6_40 
REMARK   20  A    between atoms: C21_30  and  C22_31 
REMARK   21  A    between atoms: C22_31  and  C23_32 
REMARK   22  A    between atoms: C23_32  and  O8_43 
REMARK   23  A    between atoms: C24_33  and  C25_34 
REMARK   24  A    between atoms: C28_38  and  O6_39 
REMARK   25  A    between atoms: C29_42  and  O8_43 
REMARK   26  A    between atoms: C29_42  and  C35_49 
ROOT
ATOM      1  C14 non d ame     -31.074  14.066  24.413  0.00  0.00     0.089 C 
ATOM      2  H20 non d ame     -30.085  13.659  24.629  0.00  0.00     0.087 H 
ENDROOT
BRANCH   1   3
ATOM      3  N4  non d ame     -32.040  12.997  24.613  0.00  0.00    -0.346 N 
ATOM      4  C10 non d ame     -31.818  11.959  25.685  0.00  0.00     0.241 C 
ATOM      5  O4  non d ame     -30.853  12.003  26.372  0.00  0.00    -0.271 OA
ATOM      6  H19 non d ame     -32.855  12.976  24.016  0.00  0.00     0.163 HD
BRANCH   4   7
ATOM      7  C9  non d ame     -32.833  10.863  25.880  0.00  0.00     0.092 C 
ATOM      8  H11 non d ame     -32.987  10.704  26.948  0.00  0.00     0.088 H 
BRANCH   7   9
ATOM      9  N3  non d ame     -34.118  11.279  25.313  0.00  0.00    -0.346 N 
ATOM     10  C7  non d ame     -35.177  11.731  26.183  0.00  0.00     0.240 C 
ATOM     11  O3  non d ame     -35.012  11.764  27.341  0.00  0.00    -0.271 OA
ATOM     12  H10 non d ame     -34.276  11.255  24.317  0.00  0.00     0.163 HD
BRANCH  10  13
ATOM     13  C6  non d ame     -36.545  12.169  25.573  0.00  0.00     0.086 C 
ATOM     14  H6  non d ame     -37.390  11.929  26.219  0.00  0.00     0.086 H 
BRANCH  13  15
ATOM     15  N2  non d ame     -36.545  13.614  25.408  0.00  0.00    -0.343 N 
ATOM     16  C5  non d ame     -37.488  14.428  26.179  0.00  0.00     0.273 C 
ATOM     17  O2  non d ame     -38.243  13.911  26.927  0.00  0.00    -0.266 OA
ATOM     18  H5  non d ame     -35.899  14.046  24.764  0.00  0.00     0.163 HD
BRANCH  16  19
ATOM     19  C4  non d ame     -37.498  15.955  26.016  0.00  0.00     0.154 A 
ATOM     20  C1  non d ame     -37.119  16.704  24.857  0.00  0.00    -0.017 A 
ATOM     21  C2  non d ame     -37.308  18.056  25.218  0.00  0.00     0.077 A 
ATOM     22  H1  non d ame     -36.759  16.324  23.900  0.00  0.00     0.091 H 
ATOM     23  O1  non d ame     -37.748  18.071  26.443  0.00  0.00    -0.218 OA
ATOM     24  N1  non d ame     -37.866  16.857  26.929  0.00  0.00    -0.123 NA
BRANCH  21  25
ATOM     25  C3  non d ame     -37.048  19.270  24.337  0.00  0.00    -0.029 C 
ATOM     26  H2  non d ame     -36.034  19.220  23.940  0.00  0.00     0.036 H 
ATOM     27  H3  non d ame     -37.760  19.280  23.512  0.00  0.00     0.036 H 
ATOM     28  H4  non d ame     -37.162  20.179  24.927  0.00  0.00     0.036 H 
ENDBRANCH  21  25
ENDBRANCH  16  19
ENDBRANCH  13  15
BRANCH  13  29
ATOM     29  C8  non d ame     -36.743  11.497  24.238  0.00  0.00    -0.049 C 
ATOM     30  H7  non d ame     -35.912  11.746  23.579  0.00  0.00     0.030 H 
ATOM     31  H8  non d ame     -36.784  10.417  24.379  0.00  0.00     0.030 H 
ATOM     32  H9  non d ame     -37.676  11.841  23.793  0.00  0.00     0.030 H 
ENDBRANCH  13  29
ENDBRANCH  10  13
ENDBRANCH   7   9
BRANCH   7  33
ATOM     33  C11 non d ame     -32.345   9.572  25.162  0.00  0.00    -0.033 C 
ATOM     34  H12 non d ame     -31.257   9.621  25.100  0.00  0.00     0.042 H 
BRANCH  33  35
ATOM     35  C12 non d ame     -32.711   8.293  25.978  0.00  0.00    -0.071 C 
ATOM     36  H13 non d ame     -33.491   7.739  25.455  0.00  0.00     0.028 H 
ATOM     37  H14 non d ame     -31.827   7.664  26.083  0.00  0.00     0.028 H 
ATOM     38  H15 non d ame     -33.072   8.582  26.965  0.00  0.00     0.028 H 
ENDBRANCH  33  35
BRANCH  33  39
ATOM     39  C13 non d ame     -32.907   9.495  23.706  0.00  0.00    -0.071 C 
ATOM     40  H16 non d ame     -33.916   9.909  23.683  0.00  0.00     0.028 H 
ATOM     41  H17 non d ame     -32.264  10.068  23.037  0.00  0.00     0.028 H 
ATOM     42  H18 non d ame     -32.934   8.456  23.381  0.00  0.00     0.028 H 
ENDBRANCH  33  39
ENDBRANCH   7  33
ENDBRANCH   4   7
ENDBRANCH   1   3
BRANCH   1  43
ATOM     43  C15 non d ame     -31.441  15.248  25.355  0.00  0.00     0.240 C 
ATOM     44  O5  non d ame     -31.087  16.350  25.085  0.00  0.00    -0.271 OA
ATOM     45  N6  non d ame     -32.242  15.008  26.588  0.00  0.00    -0.355 N 
ATOM     46  H46 non d ame     -32.553  14.077  26.825  0.00  0.00     0.162 HD
BRANCH  45  47
ATOM     47  C20 non d ame     -32.585  16.143  27.473  0.00  0.00     0.013 C 
ATOM     48  H30 non d ame     -31.851  16.931  27.307  0.00  0.00     0.072 H 
BRANCH  47  49
ATOM     49  C21 non d ame     -32.537  15.686  28.914  0.00  0.00    -0.038 C 
ATOM     50  H31 non d ame     -31.489  15.759  29.210  0.00  0.00     0.036 H 
ATOM     51  H32 non d ame     -33.292  16.273  29.434  0.00  0.00     0.036 H 
BRANCH  49  52
ATOM     52  C22 non d ame     -32.937  14.205  29.087  0.00  0.00     0.018 C 
ATOM     53  H33 non d ame     -33.693  14.193  29.870  0.00  0.00     0.048 H 
ATOM     54  H34 non d ame     -33.183  13.848  28.086  0.00  0.00     0.048 H 
BRANCH  52  55
ATOM     55  C23 non d ame     -31.781  13.299  29.592  0.00  0.00     0.259 C 
ATOM     56  O7  non d ame     -30.667  13.475  29.217  0.00  0.00    -0.265 OA
BRANCH  55  57
ATOM     57  O8  non d ame     -32.070  12.242  30.500  0.00  0.00    -0.317 OA
BRANCH  57  58
ATOM     58  C29 non d ame     -32.560  11.054  29.872  0.00  0.00     0.052 C 
ATOM     59  H47 non d ame     -33.011  11.380  28.936  0.00  0.00     0.082 H 
ATOM     60  H48 non d ame     -31.722  10.358  29.861  0.00  0.00     0.082 H 
BRANCH  58  61
ATOM     61  C35 non d ame     -33.677  10.462  30.774  0.00  0.00    -0.034 A 
ATOM     62  C30 non d ame     -34.200   9.202  30.497  0.00  0.00    -0.075 A 
ATOM     63  C31 non d ame     -35.204   8.671  31.306  0.00  0.00    -0.082 A 
ATOM     64  H49 non d ame     -33.826   8.633  29.647  0.00  0.00     0.084 H 
ATOM     65  C32 non d ame     -35.685   9.404  32.394  0.00  0.00    -0.083 A 
ATOM     66  H50 non d ame     -35.611   7.683  31.088  0.00  0.00     0.083 H 
ATOM     67  C33 non d ame     -35.162  10.661  32.664  0.00  0.00    -0.082 A 
ATOM     68  H51 non d ame     -36.468   8.995  33.032  0.00  0.00     0.083 H 
ATOM     69  C34 non d ame     -34.158  11.196  31.859  0.00  0.00    -0.075 A 
ATOM     70  H52 non d ame     -35.540  11.232  33.513  0.00  0.00     0.083 H 
ATOM     71  H53 non d ame     -33.751  12.183  32.079  0.00  0.00     0.084 H 
ENDBRANCH  58  61
ENDBRANCH  57  58
ENDBRANCH  55  57
ENDBRANCH  52  55
ENDBRANCH  49  52
ENDBRANCH  47  49
BRANCH  47  72
ATOM     72  C24 non d ame     -33.989  16.648  27.145  0.00  0.00    -0.039 C 
ATOM     73  H35 non d ame     -34.283  16.117  26.239  0.00  0.00     0.036 H 
ATOM     74  H36 non d ame     -34.564  16.521  28.062  0.00  0.00     0.036 H 
BRANCH  72  75
ATOM     75  C25 non d ame     -33.990  18.212  26.799  0.00  0.00    -0.001 C 
ATOM     76  C26 non d ame     -32.465  18.814  26.925  0.00  0.00    -0.035 C 
ATOM     77  C27 non d ame     -32.493  19.913  27.715  0.00  0.00     0.085 C 
ATOM     78  H38 non d ame     -31.833  18.119  27.476  0.00  0.00     0.036 H 
ATOM     79  H39 non d ame     -32.136  19.202  25.960  0.00  0.00     0.036 H 
ATOM     80  N5  non d ame     -33.836  19.926  28.405  0.00  0.00    -0.049 N 
ATOM     81  H40 non d ame     -31.712  19.756  28.461  0.00  0.00     0.075 H 
ATOM     82  H41 non d ame     -32.435  20.763  27.036  0.00  0.00     0.075 H 
ATOM     83  C28 non d ame     -34.757  18.869  27.605  0.00  0.00     0.193 C 
ATOM     84  H42 non d ame     -33.682  19.576  29.340  0.00  0.00     0.280 HD
ATOM     85  H43 non d ame     -34.217  20.852  28.270  0.00  0.00     0.280 HD
ATOM     86  H44 non d ame     -35.522  19.215  26.912  0.00  0.00     0.129 H 
ATOM     87  H37 non d ame     -34.536  18.432  25.882  0.00  0.00     0.046 H 
BRANCH  83  88
ATOM     88  O6  non d ame     -35.434  18.010  28.525  0.00  0.00    -0.369 OA
ATOM     89  H45 non d ame     -35.055  18.116  29.400  0.00  0.00     0.212 HD
ENDBRANCH  83  88
ENDBRANCH  72  75
ENDBRANCH  47  72
ENDBRANCH  45  47
ENDBRANCH   1  43
BRANCH   1  90
ATOM     90  C16 non d ame     -31.136  14.527  22.966  0.00  0.00    -0.035 C 
ATOM     91  H21 non d ame     -31.910  13.917  22.501  0.00  0.00     0.037 H 
ATOM     92  H22 non d ame     -31.251  15.610  23.012  0.00  0.00     0.037 H 
BRANCH  90  93
ATOM     93  C17 non d ame     -29.823  14.257  22.165  0.00  0.00    -0.059 C 
ATOM     94  H23 non d ame     -29.981  14.601  21.143  0.00  0.00     0.038 H 
BRANCH  93  95
ATOM     95  C18 non d ame     -28.604  15.040  22.749  0.00  0.00    -0.073 C 
ATOM     96  H24 non d ame     -28.425  15.933  22.150  0.00  0.00     0.028 H 
ATOM     97  H25 non d ame     -28.819  15.332  23.778  0.00  0.00     0.028 H 
ATOM     98  H26 non d ame     -27.719  14.405  22.729  0.00  0.00     0.028 H 
ENDBRANCH  93  95
BRANCH  93  99
ATOM     99  C19 non d ame     -29.523  12.757  22.097  0.00  0.00    -0.073 C 
ATOM    100  H27 non d ame     -30.063  12.242  22.892  0.00  0.00     0.028 H 
ATOM    101  H28 non d ame     -29.841  12.366  21.130  0.00  0.00     0.028 H 
ATOM    102  H29 non d ame     -28.453  12.594  22.219  0.00  0.00     0.028 H 
ENDBRANCH  93  99
ENDBRANCH  90  93
ENDBRANCH   1  90
TORSDOF 26
ENDMDL
MODEL 3
REMARK VINA RESULT:      -7.0      3.371      6.461
REMARK  26 active torsions:
REMARK  status: ('A' for Active; 'I' for Inactive)
REMARK    1  A    between atoms: C2_2  and  C3_3 
REMARK    2  A    between atoms: C4_6  and  C5_7 
REMARK       I    between atoms: C5_7  and  N2_9 
REMARK    3  A    between atoms: N2_9  and  C6_10 
REMARK    4  A    between atoms: C6_10  and  C7_11 
REMARK    5  A    between atoms: C6_10  and  C8_13 
REMARK       I    between atoms: C7_11  and  N3_14 
REMARK    6  A    between atoms: N3_14  and  C9_15 
REMARK    7  A    between atoms: C9_15  and  C10_16 
REMARK    8  A    between atoms: C9_15  and  C11_18 
REMARK       I    between atoms: C10_16  and  N4_21 
REMARK    9  A    between atoms: C11_18  and  C12_19 
REMARK   10  A    between atoms: C11_18  and  C13_20 
REMARK   11  A    between atoms: N4_21  and  C14_22 
REMARK   12  A    between atoms: C14_22  and  C15_23 
REMARK   13  A    between atoms: C14_22  and  C16_25 
REMARK       I    between atoms: C15_23  and  N6_40 
REMARK   14  A    between atoms: C16_25  and  C17_26 
REMARK   15  A    between atoms: C17_26  and  C18_27 
REMARK   16  A    between atoms: C17_26  and  C19_28 
REMARK   17  A    between atoms: C20_29  and  C21_30 
REMARK   18  A    between atoms: C20_29  and  C24_33 
REMARK   19  A    between atoms: C20_29  and  N6_40 
REMARK   20  A    between atoms: C21_30  and  C22_31 
REMARK   21  A    between atoms: C22_31  and  C23_32 
REMARK   22  A    between atoms: C23_32  and  O8_43 
REMARK   23  A    between atoms: C24_33  and  C25_34 
REMARK   24  A    between atoms: C28_38  and  O6_39 
REMARK   25  A    between atoms: C29_42  and  O8_43 
REMARK   26  A    between atoms: C29_42  and  C35_49 
ROOT
ATOM      1  C14 non d ame     -32.721  10.425  25.663  0.00  0.00     0.089 C 
ATOM      2  H20 non d ame     -33.563  10.499  24.975  0.00  0.00     0.087 H 
ENDROOT
BRANCH   1   3
ATOM      3  N4  non d ame     -32.189   9.074  25.560  0.00  0.00    -0.346 N 
ATOM      4  C10 non d ame     -33.014   7.976  24.937  0.00  0.00     0.241 C 
ATOM      5  O4  non d ame     -34.105   8.203  24.529  0.00  0.00    -0.271 OA
ATOM      6  H19 non d ame     -31.260   8.901  25.916  0.00  0.00     0.163 HD
BRANCH   4   7
ATOM      7  C9  non d ame     -32.446   6.585  24.834  0.00  0.00     0.092 C 
ATOM      8  H11 non d ame     -31.380   6.616  25.062  0.00  0.00     0.088 H 
BRANCH   7   9
ATOM      9  N3  non d ame     -33.079   5.722  25.834  0.00  0.00    -0.346 N 
ATOM     10  C7  non d ame     -32.684   5.813  27.218  0.00  0.00     0.240 C 
ATOM     11  O3  non d ame     -31.856   6.574  27.544  0.00  0.00    -0.271 OA
ATOM     12  H10 non d ame     -33.793   5.059  25.569  0.00  0.00     0.163 HD
BRANCH  10  13
ATOM     13  C6  non d ame     -33.359   4.889  28.279  0.00  0.00     0.086 C 
ATOM     14  H6  non d ame     -32.739   4.737  29.162  0.00  0.00     0.086 H 
BRANCH  13  15
ATOM     15  N2  non d ame     -34.588   5.517  28.736  0.00  0.00    -0.343 N 
ATOM     16  C5  non d ame     -34.912   5.511  30.165  0.00  0.00     0.273 C 
ATOM     17  O2  non d ame     -34.180   4.997  30.937  0.00  0.00    -0.266 OA
ATOM     18  H5  non d ame     -35.209   5.950  28.069  0.00  0.00     0.163 HD
BRANCH  16  19
ATOM     19  C4  non d ame     -36.207   6.172  30.662  0.00  0.00     0.154 A 
ATOM     20  C1  non d ame     -36.505   7.571  30.697  0.00  0.00    -0.017 A 
ATOM     21  C2  non d ame     -37.809   7.652  31.235  0.00  0.00     0.077 A 
ATOM     22  H1  non d ame     -35.873   8.401  30.381  0.00  0.00     0.091 H 
ATOM     23  O1  non d ame     -38.205   6.436  31.475  0.00  0.00    -0.218 OA
ATOM     24  N1  non d ame     -37.286   5.555  31.150  0.00  0.00    -0.123 NA
BRANCH  21  25
ATOM     25  C3  non d ame     -38.604   8.926  31.486  0.00  0.00    -0.029 C 
ATOM     26  H2  non d ame     -38.946   9.334  30.534  0.00  0.00     0.036 H 
ATOM     27  H3  non d ame     -39.465   8.700  32.114  0.00  0.00     0.036 H 
ATOM     28  H4  non d ame     -37.971   9.657  31.987  0.00  0.00     0.036 H 
ENDBRANCH  21  25
ENDBRANCH  16  19
ENDBRANCH  13  15
BRANCH  13  29
ATOM     29  C8  non d ame     -33.664   3.548  27.660  0.00  0.00    -0.049 C 
ATOM     30  H7  non d ame     -34.489   3.651  26.957  0.00  0.00     0.030 H 
ATOM     31  H8  non d ame     -32.782   3.182  27.133  0.00  0.00     0.030 H 
ATOM     32  H9  non d ame     -33.939   2.840  28.443  0.00  0.00     0.030 H 
ENDBRANCH  13  29
ENDBRANCH  10  13
ENDBRANCH   7   9
BRANCH   7  33
ATOM     33  C11 non d ame     -32.722   6.017  23.412  0.00  0.00    -0.033 C 
ATOM     34  H12 non d ame     -33.561   6.574  22.993  0.00  0.00     0.042 H 
BRANCH  33  35
ATOM     35  C12 non d ame     -31.500   6.229  22.465  0.00  0.00    -0.071 C 
ATOM     36  H13 non d ame     -31.743   5.860  21.469  0.00  0.00     0.028 H 
ATOM     37  H14 non d ame     -31.263   7.291  22.411  0.00  0.00     0.028 H 
ATOM     38  H15 non d ame     -30.640   5.683  22.854  0.00  0.00     0.028 H 
ENDBRANCH  33  35
BRANCH  33  39
ATOM     39  C13 non d ame     -33.130   4.510  23.481  0.00  0.00    -0.071 C 
ATOM     40  H16 non d ame     -33.577   4.298  24.453  0.00  0.00     0.028 H 
ATOM     41  H17 non d ame     -33.853   4.292  22.694  0.00  0.00     0.028 H 
ATOM     42  H18 non d ame     -32.247   3.888  23.343  0.00  0.00     0.028 H 
ENDBRANCH  33  39
ENDBRANCH   7  33
ENDBRANCH   4   7
ENDBRANCH   1   3
BRANCH   1  43
ATOM     43  C15 non d ame     -31.587  11.431  25.316  0.00  0.00     0.240 C 
ATOM     44  O5  non d ame     -30.459  11.060  25.280  0.00  0.00    -0.271 OA
ATOM     45  N6  non d ame     -31.909  12.855  25.017  0.00  0.00    -0.355 N 
ATOM     46  H46 non d ame     -32.866  13.181  25.039  0.00  0.00     0.162 HD
BRANCH  45  47
ATOM     47  C20 non d ame     -30.820  13.800  24.686  0.00  0.00     0.013 C 
ATOM     48  H30 non d ame     -29.904  13.430  25.146  0.00  0.00     0.072 H 
BRANCH  47  49
ATOM     49  C21 non d ame     -31.159  15.167  25.238  0.00  0.00    -0.038 C 
ATOM     50  H31 non d ame     -30.725  15.197  26.238  0.00  0.00     0.036 H 
ATOM     51  H32 non d ame     -30.833  15.879  24.481  0.00  0.00     0.036 H 
BRANCH  49  52
ATOM     52  C22 non d ame     -32.678  15.382  25.416  0.00  0.00     0.018 C 
ATOM     53  H33 non d ame     -33.017  15.863  24.500  0.00  0.00     0.048 H 
ATOM     54  H34 non d ame     -33.081  14.409  25.702  0.00  0.00     0.048 H 
BRANCH  52  55
ATOM     55  C23 non d ame     -33.042  16.354  26.571  0.00  0.00     0.259 C 
ATOM     56  O7  non d ame     -33.583  17.387  26.344  0.00  0.00    -0.265 OA
BRANCH  55  57
ATOM     57  O8  non d ame     -32.707  16.002  27.909  0.00  0.00    -0.317 OA
BRANCH  57  58
ATOM     58  C29 non d ame     -33.508  14.947  28.450  0.00  0.00     0.052 C 
ATOM     59  H47 non d ame     -34.071  15.394  29.268  0.00  0.00     0.082 H 
ATOM     60  H48 non d ame     -34.032  14.509  27.601  0.00  0.00     0.082 H 
BRANCH  58  61
ATOM     61  C35 non d ame     -32.552  13.876  29.042  0.00  0.00    -0.034 A 
ATOM     62  C30 non d ame     -33.003  13.013  30.036  0.00  0.00    -0.075 A 
ATOM     63  C31 non d ame     -32.144  12.051  30.568  0.00  0.00    -0.082 A 
ATOM     64  H49 non d ame     -34.027  13.091  30.400  0.00  0.00     0.084 H 
ATOM     65  C32 non d ame     -30.830  11.956  30.102  0.00  0.00    -0.083 A 
ATOM     66  H50 non d ame     -32.501  11.376  31.346  0.00  0.00     0.083 H 
ATOM     67  C33 non d ame     -30.384  12.820  29.112  0.00  0.00    -0.082 A 
ATOM     68  H51 non d ame     -30.153  11.206  30.512  0.00  0.00     0.083 H 
ATOM     69  C34 non d ame     -31.239  13.782  28.577  0.00  0.00    -0.075 A 
ATOM     70  H52 non d ame     -29.357  12.745  28.753  0.00  0.00     0.083 H 
ATOM     71  H53 non d ame     -30.881  14.456  27.799  0.00  0.00     0.084 H 
ENDBRANCH  58  61
ENDBRANCH  57  58
ENDBRANCH  55  57
ENDBRANCH  52  55
ENDBRANCH  49  52
ENDBRANCH  47  49
BRANCH  47  72
ATOM     72  C24 non d ame     -30.655  13.888  23.170  0.00  0.00    -0.039 C 
ATOM     73  H35 non d ame     -29.892  13.151  22.919  0.00  0.00     0.036 H 
ATOM     74  H36 non d ame     -31.661  13.791  22.763  0.00  0.00     0.036 H 
BRANCH  72  75
ATOM     75  C25 non d ame     -30.098  15.320  22.717  0.00  0.00    -0.001 C 
ATOM     76  C26 non d ame     -31.238  16.109  21.834  0.00  0.00    -0.035 C 
ATOM     77  C27 non d ame     -30.676  16.534  20.676  0.00  0.00     0.085 C 
ATOM     78  H38 non d ame     -32.006  15.410  21.503  0.00  0.00     0.036 H 
ATOM     79  H39 non d ame     -31.522  17.036  22.333  0.00  0.00     0.036 H 
ATOM     80  N5  non d ame     -29.351  15.824  20.542  0.00  0.00    -0.049 N 
ATOM     81  H40 non d ame     -31.344  16.191  19.885  0.00  0.00     0.075 H 
ATOM     82  H41 non d ame     -30.496  17.600  20.813  0.00  0.00     0.075 H 
ATOM     83  C28 non d ame     -29.032  15.200  21.997  0.00  0.00     0.193 C 
ATOM     84  H42 non d ame     -29.496  15.066  19.892  0.00  0.00     0.280 HD
ATOM     85  H43 non d ame     -28.664  16.538  20.341  0.00  0.00     0.280 HD
ATOM     86  H44 non d ame     -28.298  15.667  22.651  0.00  0.00     0.129 H 
ATOM     87  H37 non d ame     -29.643  15.867  23.543  0.00  0.00     0.046 H 
BRANCH  83  88
ATOM     88  O6  non d ame     -28.618  13.838  21.869  0.00  0.00    -0.369 OA
ATOM     89  H45 non d ame     -27.712  13.807  21.554  0.00  0.00     0.212 HD
ENDBRANCH  83  88
ENDBRANCH  72  75
ENDBRANCH  47  72
ENDBRANCH  45  47
ENDBRANCH   1  43
BRANCH   1  90
ATOM     90  C16 non d ame     -33.197  10.663  27.087  0.00  0.00    -0.035 C 
ATOM     91  H21 non d ame     -32.916   9.767  27.640  0.00  0.00     0.037 H 
ATOM     92  H22 non d ame     -32.783  11.630  27.372  0.00  0.00     0.037 H 
BRANCH  90  93
ATOM     93  C17 non d ame     -34.748  10.791  27.217  0.00  0.00    -0.059 C 
ATOM     94  H23 non d ame     -35.198  10.084  26.520  0.00  0.00     0.038 H 
BRANCH  93  95
ATOM     95  C18 non d ame     -35.251  10.432  28.651  0.00  0.00    -0.073 C 
ATOM     96  H24 non d ame     -36.011   9.653  28.586  0.00  0.00     0.028 H 
ATOM     97  H25 non d ame     -34.415  10.072  29.250  0.00  0.00     0.028 H 
ATOM     98  H26 non d ame     -35.678  11.319  29.119  0.00  0.00     0.028 H 
ENDBRANCH  93  95
BRANCH  93  99
ATOM     99  C19 non d ame     -35.217  12.191  26.810  0.00  0.00    -0.073 C 
ATOM    100  H27 non d ame     -36.065  12.107  26.129  0.00  0.00     0.028 H 
ATOM    101  H28 non d ame     -35.519  12.746  27.698  0.00  0.00     0.028 H 
ATOM    102  H29 non d ame     -34.403  12.717  26.313  0.00  0.00     0.028 H 
ENDBRANCH  93  99
ENDBRANCH  90  93
ENDBRANCH   1  90
TORSDOF 26
ENDMDL
MODEL 4
REMARK VINA RESULT:      -7.0      0.903      1.384
REMARK  26 active torsions:
REMARK  status: ('A' for Active; 'I' for Inactive)
REMARK    1  A    between atoms: C2_2  and  C3_3 
REMARK    2  A    between atoms: C4_6  and  C5_7 
REMARK       I    between atoms: C5_7  and  N2_9 
REMARK    3  A    between atoms: N2_9  and  C6_10 
REMARK    4  A    between atoms: C6_10  and  C7_11 
REMARK    5  A    between atoms: C6_10  and  C8_13 
REMARK       I    between atoms: C7_11  and  N3_14 
REMARK    6  A    between atoms: N3_14  and  C9_15 
REMARK    7  A    between atoms: C9_15  and  C10_16 
REMARK    8  A    between atoms: C9_15  and  C11_18 
REMARK       I    between atoms: C10_16  and  N4_21 
REMARK    9  A    between atoms: C11_18  and  C12_19 
REMARK   10  A    between atoms: C11_18  and  C13_20 
REMARK   11  A    between atoms: N4_21  and  C14_22 
REMARK   12  A    between atoms: C14_22  and  C15_23 
REMARK   13  A    between atoms: C14_22  and  C16_25 
REMARK       I    between atoms: C15_23  and  N6_40 
REMARK   14  A    between atoms: C16_25  and  C17_26 
REMARK   15  A    between atoms: C17_26  and  C18_27 
REMARK   16  A    between atoms: C17_26  and  C19_28 
REMARK   17  A    between atoms: C20_29  and  C21_30 
REMARK   18  A    between atoms: C20_29  and  C24_33 
REMARK   19  A    between atoms: C20_29  and  N6_40 
REMARK   20  A    between atoms: C21_30  and  C22_31 
REMARK   21  A    between atoms: C22_31  and  C23_32 
REMARK   22  A    between atoms: C23_32  and  O8_43 
REMARK   23  A    between atoms: C24_33  and  C25_34 
REMARK   24  A    between atoms: C28_38  and  O6_39 
REMARK   25  A    between atoms: C29_42  and  O8_43 
REMARK   26  A    between atoms: C29_42  and  C35_49 
ROOT
ATOM      1  C14 non d ame     -30.920  14.724  23.673  0.00  0.00     0.089 C 
ATOM      2  H20 non d ame     -29.832  14.744  23.609  0.00  0.00     0.087 H 
ENDROOT
BRANCH   1   3
ATOM      3  N4  non d ame     -31.314  13.366  24.017  0.00  0.00    -0.346 N 
ATOM      4  C10 non d ame     -30.625  12.187  23.376  0.00  0.00     0.241 C 
ATOM      5  O4  non d ame     -29.759  12.357  22.583  0.00  0.00    -0.271 OA
ATOM      6  H19 non d ame     -32.055  13.243  24.693  0.00  0.00     0.163 HD
BRANCH   4   7
ATOM      7  C9  non d ame     -31.041  10.789  23.749  0.00  0.00     0.092 C 
ATOM      8  H11 non d ame     -30.542  10.501  24.675  0.00  0.00     0.088 H 
BRANCH   7   9
ATOM      9  N3  non d ame     -32.483  10.760  24.006  0.00  0.00    -0.346 N 
ATOM     10  C7  non d ame     -33.000  10.019  25.130  0.00  0.00     0.240 C 
ATOM     11  O3  non d ame     -32.269   9.440  25.838  0.00  0.00    -0.271 OA
ATOM     12  H10 non d ame     -33.126  11.253  23.404  0.00  0.00     0.163 HD
BRANCH  10  13
ATOM     13  C6  non d ame     -34.537   9.989  25.397  0.00  0.00     0.086 C 
ATOM     14  H6  non d ame     -34.781   9.718  26.424  0.00  0.00     0.086 H 
BRANCH  13  15
ATOM     15  N2  non d ame     -35.079  11.320  25.179  0.00  0.00    -0.343 N 
ATOM     16  C5  non d ame     -36.123  11.829  26.072  0.00  0.00     0.273 C 
ATOM     17  O2  non d ame     -36.522  11.160  26.960  0.00  0.00    -0.266 OA
ATOM     18  H5  non d ame     -34.735  11.884  24.415  0.00  0.00     0.163 HD
BRANCH  16  19
ATOM     19  C4  non d ame     -36.704  13.235  25.853  0.00  0.00     0.154 A 
ATOM     20  C1  non d ame     -36.607  14.037  24.672  0.00  0.00    -0.017 A 
ATOM     21  C2  non d ame     -37.300  15.228  24.983  0.00  0.00     0.077 A 
ATOM     22  H1  non d ame     -36.110  13.793  23.734  0.00  0.00     0.091 H 
ATOM     23  O1  non d ame     -37.742  15.112  26.202  0.00  0.00    -0.218 OA
ATOM     24  N1  non d ame     -37.405  13.958  26.730  0.00  0.00    -0.123 NA
BRANCH  21  25
ATOM     25  C3  non d ame     -37.495  16.425  24.062  0.00  0.00    -0.029 C 
ATOM     26  H2  non d ame     -38.078  17.189  24.576  0.00  0.00     0.036 H 
ATOM     27  H3  non d ame     -36.523  16.834  23.787  0.00  0.00     0.036 H 
ATOM     28  H4  non d ame     -38.024  16.109  23.163  0.00  0.00     0.036 H 
ENDBRANCH  21  25
ENDBRANCH  16  19
ENDBRANCH  13  15
BRANCH  13  29
ATOM     29  C8  non d ame     -35.193   9.005  24.463  0.00  0.00    -0.049 C 
ATOM     30  H7  non d ame     -35.820   8.322  25.035  0.00  0.00     0.030 H 
ATOM     31  H8  non d ame     -35.809   9.544  23.742  0.00  0.00     0.030 H 
ATOM     32  H9  non d ame     -34.426   8.439  23.934  0.00  0.00     0.030 H 
ENDBRANCH  13  29
ENDBRANCH  10  13
ENDBRANCH   7   9
BRANCH   7  33
ATOM     33  C11 non d ame     -30.705   9.819  22.579  0.00  0.00    -0.033 C 
ATOM     34  H12 non d ame     -30.550  10.424  21.685  0.00  0.00     0.042 H 
BRANCH  33  35
ATOM     35  C12 non d ame     -29.383   9.035  22.850  0.00  0.00    -0.071 C 
ATOM     36  H13 non d ame     -28.536   9.716  22.779  0.00  0.00     0.028 H 
ATOM     37  H14 non d ame     -29.418   8.600  23.849  0.00  0.00     0.028 H 
ATOM     38  H15 non d ame     -29.273   8.241  22.111  0.00  0.00     0.028 H 
ENDBRANCH  33  35
BRANCH  33  39
ATOM     39  C13 non d ame     -31.895   8.845  22.301  0.00  0.00    -0.071 C 
ATOM     40  H16 non d ame     -32.419   9.159  21.398  0.00  0.00     0.028 H 
ATOM     41  H17 non d ame     -31.512   7.832  22.165  0.00  0.00     0.028 H 
ATOM     42  H18 non d ame     -32.583   8.861  23.145  0.00  0.00     0.028 H 
ENDBRANCH  33  39
ENDBRANCH   7  33
ENDBRANCH   4   7
ENDBRANCH   1   3
BRANCH   1  43
ATOM     43  C15 non d ame     -31.462  15.689  24.766  0.00  0.00     0.240 C 
ATOM     44  O5  non d ame     -30.702  16.320  25.426  0.00  0.00    -0.271 OA
ATOM     45  N6  non d ame     -32.930  15.833  24.982  0.00  0.00    -0.355 N 
ATOM     46  H46 non d ame     -33.585  15.306  24.423  0.00  0.00     0.162 HD
BRANCH  45  47
ATOM     47  C20 non d ame     -33.431  16.757  26.024  0.00  0.00     0.013 C 
ATOM     48  H30 non d ame     -32.578  17.082  26.621  0.00  0.00     0.072 H 
BRANCH  47  49
ATOM     49  C21 non d ame     -34.427  16.030  26.899  0.00  0.00    -0.038 C 
ATOM     50  H31 non d ame     -34.803  16.777  27.600  0.00  0.00     0.036 H 
ATOM     51  H32 non d ame     -35.111  15.532  26.214  0.00  0.00     0.036 H 
BRANCH  49  52
ATOM     52  C22 non d ame     -33.777  14.920  27.753  0.00  0.00     0.018 C 
ATOM     53  H33 non d ame     -34.521  14.649  28.501  0.00  0.00     0.048 H 
ATOM     54  H34 non d ame     -33.422  14.171  27.042  0.00  0.00     0.048 H 
BRANCH  52  55
ATOM     55  C23 non d ame     -32.525  15.388  28.543  0.00  0.00     0.259 C 
ATOM     56  O7  non d ame     -32.597  16.297  29.305  0.00  0.00    -0.265 OA
BRANCH  55  57
ATOM     57  O8  non d ame     -31.282  14.728  28.335  0.00  0.00    -0.317 OA
BRANCH  57  58
ATOM     58  C29 non d ame     -31.400  13.457  27.687  0.00  0.00     0.052 C 
ATOM     59  H47 non d ame     -32.150  13.592  26.909  0.00  0.00     0.082 H 
ATOM     60  H48 non d ame     -30.384  13.166  27.421  0.00  0.00     0.082 H 
BRANCH  58  61
ATOM     61  C35 non d ame     -31.946  12.440  28.725  0.00  0.00    -0.034 A 
ATOM     62  C30 non d ame     -31.369  12.356  29.988  0.00  0.00    -0.075 A 
ATOM     63  C31 non d ame     -31.860  11.442  30.920  0.00  0.00    -0.082 A 
ATOM     64  H49 non d ame     -30.534  13.005  30.248  0.00  0.00     0.084 H 
ATOM     65  C32 non d ame     -32.929  10.608  30.583  0.00  0.00    -0.083 A 
ATOM     66  H50 non d ame     -31.406  11.380  31.910  0.00  0.00     0.083 H 
ATOM     67  C33 non d ame     -33.499  10.693  29.321  0.00  0.00    -0.082 A 
ATOM     68  H51 non d ame     -33.319   9.892  31.307  0.00  0.00     0.083 H 
ATOM     69  C34 non d ame     -33.014  11.607  28.387  0.00  0.00    -0.075 A 
ATOM     70  H52 non d ame     -34.333  10.040  29.060  0.00  0.00     0.083 H 
ATOM     71  H53 non d ame     -33.468  11.668  27.398  0.00  0.00     0.084 H 
ENDBRANCH  58  61
ENDBRANCH  57  58
ENDBRANCH  55  57
ENDBRANCH  52  55
ENDBRANCH  49  52
ENDBRANCH  47  49
BRANCH  47  72
ATOM     72  C24 non d ame     -34.108  17.958  25.368  0.00  0.00    -0.039 C 
ATOM     73  H35 non d ame     -33.803  17.926  24.321  0.00  0.00     0.036 H 
ATOM     74  H36 non d ame     -35.162  17.875  25.631  0.00  0.00     0.036 H 
BRANCH  72  75
ATOM     75  C25 non d ame     -33.577  19.342  25.974  0.00  0.00    -0.001 C 
ATOM     76  C26 non d ame     -32.359  19.055  27.041  0.00  0.00    -0.035 C 
ATOM     77  C27 non d ame     -32.635  19.697  28.201  0.00  0.00     0.085 C 
ATOM     78  H38 non d ame     -32.352  18.003  27.326  0.00  0.00     0.036 H 
ATOM     79  H39 non d ame     -31.441  19.533  26.697  0.00  0.00     0.036 H 
ATOM     80  N5  non d ame     -34.081  20.123  28.137  0.00  0.00    -0.049 N 
ATOM     81  H40 non d ame     -32.520  18.946  28.984  0.00  0.00     0.075 H 
ATOM     82  H41 non d ame     -32.002  20.585  28.201  0.00  0.00     0.075 H 
ATOM     83  C28 non d ame     -34.520  19.975  26.590  0.00  0.00     0.193 C 
ATOM     84  H42 non d ame     -34.602  19.454  28.685  0.00  0.00     0.280 HD
ATOM     85  H43 non d ame     -34.102  21.103  28.385  0.00  0.00     0.280 HD
ATOM     86  H44 non d ame     -34.615  20.855  25.955  0.00  0.00     0.129 H 
ATOM     87  H37 non d ame     -33.394  20.088  25.202  0.00  0.00     0.046 H 
BRANCH  83  88
ATOM     88  O6  non d ame     -35.775  19.298  26.496  0.00  0.00    -0.369 OA
ATOM     89  H45 non d ame     -36.173  19.241  27.368  0.00  0.00     0.212 HD
ENDBRANCH  83  88
ENDBRANCH  72  75
ENDBRANCH  47  72
ENDBRANCH  45  47
ENDBRANCH   1  43
BRANCH   1  90
ATOM     90  C16 non d ame     -31.522  15.088  22.325  0.00  0.00    -0.035 C 
ATOM     91  H21 non d ame     -31.756  14.137  21.847  0.00  0.00     0.037 H 
ATOM     92  H22 non d ame     -32.320  15.796  22.547  0.00  0.00     0.037 H 
BRANCH  90  93
ATOM     93  C17 non d ame     -30.528  15.826  21.373  0.00  0.00    -0.059 C 
ATOM     94  H23 non d ame     -30.754  16.891  21.419  0.00  0.00     0.038 H 
BRANCH  93  95
ATOM     95  C18 non d ame     -29.041  15.635  21.812  0.00  0.00    -0.073 C 
ATOM     96  H24 non d ame     -28.989  14.892  22.607  0.00  0.00     0.028 H 
ATOM     97  H25 non d ame     -28.452  15.295  20.960  0.00  0.00     0.028 H 
ATOM     98  H26 non d ame     -28.643  16.583  22.173  0.00  0.00     0.028 H 
ENDBRANCH  93  95
BRANCH  93  99
ATOM     99  C19 non d ame     -30.729  15.382  19.922  0.00  0.00    -0.073 C 
ATOM    100  H27 non d ame     -31.259  16.161  19.373  0.00  0.00     0.028 H 
ATOM    101  H28 non d ame     -29.758  15.208  19.457  0.00  0.00     0.028 H 
ATOM    102  H29 non d ame     -31.310  14.461  19.901  0.00  0.00     0.028 H 
ENDBRANCH  93  99
ENDBRANCH  90  93
ENDBRANCH   1  90
TORSDOF 26
ENDMDL
MODEL 5
REMARK VINA RESULT:      -6.9      1.979      3.676
REMARK  26 active torsions:
REMARK  status: ('A' for Active; 'I' for Inactive)
REMARK    1  A    between atoms: C2_2  and  C3_3 
REMARK    2  A    between atoms: C4_6  and  C5_7 
REMARK       I    between atoms: C5_7  and  N2_9 
REMARK    3  A    between atoms: N2_9  and  C6_10 
REMARK    4  A    between atoms: C6_10  and  C7_11 
REMARK    5  A    between atoms: C6_10  and  C8_13 
REMARK       I    between atoms: C7_11  and  N3_14 
REMARK    6  A    between atoms: N3_14  and  C9_15 
REMARK    7  A    between atoms: C9_15  and  C10_16 
REMARK    8  A    between atoms: C9_15  and  C11_18 
REMARK       I    between atoms: C10_16  and  N4_21 
REMARK    9  A    between atoms: C11_18  and  C12_19 
REMARK   10  A    between atoms: C11_18  and  C13_20 
REMARK   11  A    between atoms: N4_21  and  C14_22 
REMARK   12  A    between atoms: C14_22  and  C15_23 
REMARK   13  A    between atoms: C14_22  and  C16_25 
REMARK       I    between atoms: C15_23  and  N6_40 
REMARK   14  A    between atoms: C16_25  and  C17_26 
REMARK   15  A    between atoms: C17_26  and  C18_27 
REMARK   16  A    between atoms: C17_26  and  C19_28 
REMARK   17  A    between atoms: C20_29  and  C21_30 
REMARK   18  A    between atoms: C20_29  and  C24_33 
REMARK   19  A    between atoms: C20_29  and  N6_40 
REMARK   20  A    between atoms: C21_30  and  C22_31 
REMARK   21  A    between atoms: C22_31  and  C23_32 
REMARK   22  A    between atoms: C23_32  and  O8_43 
REMARK   23  A    between atoms: C24_33  and  C25_34 
REMARK   24  A    between atoms: C28_38  and  O6_39 
REMARK   25  A    between atoms: C29_42  and  O8_43 
REMARK   26  A    between atoms: C29_42  and  C35_49 
ROOT
ATOM      1  C14 non d ame     -30.777  14.426  23.846  0.00  0.00     0.089 C 
ATOM      2  H20 non d ame     -29.693  14.368  23.735  0.00  0.00     0.087 H 
ENDROOT
BRANCH   1   3
ATOM      3  N4  non d ame     -31.257  13.085  24.146  0.00  0.00    -0.346 N 
ATOM      4  C10 non d ame     -30.658  11.888  23.453  0.00  0.00     0.241 C 
ATOM      5  O4  non d ame     -29.792  12.028  22.655  0.00  0.00    -0.271 OA
ATOM      6  H19 non d ame     -31.997  12.988  24.828  0.00  0.00     0.163 HD
BRANCH   4   7
ATOM      7  C9  non d ame     -31.164  10.508  23.781  0.00  0.00     0.092 C 
ATOM      8  H11 non d ame     -30.637  10.131  24.658  0.00  0.00     0.088 H 
BRANCH   7   9
ATOM      9  N3  non d ame     -32.586  10.577  24.126  0.00  0.00    -0.346 N 
ATOM     10  C7  non d ame     -33.002  10.442  25.500  0.00  0.00     0.240 C 
ATOM     11  O3  non d ame     -32.205  10.276  26.341  0.00  0.00    -0.271 OA
ATOM     12  H10 non d ame     -33.286  10.719  23.411  0.00  0.00     0.163 HD
BRANCH  10  13
ATOM     13  C6  non d ame     -34.519  10.514  25.861  0.00  0.00     0.086 C 
ATOM     14  H6  non d ame     -35.164  10.232  25.029  0.00  0.00     0.086 H 
BRANCH  13  15
ATOM     15  N2  non d ame     -34.792   9.575  26.936  0.00  0.00    -0.343 N 
ATOM     16  C5  non d ame     -35.427   8.291  26.627  0.00  0.00     0.273 C 
ATOM     17  O2  non d ame     -35.716   8.026  25.513  0.00  0.00    -0.266 OA
ATOM     18  H5  non d ame     -34.545   9.811  27.886  0.00  0.00     0.163 HD
BRANCH  16  19
ATOM     19  C4  non d ame     -35.721   7.288  27.753  0.00  0.00     0.154 A 
ATOM     20  C1  non d ame     -36.872   7.253  28.603  0.00  0.00    -0.017 A 
ATOM     21  C2  non d ame     -36.658   6.150  29.460  0.00  0.00     0.077 A 
ATOM     22  H1  non d ame     -37.730   7.924  28.599  0.00  0.00     0.091 H 
ATOM     23  O1  non d ame     -35.516   5.619  29.131  0.00  0.00    -0.218 OA
ATOM     24  N1  non d ame     -34.951   6.266  28.138  0.00  0.00    -0.123 NA
BRANCH  21  25
ATOM     25  C3  non d ame     -37.593   5.671  30.563  0.00  0.00    -0.029 C 
ATOM     26  H2  non d ame     -38.616   5.960  30.323  0.00  0.00     0.036 H 
ATOM     27  H3  non d ame     -37.532   4.586  30.644  0.00  0.00     0.036 H 
ATOM     28  H4  non d ame     -37.300   6.124  31.509  0.00  0.00     0.036 H 
ENDBRANCH  21  25
ENDBRANCH  16  19
ENDBRANCH  13  15
BRANCH  13  29
ATOM     29  C8  non d ame     -34.869  11.915  26.298  0.00  0.00    -0.049 C 
ATOM     30  H7  non d ame     -33.954  12.487  26.449  0.00  0.00     0.030 H 
ATOM     31  H8  non d ame     -35.474  12.394  25.528  0.00  0.00     0.030 H 
ATOM     32  H9  non d ame     -35.431  11.874  27.231  0.00  0.00     0.030 H 
ENDBRANCH  13  29
ENDBRANCH  10  13
ENDBRANCH   7   9
BRANCH   7  33
ATOM     33  C11 non d ame     -30.977   9.580  22.545  0.00  0.00    -0.033 C 
ATOM     34  H12 non d ame     -30.823  10.219  21.675  0.00  0.00     0.042 H 
BRANCH  33  35
ATOM     35  C12 non d ame     -29.711   8.680  22.695  0.00  0.00    -0.071 C 
ATOM     36  H13 non d ame     -29.129   9.011  23.555  0.00  0.00     0.028 H 
ATOM     37  H14 non d ame     -30.017   7.644  22.841  0.00  0.00     0.028 H 
ATOM     38  H15 non d ame     -29.102   8.755  21.794  0.00  0.00     0.028 H 
ENDBRANCH  33  35
BRANCH  33  39
ATOM     39  C13 non d ame     -32.257   8.720  22.292  0.00  0.00    -0.071 C 
ATOM     40  H16 non d ame     -32.950   9.277  21.661  0.00  0.00     0.028 H 
ATOM     41  H17 non d ame     -31.978   7.790  21.795  0.00  0.00     0.028 H 
ATOM     42  H18 non d ame     -32.735   8.492  23.244  0.00  0.00     0.028 H 
ENDBRANCH  33  39
ENDBRANCH   7  33
ENDBRANCH   4   7
ENDBRANCH   1   3
BRANCH   1  43
ATOM     43  C15 non d ame     -31.199  15.374  25.004  0.00  0.00     0.240 C 
ATOM     44  O5  non d ame     -31.036  16.547  24.896  0.00  0.00    -0.271 OA
ATOM     45  N6  non d ame     -31.815  14.823  26.244  0.00  0.00    -0.355 N 
ATOM     46  H46 non d ame     -31.962  13.828  26.345  0.00  0.00     0.162 HD
BRANCH  45  47
ATOM     47  C20 non d ame     -32.213  15.738  27.336  0.00  0.00     0.013 C 
ATOM     48  H30 non d ame     -31.616  16.646  27.246  0.00  0.00     0.072 H 
BRANCH  47  49
ATOM     49  C21 non d ame     -31.946  15.073  28.667  0.00  0.00    -0.038 C 
ATOM     50  H31 non d ame     -30.876  14.860  28.681  0.00  0.00     0.036 H 
ATOM     51  H32 non d ame     -32.380  15.734  29.418  0.00  0.00     0.036 H 
BRANCH  49  52
ATOM     52  C22 non d ame     -32.664  13.715  28.814  0.00  0.00     0.018 C 
ATOM     53  H33 non d ame     -33.286  13.804  29.703  0.00  0.00     0.048 H 
ATOM     54  H34 non d ame     -33.124  13.519  27.844  0.00  0.00     0.048 H 
BRANCH  52  55
ATOM     55  C23 non d ame     -31.703  12.524  29.080  0.00  0.00     0.259 C 
ATOM     56  O7  non d ame     -30.720  12.383  28.426  0.00  0.00    -0.265 OA
BRANCH  55  57
ATOM     57  O8  non d ame     -32.017  11.590  30.106  0.00  0.00    -0.317 OA
BRANCH  57  58
ATOM     58  C29 non d ame     -32.825  10.494  29.667  0.00  0.00     0.052 C 
ATOM     59  H47 non d ame     -33.384  10.865  28.809  0.00  0.00     0.082 H 
ATOM     60  H48 non d ame     -32.143   9.652  29.552  0.00  0.00     0.082 H 
BRANCH  58  61
ATOM     61  C35 non d ame     -33.832  10.157  30.800  0.00  0.00    -0.034 A 
ATOM     62  C30 non d ame     -34.146  11.115  31.760  0.00  0.00    -0.075 A 
ATOM     63  C31 non d ame     -35.050  10.812  32.777  0.00  0.00    -0.082 A 
ATOM     64  H49 non d ame     -33.684  12.100  31.716  0.00  0.00     0.084 H 
ATOM     65  C32 non d ame     -35.640   9.547  32.834  0.00  0.00    -0.083 A 
ATOM     66  H50 non d ame     -35.295  11.565  33.527  0.00  0.00     0.083 H 
ATOM     67  C33 non d ame     -35.321   8.594  31.876  0.00  0.00    -0.082 A 
ATOM     68  H51 non d ame     -36.348   9.303  33.626  0.00  0.00     0.083 H 
ATOM     69  C34 non d ame     -34.419   8.892  30.856  0.00  0.00    -0.075 A 
ATOM     70  H52 non d ame     -35.781   7.606  31.924  0.00  0.00     0.083 H 
ATOM     71  H53 non d ame     -34.175   8.139  30.107  0.00  0.00     0.084 H 
ENDBRANCH  58  61
ENDBRANCH  57  58
ENDBRANCH  55  57
ENDBRANCH  52  55
ENDBRANCH  49  52
ENDBRANCH  47  49
BRANCH  47  72
ATOM     72  C24 non d ame     -33.700  16.067  27.218  0.00  0.00    -0.039 C 
ATOM     73  H35 non d ame     -34.081  15.408  26.437  0.00  0.00     0.036 H 
ATOM     74  H36 non d ame     -34.093  15.995  28.232  0.00  0.00     0.036 H 
BRANCH  72  75
ATOM     75  C25 non d ame     -33.936  17.573  26.725  0.00  0.00    -0.001 C 
ATOM     76  C26 non d ame     -32.544  18.434  26.871  0.00  0.00    -0.035 C 
ATOM     77  C27 non d ame     -32.806  19.576  27.550  0.00  0.00     0.085 C 
ATOM     78  H38 non d ame     -31.844  17.907  27.518  0.00  0.00     0.036 H 
ATOM     79  H39 non d ame     -32.220  18.790  25.892  0.00  0.00     0.036 H 
ATOM     80  N5  non d ame     -34.176  19.419  28.166  0.00  0.00    -0.049 N 
ATOM     81  H40 non d ame     -32.062  19.619  28.347  0.00  0.00     0.075 H 
ATOM     82  H41 non d ame     -32.844  20.362  26.797  0.00  0.00     0.075 H 
ATOM     83  C28 non d ame     -34.854  18.155  27.423  0.00  0.00     0.193 C 
ATOM     84  H42 non d ame     -34.029  19.181  29.136  0.00  0.00     0.280 HD
ATOM     85  H43 non d ame     -34.695  20.251  27.923  0.00  0.00     0.280 HD
ATOM     86  H44 non d ame     -35.617  18.304  26.662  0.00  0.00     0.129 H 
ATOM     87  H37 non d ame     -34.449  17.617  25.764  0.00  0.00     0.046 H 
BRANCH  83  88
ATOM     88  O6  non d ame     -35.439  17.275  28.385  0.00  0.00    -0.369 OA
ATOM     89  H45 non d ame     -34.757  16.720  28.768  0.00  0.00     0.212 HD
ENDBRANCH  83  88
ENDBRANCH  72  75
ENDBRANCH  47  72
ENDBRANCH  45  47
ENDBRANCH   1  43
BRANCH   1  90
ATOM     90  C16 non d ame     -31.404  14.897  22.544  0.00  0.00    -0.035 C 
ATOM     91  H21 non d ame     -31.726  13.991  22.034  0.00  0.00     0.037 H 
ATOM     92  H22 non d ame     -32.137  15.650  22.833  0.00  0.00     0.037 H 
BRANCH  90  93
ATOM     93  C17 non d ame     -30.397  15.608  21.585  0.00  0.00    -0.059 C 
ATOM     94  H23 non d ame     -30.569  16.681  21.659  0.00  0.00     0.038 H 
BRANCH  93  95
ATOM     95  C18 non d ame     -28.911  15.334  21.982  0.00  0.00    -0.073 C 
ATOM     96  H24 non d ame     -28.366  16.277  22.025  0.00  0.00     0.028 H 
ATOM     97  H25 non d ame     -28.879  14.852  22.959  0.00  0.00     0.028 H 
ATOM     98  H26 non d ame     -28.451  14.681  21.240  0.00  0.00     0.028 H 
ENDBRANCH  93  95
BRANCH  93  99
ATOM     99  C19 non d ame     -30.654  15.207  20.129  0.00  0.00    -0.073 C 
ATOM    100  H27 non d ame     -31.227  14.280  20.103  0.00  0.00     0.028 H 
ATOM    101  H28 non d ame     -31.217  15.995  19.629  0.00  0.00     0.028 H 
ATOM    102  H29 non d ame     -29.702  15.062  19.619  0.00  0.00     0.028 H 
ENDBRANCH  93  99
ENDBRANCH  90  93
ENDBRANCH   1  90
TORSDOF 26
ENDMDL
MODEL 6
REMARK VINA RESULT:      -6.9      1.910      5.573
REMARK  26 active torsions:
REMARK  status: ('A' for Active; 'I' for Inactive)
REMARK    1  A    between atoms: C2_2  and  C3_3 
REMARK    2  A    between atoms: C4_6  and  C5_7 
REMARK       I    between atoms: C5_7  and  N2_9 
REMARK    3  A    between atoms: N2_9  and  C6_10 
REMARK    4  A    between atoms: C6_10  and  C7_11 
REMARK    5  A    between atoms: C6_10  and  C8_13 
REMARK       I    between atoms: C7_11  and  N3_14 
REMARK    6  A    between atoms: N3_14  and  C9_15 
REMARK    7  A    between atoms: C9_15  and  C10_16 
REMARK    8  A    between atoms: C9_15  and  C11_18 
REMARK       I    between atoms: C10_16  and  N4_21 
REMARK    9  A    between atoms: C11_18  and  C12_19 
REMARK   10  A    between atoms: C11_18  and  C13_20 
REMARK   11  A    between atoms: N4_21  and  C14_22 
REMARK   12  A    between atoms: C14_22  and  C15_23 
REMARK   13  A    between atoms: C14_22  and  C16_25 
REMARK       I    between atoms: C15_23  and  N6_40 
REMARK   14  A    between atoms: C16_25  and  C17_26 
REMARK   15  A    between atoms: C17_26  and  C18_27 
REMARK   16  A    between atoms: C17_26  and  C19_28 
REMARK   17  A    between atoms: C20_29  and  C21_30 
REMARK   18  A    between atoms: C20_29  and  C24_33 
REMARK   19  A    between atoms: C20_29  and  N6_40 
REMARK   20  A    between atoms: C21_30  and  C22_31 
REMARK   21  A    between atoms: C22_31  and  C23_32 
REMARK   22  A    between atoms: C23_32  and  O8_43 
REMARK   23  A    between atoms: C24_33  and  C25_34 
REMARK   24  A    between atoms: C28_38  and  O6_39 
REMARK   25  A    between atoms: C29_42  and  O8_43 
REMARK   26  A    between atoms: C29_42  and  C35_49 
ROOT
ATOM      1  C14 non d ame     -30.964  13.904  24.714  0.00  0.00     0.089 C 
ATOM      2  H20 non d ame     -29.994  13.734  25.182  0.00  0.00     0.087 H 
ENDROOT
BRANCH   1   3
ATOM      3  N4  non d ame     -31.411  12.633  24.162  0.00  0.00    -0.346 N 
ATOM      4  C10 non d ame     -31.345  11.376  24.992  0.00  0.00     0.241 C 
ATOM      5  O4  non d ame     -30.924  11.411  26.101  0.00  0.00    -0.271 OA
ATOM      6  H19 non d ame     -31.763  12.625  23.215  0.00  0.00     0.163 HD
BRANCH   4   7
ATOM      7  C9  non d ame     -31.817  10.072  24.406  0.00  0.00     0.092 C 
ATOM      8  H11 non d ame     -31.531   9.255  25.070  0.00  0.00     0.088 H 
BRANCH   7   9
ATOM      9  N3  non d ame     -33.280  10.073  24.326  0.00  0.00    -0.346 N 
ATOM     10  C7  non d ame     -34.062   9.552  25.421  0.00  0.00     0.240 C 
ATOM     11  O3  non d ame     -33.530   9.126  26.372  0.00  0.00    -0.271 OA
ATOM     12  H10 non d ame     -33.754  10.434  23.511  0.00  0.00     0.163 HD
BRANCH  10  13
ATOM     13  C6  non d ame     -35.620   9.552  25.328  0.00  0.00     0.086 C 
ATOM     14  H6  non d ame     -36.092   9.044  26.169  0.00  0.00     0.086 H 
BRANCH  13  15
ATOM     15  N2  non d ame     -36.093  10.927  25.356  0.00  0.00    -0.343 N 
ATOM     16  C5  non d ame     -36.584  11.496  26.613  0.00  0.00     0.273 C 
ATOM     17  O2  non d ame     -36.597  10.839  27.595  0.00  0.00    -0.266 OA
ATOM     18  H5  non d ame     -36.082  11.479  24.510  0.00  0.00     0.163 HD
BRANCH  16  19
ATOM     19  C4  non d ame     -37.085  12.948  26.656  0.00  0.00     0.154 A 
ATOM     20  C1  non d ame     -36.305  14.137  26.500  0.00  0.00    -0.017 A 
ATOM     21  C2  non d ame     -37.230  15.198  26.622  0.00  0.00     0.077 A 
ATOM     22  H1  non d ame     -35.232  14.218  26.326  0.00  0.00     0.091 H 
ATOM     23  O1  non d ame     -38.402  14.668  26.822  0.00  0.00    -0.218 OA
ATOM     24  N1  non d ame     -38.342  13.357  26.847  0.00  0.00    -0.123 NA
BRANCH  21  25
ATOM     25  C3  non d ame     -36.914  16.685  26.533  0.00  0.00    -0.029 C 
ATOM     26  H2  non d ame     -36.704  17.072  27.531  0.00  0.00     0.036 H 
ATOM     27  H3  non d ame     -36.042  16.833  25.896  0.00  0.00     0.036 H 
ATOM     28  H4  non d ame     -37.767  17.213  26.111  0.00  0.00     0.036 H 
ENDBRANCH  21  25
ENDBRANCH  16  19
ENDBRANCH  13  15
BRANCH  13  29
ATOM     29  C8  non d ame     -36.051   8.883  24.048  0.00  0.00    -0.049 C 
ATOM     30  H7  non d ame     -35.442   9.251  23.223  0.00  0.00     0.030 H 
ATOM     31  H8  non d ame     -35.923   7.805  24.141  0.00  0.00     0.030 H 
ATOM     32  H9  non d ame     -37.100   9.110  23.854  0.00  0.00     0.030 H 
ENDBRANCH  13  29
ENDBRANCH  10  13
ENDBRANCH   7   9
BRANCH   7  33
ATOM     33  C11 non d ame     -31.222   9.899  22.978  0.00  0.00    -0.033 C 
ATOM     34  H12 non d ame     -31.446  10.807  22.418  0.00  0.00     0.042 H 
BRANCH  33  35
ATOM     35  C12 non d ame     -29.670   9.746  23.023  0.00  0.00    -0.071 C 
ATOM     36  H13 non d ame     -29.210  10.515  22.403  0.00  0.00     0.028 H 
ATOM     37  H14 non d ame     -29.324   9.853  24.051  0.00  0.00     0.028 H 
ATOM     38  H15 non d ame     -29.390   8.762  22.646  0.00  0.00     0.028 H 
ENDBRANCH  33  35
BRANCH  33  39
ATOM     39  C13 non d ame     -31.889   8.697  22.236  0.00  0.00    -0.071 C 
ATOM     40  H16 non d ame     -31.115   8.060  21.806  0.00  0.00     0.028 H 
ATOM     41  H17 non d ame     -32.485   8.119  22.942  0.00  0.00     0.028 H 
ATOM     42  H18 non d ame     -32.533   9.073  21.441  0.00  0.00     0.028 H 
ENDBRANCH  33  39
ENDBRANCH   7  33
ENDBRANCH   4   7
ENDBRANCH   1   3
BRANCH   1  43
ATOM     43  C15 non d ame     -32.029  14.404  25.731  0.00  0.00     0.240 C 
ATOM     44  O5  non d ame     -33.122  14.679  25.355  0.00  0.00    -0.271 OA
ATOM     45  N6  non d ame     -31.688  14.531  27.176  0.00  0.00    -0.355 N 
ATOM     46  H46 non d ame     -30.764  14.295  27.508  0.00  0.00     0.162 HD
BRANCH  45  47
ATOM     47  C20 non d ame     -32.712  15.006  28.133  0.00  0.00     0.013 C 
ATOM     48  H30 non d ame     -33.692  14.830  27.689  0.00  0.00     0.072 H 
BRANCH  47  49
ATOM     49  C21 non d ame     -32.516  16.485  28.381  0.00  0.00    -0.038 C 
ATOM     50  H31 non d ame     -32.748  16.640  29.436  0.00  0.00     0.036 H 
ATOM     51  H32 non d ame     -31.522  16.717  28.002  0.00  0.00     0.036 H 
BRANCH  49  52
ATOM     52  C22 non d ame     -33.504  17.363  27.584  0.00  0.00     0.018 C 
ATOM     53  H33 non d ame     -34.224  16.674  27.145  0.00  0.00     0.048 H 
ATOM     54  H34 non d ame     -33.842  18.133  28.280  0.00  0.00     0.048 H 
BRANCH  52  55
ATOM     55  C23 non d ame     -32.852  18.118  26.393  0.00  0.00     0.259 C 
ATOM     56  O7  non d ame     -31.921  17.653  25.820  0.00  0.00    -0.265 OA
BRANCH  55  57
ATOM     57  O8  non d ame     -33.371  19.384  26.003  0.00  0.00    -0.317 OA
BRANCH  57  58
ATOM     58  C29 non d ame     -34.123  20.045  27.025  0.00  0.00     0.052 C 
ATOM     59  H47 non d ame     -34.186  19.335  27.850  0.00  0.00     0.082 H 
ATOM     60  H48 non d ame     -33.638  21.010  27.172  0.00  0.00     0.082 H 
BRANCH  58  61
ATOM     61  C35 non d ame     -35.555  20.294  26.481  0.00  0.00    -0.034 A 
ATOM     62  C30 non d ame     -36.502  20.931  27.277  0.00  0.00    -0.075 A 
ATOM     63  C31 non d ame     -37.789  21.154  26.789  0.00  0.00    -0.082 A 
ATOM     64  H49 non d ame     -36.236  21.255  28.283  0.00  0.00     0.084 H 
ATOM     65  C32 non d ame     -38.128  20.735  25.500  0.00  0.00    -0.083 A 
ATOM     66  H50 non d ame     -38.528  21.656  27.415  0.00  0.00     0.083 H 
ATOM     67  C33 non d ame     -37.181  20.097  24.710  0.00  0.00    -0.082 A 
ATOM     68  H51 non d ame     -39.131  20.907  25.110  0.00  0.00     0.083 H 
ATOM     69  C34 non d ame     -35.894  19.874  25.194  0.00  0.00    -0.075 A 
ATOM     70  H52 non d ame     -37.450  19.769  23.705  0.00  0.00     0.083 H 
ATOM     71  H53 non d ame     -35.155  19.373  24.567  0.00  0.00     0.084 H 
ENDBRANCH  58  61
ENDBRANCH  57  58
ENDBRANCH  55  57
ENDBRANCH  52  55
ENDBRANCH  49  52
ENDBRANCH  47  49
BRANCH  47  72
ATOM     72  C24 non d ame     -32.582  14.246  29.450  0.00  0.00    -0.039 C 
ATOM     73  H35 non d ame     -31.904  14.842  30.063  0.00  0.00     0.036 H 
ATOM     74  H36 non d ame     -33.604  14.068  29.784  0.00  0.00     0.036 H 
BRANCH  72  75
ATOM     75  C25 non d ame     -31.896  12.813  29.243  0.00  0.00    -0.001 C 
ATOM     76  C26 non d ame     -33.048  11.641  29.214  0.00  0.00    -0.035 C 
ATOM     77  C27 non d ame     -32.704  10.669  30.093  0.00  0.00     0.085 C 
ATOM     78  H38 non d ame     -33.985  12.027  29.615  0.00  0.00     0.036 H 
ATOM     79  H39 non d ame     -33.036  11.129  28.251  0.00  0.00     0.036 H 
ATOM     80  N5  non d ame     -31.597  11.225  30.955  0.00  0.00    -0.049 N 
ATOM     81  H40 non d ame     -33.588  10.508  30.710  0.00  0.00     0.075 H 
ATOM     82  H41 non d ame     -32.307   9.855  29.487  0.00  0.00     0.075 H 
ATOM     83  C28 non d ame     -31.067  12.549  30.197  0.00  0.00     0.193 C 
ATOM     84  H42 non d ame     -32.024  11.503  31.827  0.00  0.00     0.280 HD
ATOM     85  H43 non d ame     -30.858  10.535  30.952  0.00  0.00     0.280 HD
ATOM     86  H44 non d ame     -30.128  12.533  29.645  0.00  0.00     0.129 H 
ATOM     87  H37 non d ame     -31.171  12.816  28.429  0.00  0.00     0.046 H 
BRANCH  83  88
ATOM     88  O6  non d ame     -30.947  13.631  31.122  0.00  0.00    -0.369 OA
ATOM     89  H45 non d ame     -31.248  13.347  31.988  0.00  0.00     0.212 HD
ENDBRANCH  83  88
ENDBRANCH  72  75
ENDBRANCH  47  72
ENDBRANCH  45  47
ENDBRANCH   1  43
BRANCH   1  90
ATOM     90  C16 non d ame     -30.822  14.912  23.585  0.00  0.00    -0.035 C 
ATOM     91  H21 non d ame     -31.821  15.018  23.164  0.00  0.00     0.037 H 
ATOM     92  H22 non d ame     -30.324  15.774  24.029  0.00  0.00     0.037 H 
BRANCH  90  93
ATOM     93  C17 non d ame     -29.904  14.423  22.419  0.00  0.00    -0.059 C 
ATOM     94  H23 non d ame     -29.925  13.334  22.416  0.00  0.00     0.038 H 
BRANCH  93  95
ATOM     95  C18 non d ame     -30.409  14.915  21.026  0.00  0.00    -0.073 C 
ATOM     96  H24 non d ame     -30.721  14.059  20.429  0.00  0.00     0.028 H 
ATOM     97  H25 non d ame     -31.256  15.588  21.163  0.00  0.00     0.028 H 
ATOM     98  H26 non d ame     -29.606  15.443  20.513  0.00  0.00     0.028 H 
ENDBRANCH  93  95
BRANCH  93  99
ATOM     99  C19 non d ame     -28.452  14.849  22.653  0.00  0.00    -0.073 C 
ATOM    100  H27 non d ame     -27.871  13.990  22.993  0.00  0.00     0.028 H 
ATOM    101  H28 non d ame     -28.029  15.225  21.721  0.00  0.00     0.028 H 
ATOM    102  H29 non d ame     -28.419  15.633  23.408  0.00  0.00     0.028 H 
ENDBRANCH  93  99
ENDBRANCH  90  93
ENDBRANCH   1  90
TORSDOF 26
ENDMDL
MODEL 7
REMARK VINA RESULT:      -6.9      3.107      7.153
REMARK  26 active torsions:
REMARK  status: ('A' for Active; 'I' for Inactive)
REMARK    1  A    between atoms: C2_2  and  C3_3 
REMARK    2  A    between atoms: C4_6  and  C5_7 
REMARK       I    between atoms: C5_7  and  N2_9 
REMARK    3  A    between atoms: N2_9  and  C6_10 
REMARK    4  A    between atoms: C6_10  and  C7_11 
REMARK    5  A    between atoms: C6_10  and  C8_13 
REMARK       I    between atoms: C7_11  and  N3_14 
REMARK    6  A    between atoms: N3_14  and  C9_15 
REMARK    7  A    between atoms: C9_15  and  C10_16 
REMARK    8  A    between atoms: C9_15  and  C11_18 
REMARK       I    between atoms: C10_16  and  N4_21 
REMARK    9  A    between atoms: C11_18  and  C12_19 
REMARK   10  A    between atoms: C11_18  and  C13_20 
REMARK   11  A    between atoms: N4_21  and  C14_22 
REMARK   12  A    between atoms: C14_22  and  C15_23 
REMARK   13  A    between atoms: C14_22  and  C16_25 
REMARK       I    between atoms: C15_23  and  N6_40 
REMARK   14  A    between atoms: C16_25  and  C17_26 
REMARK   15  A    between atoms: C17_26  and  C18_27 
REMARK   16  A    between atoms: C17_26  and  C19_28 
REMARK   17  A    between atoms: C20_29  and  C21_30 
REMARK   18  A    between atoms: C20_29  and  C24_33 
REMARK   19  A    between atoms: C20_29  and  N6_40 
REMARK   20  A    between atoms: C21_30  and  C22_31 
REMARK   21  A    between atoms: C22_31  and  C23_32 
REMARK   22  A    between atoms: C23_32  and  O8_43 
REMARK   23  A    between atoms: C24_33  and  C25_34 
REMARK   24  A    between atoms: C28_38  and  O6_39 
REMARK   25  A    between atoms: C29_42  and  O8_43 
REMARK   26  A    between atoms: C29_42  and  C35_49 
ROOT
ATOM      1  C14 non d ame     -31.068  13.741  24.622  0.00  0.00     0.089 C 
ATOM      2  H20 non d ame     -30.071  13.619  25.045  0.00  0.00     0.087 H 
ENDROOT
BRANCH   1   3
ATOM      3  N4  non d ame     -31.551  12.418  24.254  0.00  0.00    -0.346 N 
ATOM      4  C10 non d ame     -31.357  11.249  25.187  0.00  0.00     0.241 C 
ATOM      5  O4  non d ame     -30.806  11.396  26.227  0.00  0.00    -0.271 OA
ATOM      6  H19 non d ame     -32.015  12.313  23.363  0.00  0.00     0.163 HD
BRANCH   4   7
ATOM      7  C9  non d ame     -31.868   9.889  24.791  0.00  0.00     0.092 C 
ATOM      8  H11 non d ame     -31.213   9.123  25.209  0.00  0.00     0.088 H 
BRANCH   7   9
ATOM      9  N3  non d ame     -33.200   9.680  25.366  0.00  0.00    -0.346 N 
ATOM     10  C7  non d ame     -33.354   8.878  26.555  0.00  0.00     0.240 C 
ATOM     11  O3  non d ame     -32.417   8.391  27.060  0.00  0.00    -0.271 OA
ATOM     12  H10 non d ame     -34.017  10.092  24.940  0.00  0.00     0.163 HD
BRANCH  10  13
ATOM     13  C6  non d ame     -34.775   8.657  27.161  0.00  0.00     0.086 C 
ATOM     14  H6  non d ame     -35.390   7.986  26.560  0.00  0.00     0.086 H 
BRANCH  13  15
ATOM     15  N2  non d ame     -34.638   8.037  28.468  0.00  0.00    -0.343 N 
ATOM     16  C5  non d ame     -34.796   6.586  28.599  0.00  0.00     0.273 C 
ATOM     17  O2  non d ame     -35.034   5.928  27.647  0.00  0.00    -0.266 OA
ATOM     18  H5  non d ame     -34.438   8.608  29.277  0.00  0.00     0.163 HD
BRANCH  16  19
ATOM     19  C4  non d ame     -34.652   5.918  29.975  0.00  0.00     0.154 A 
ATOM     20  C1  non d ame     -33.777   4.842  30.327  0.00  0.00    -0.017 A 
ATOM     21  C2  non d ame     -34.028   4.602  31.696  0.00  0.00     0.077 A 
ATOM     22  H1  non d ame     -33.069   4.316  29.687  0.00  0.00     0.091 H 
ATOM     23  O1  non d ame     -34.940   5.448  32.077  0.00  0.00    -0.218 OA
ATOM     24  N1  non d ame     -35.320   6.226  31.090  0.00  0.00    -0.123 NA
BRANCH  21  25
ATOM     25  C3  non d ame     -33.353   3.549  32.565  0.00  0.00    -0.029 C 
ATOM     26  H2  non d ame     -32.758   4.039  33.335  0.00  0.00     0.036 H 
ATOM     27  H3  non d ame     -34.114   2.926  33.037  0.00  0.00     0.036 H 
ATOM     28  H4  non d ame     -32.707   2.927  31.947  0.00  0.00     0.036 H 
ENDBRANCH  21  25
ENDBRANCH  16  19
ENDBRANCH  13  15
BRANCH  13  29
ATOM     29  C8  non d ame     -35.482   9.983  27.289  0.00  0.00    -0.049 C 
ATOM     30  H7  non d ame     -34.819  10.782  26.958  0.00  0.00     0.030 H 
ATOM     31  H8  non d ame     -36.379   9.977  26.670  0.00  0.00     0.030 H 
ATOM     32  H9  non d ame     -35.759  10.148  28.330  0.00  0.00     0.030 H 
ENDBRANCH  13  29
ENDBRANCH  10  13
ENDBRANCH   7   9
BRANCH   7  33
ATOM     33  C11 non d ame     -31.955   9.799  23.240  0.00  0.00    -0.033 C 
ATOM     34  H12 non d ame     -32.273  10.775  22.872  0.00  0.00     0.042 H 
BRANCH  33  35
ATOM     35  C12 non d ame     -30.562   9.489  22.608  0.00  0.00    -0.071 C 
ATOM     36  H13 non d ame     -30.701   8.964  21.663  0.00  0.00     0.028 H 
ATOM     37  H14 non d ame     -30.029  10.422  22.430  0.00  0.00     0.028 H 
ATOM     38  H15 non d ame     -29.985   8.864  23.289  0.00  0.00     0.028 H 
ENDBRANCH  33  35
BRANCH  33  39
ATOM     39  C13 non d ame     -33.024   8.747  22.800  0.00  0.00    -0.071 C 
ATOM     40  H16 non d ame     -32.795   7.783  23.255  0.00  0.00     0.028 H 
ATOM     41  H17 non d ame     -34.012   9.076  23.122  0.00  0.00     0.028 H 
ATOM     42  H18 non d ame     -33.011   8.649  21.715  0.00  0.00     0.028 H 
ENDBRANCH  33  39
ENDBRANCH   7  33
ENDBRANCH   4   7
ENDBRANCH   1   3
BRANCH   1  43
ATOM     43  C15 non d ame     -32.066  14.367  25.638  0.00  0.00     0.240 C 
ATOM     44  O5  non d ame     -33.081  14.847  25.249  0.00  0.00    -0.271 OA
ATOM     45  N6  non d ame     -31.760  14.360  27.096  0.00  0.00    -0.355 N 
ATOM     46  H46 non d ame     -30.902  13.950  27.439  0.00  0.00     0.162 HD
BRANCH  45  47
ATOM     47  C20 non d ame     -32.719  14.958  28.051  0.00  0.00     0.013 C 
ATOM     48  H30 non d ame     -33.715  14.885  27.613  0.00  0.00     0.072 H 
BRANCH  47  49
ATOM     49  C21 non d ame     -32.359  16.408  28.279  0.00  0.00    -0.038 C 
ATOM     50  H31 non d ame     -32.235  16.514  29.358  0.00  0.00     0.036 H 
ATOM     51  H32 non d ame     -31.522  16.612  27.612  0.00  0.00     0.036 H 
BRANCH  49  52
ATOM     52  C22 non d ame     -33.489  17.378  27.873  0.00  0.00     0.018 C 
ATOM     53  H33 non d ame     -33.814  17.055  26.885  0.00  0.00     0.048 H 
ATOM     54  H34 non d ame     -34.194  17.375  28.706  0.00  0.00     0.048 H 
BRANCH  52  55
ATOM     55  C23 non d ame     -33.023  18.851  27.712  0.00  0.00     0.259 C 
ATOM     56  O7  non d ame     -32.364  19.371  28.553  0.00  0.00    -0.265 OA
BRANCH  55  57
ATOM     57  O8  non d ame     -33.406  19.580  26.551  0.00  0.00    -0.317 OA
BRANCH  57  58
ATOM     58  C29 non d ame     -34.318  18.881  25.700  0.00  0.00     0.052 C 
ATOM     59  H47 non d ame     -33.876  18.913  24.704  0.00  0.00     0.082 H 
ATOM     60  H48 non d ame     -34.500  17.922  26.186  0.00  0.00     0.082 H 
BRANCH  58  61
ATOM     61  C35 non d ame     -35.651  19.676  25.669  0.00  0.00    -0.034 A 
ATOM     62  C30 non d ame     -36.470  19.619  24.546  0.00  0.00    -0.075 A 
ATOM     63  C31 non d ame     -37.668  20.334  24.519  0.00  0.00    -0.082 A 
ATOM     64  H49 non d ame     -36.175  19.017  23.687  0.00  0.00     0.084 H 
ATOM     65  C32 non d ame     -38.043  21.109  25.619  0.00  0.00    -0.083 A 
ATOM     66  H50 non d ame     -38.308  20.286  23.637  0.00  0.00     0.083 H 
ATOM     67  C33 non d ame     -37.221  21.164  26.736  0.00  0.00    -0.082 A 
ATOM     68  H51 non d ame     -38.978  21.669  25.606  0.00  0.00     0.083 H 
ATOM     69  C34 non d ame     -36.025  20.450  26.769  0.00  0.00    -0.075 A 
ATOM     70  H52 non d ame     -37.516  21.771  27.593  0.00  0.00     0.083 H 
ATOM     71  H53 non d ame     -35.385  20.498  27.651  0.00  0.00     0.084 H 
ENDBRANCH  58  61
ENDBRANCH  57  58
ENDBRANCH  55  57
ENDBRANCH  52  55
ENDBRANCH  49  52
ENDBRANCH  47  49
BRANCH  47  72
ATOM     72  C24 non d ame     -32.667  14.203  29.377  0.00  0.00    -0.039 C 
ATOM     73  H35 non d ame     -32.059  14.823  30.039  0.00  0.00     0.036 H 
ATOM     74  H36 non d ame     -33.705  13.992  29.632  0.00  0.00     0.036 H 
BRANCH  72  75
ATOM     75  C25 non d ame     -31.919  12.794  29.230  0.00  0.00    -0.001 C 
ATOM     76  C26 non d ame     -33.016  11.571  29.282  0.00  0.00    -0.035 C 
ATOM     77  C27 non d ame     -32.613  10.662  30.202  0.00  0.00     0.085 C 
ATOM     78  H38 non d ame     -33.963  11.935  29.681  0.00  0.00     0.036 H 
ATOM     79  H39 non d ame     -32.997  11.012  28.347  0.00  0.00     0.036 H 
ATOM     80  N5  non d ame     -31.519  11.312  31.014  0.00  0.00    -0.049 N 
ATOM     81  H40 non d ame     -33.479  10.494  30.844  0.00  0.00     0.075 H 
ATOM     82  H41 non d ame     -32.189   9.837  29.631  0.00  0.00     0.075 H 
ATOM     83  C28 non d ame     -31.063  12.617  30.180  0.00  0.00     0.193 C 
ATOM     84  H42 non d ame     -31.943  11.614  31.878  0.00  0.00     0.280 HD
ATOM     85  H43 non d ame     -30.749  10.657  31.031  0.00  0.00     0.280 HD
ATOM     86  H44 non d ame     -30.134  12.615  29.612  0.00  0.00     0.129 H 
ATOM     87  H37 non d ame     -31.209  12.789  28.404  0.00  0.00     0.046 H 
BRANCH  83  88
ATOM     88  O6  non d ame     -30.978  13.750  31.047  0.00  0.00    -0.369 OA
ATOM     89  H45 non d ame     -31.497  14.471  30.684  0.00  0.00     0.212 HD
ENDBRANCH  83  88
ENDBRANCH  72  75
ENDBRANCH  47  72
ENDBRANCH  45  47
ENDBRANCH   1  43
BRANCH   1  90
ATOM     90  C16 non d ame     -30.996  14.607  23.375  0.00  0.00    -0.035 C 
ATOM     91  H21 non d ame     -31.728  14.184  22.687  0.00  0.00     0.037 H 
ATOM     92  H22 non d ame     -31.111  15.632  23.729  0.00  0.00     0.037 H 
BRANCH  90  93
ATOM     93  C17 non d ame     -29.617  14.543  22.645  0.00  0.00    -0.059 C 
ATOM     94  H23 non d ame     -28.839  14.672  23.397  0.00  0.00     0.038 H 
BRANCH  93  95
ATOM     95  C18 non d ame     -29.383  13.165  21.948  0.00  0.00    -0.073 C 
ATOM     96  H24 non d ame     -30.172  12.472  22.239  0.00  0.00     0.028 H 
ATOM     97  H25 non d ame     -29.399  13.298  20.866  0.00  0.00     0.028 H 
ATOM     98  H26 non d ame     -28.417  12.764  22.250  0.00  0.00     0.028 H 
ENDBRANCH  93  95
BRANCH  93  99
ATOM     99  C19 non d ame     -29.476  15.691  21.643  0.00  0.00    -0.073 C 
ATOM    100  H27 non d ame     -28.573  15.545  21.047  0.00  0.00     0.028 H 
ATOM    101  H28 non d ame     -30.344  15.709  20.985  0.00  0.00     0.028 H 
ATOM    102  H29 non d ame     -29.408  16.637  22.180  0.00  0.00     0.028 H 
ENDBRANCH  93  99
ENDBRANCH  90  93
ENDBRANCH   1  90
TORSDOF 26
ENDMDL
MODEL 8
REMARK VINA RESULT:      -6.9      2.471      8.049
REMARK  26 active torsions:
REMARK  status: ('A' for Active; 'I' for Inactive)
REMARK    1  A    between atoms: C2_2  and  C3_3 
REMARK    2  A    between atoms: C4_6  and  C5_7 
REMARK       I    between atoms: C5_7  and  N2_9 
REMARK    3  A    between atoms: N2_9  and  C6_10 
REMARK    4  A    between atoms: C6_10  and  C7_11 
REMARK    5  A    between atoms: C6_10  and  C8_13 
REMARK       I    between atoms: C7_11  and  N3_14 
REMARK    6  A    between atoms: N3_14  and  C9_15 
REMARK    7  A    between atoms: C9_15  and  C10_16 
REMARK    8  A    between atoms: C9_15  and  C11_18 
REMARK       I    between atoms: C10_16  and  N4_21 
REMARK    9  A    between atoms: C11_18  and  C12_19 
REMARK   10  A    between atoms: C11_18  and  C13_20 
REMARK   11  A    between atoms: N4_21  and  C14_22 
REMARK   12  A    between atoms: C14_22  and  C15_23 
REMARK   13  A    between atoms: C14_22  and  C16_25 
REMARK       I    between atoms: C15_23  and  N6_40 
REMARK   14  A    between atoms: C16_25  and  C17_26 
REMARK   15  A    between atoms: C17_26  and  C18_27 
REMARK   16  A    between atoms: C17_26  and  C19_28 
REMARK   17  A    between atoms: C20_29  and  C21_30 
REMARK   18  A    between atoms: C20_29  and  C24_33 
REMARK   19  A    between atoms: C20_29  and  N6_40 
REMARK   20  A    between atoms: C21_30  and  C22_31 
REMARK   21  A    between atoms: C22_31  and  C23_32 
REMARK   22  A    between atoms: C23_32  and  O8_43 
REMARK   23  A    between atoms: C24_33  and  C25_34 
REMARK   24  A    between atoms: C28_38  and  O6_39 
REMARK   25  A    between atoms: C29_42  and  O8_43 
REMARK   26  A    between atoms: C29_42  and  C35_49 
ROOT
ATOM      1  C14 non d ame     -36.463  15.880  26.529  0.00  0.00     0.089 C 
ATOM      2  H20 non d ame     -37.096  16.435  27.222  0.00  0.00     0.087 H 
ENDROOT
BRANCH   1   3
ATOM      3  N4  non d ame     -35.083  16.061  26.954  0.00  0.00    -0.346 N 
ATOM      4  C10 non d ame     -34.713  17.196  27.876  0.00  0.00     0.241 C 
ATOM      5  O4  non d ame     -35.542  17.952  28.260  0.00  0.00    -0.271 OA
ATOM      6  H19 non d ame     -34.392  15.407  26.614  0.00  0.00     0.163 HD
BRANCH   4   7
ATOM      7  C9  non d ame     -33.281  17.364  28.311  0.00  0.00     0.092 C 
ATOM      8  H11 non d ame     -33.257  17.848  29.288  0.00  0.00     0.088 H 
BRANCH   7   9
ATOM      9  N3  non d ame     -32.658  16.047  28.464  0.00  0.00    -0.346 N 
ATOM     10  C7  non d ame     -31.743  15.804  29.553  0.00  0.00     0.240 C 
ATOM     11  O3  non d ame     -31.495  16.659  30.313  0.00  0.00    -0.271 OA
ATOM     12  H10 non d ame     -32.860  15.300  27.816  0.00  0.00     0.163 HD
BRANCH  10  13
ATOM     13  C6  non d ame     -31.080  14.401  29.709  0.00  0.00     0.086 C 
ATOM     14  H6  non d ame     -30.423  14.339  30.577  0.00  0.00     0.086 H 
BRANCH  13  15
ATOM     15  N2  non d ame     -32.123  13.407  29.907  0.00  0.00    -0.343 N 
ATOM     16  C5  non d ame     -31.805  12.155  30.597  0.00  0.00     0.273 C 
ATOM     17  O2  non d ame     -30.707  11.956  30.987  0.00  0.00    -0.266 OA
ATOM     18  H5  non d ame     -33.057  13.584  29.566  0.00  0.00     0.163 HD
BRANCH  16  19
ATOM     19  C4  non d ame     -32.897  11.097  30.813  0.00  0.00     0.154 A 
ATOM     20  C1  non d ame     -33.301  10.071  29.901  0.00  0.00    -0.017 A 
ATOM     21  C2  non d ame     -34.330   9.373  30.571  0.00  0.00     0.077 A 
ATOM     22  H1  non d ame     -32.910   9.867  28.904  0.00  0.00     0.091 H 
ATOM     23  O1  non d ame     -34.488   9.937  31.733  0.00  0.00    -0.218 OA
ATOM     24  N1  non d ame     -33.664  10.945  31.897  0.00  0.00    -0.123 NA
BRANCH  21  25
ATOM     25  C3  non d ame     -35.108   8.179  30.033  0.00  0.00    -0.029 C 
ATOM     26  H2  non d ame     -35.763   8.506  29.224  0.00  0.00     0.036 H 
ATOM     27  H3  non d ame     -34.411   7.432  29.655  0.00  0.00     0.036 H 
ATOM     28  H4  non d ame     -35.708   7.746  30.832  0.00  0.00     0.036 H 
ENDBRANCH  21  25
ENDBRANCH  16  19
ENDBRANCH  13  15
BRANCH  13  29
ATOM     29  C8  non d ame     -30.285  14.076  28.470  0.00  0.00    -0.049 C 
ATOM     30  H7  non d ame     -30.335  14.914  27.776  0.00  0.00     0.030 H 
ATOM     31  H8  non d ame     -29.245  13.893  28.744  0.00  0.00     0.030 H 
ATOM     32  H9  non d ame     -30.698  13.185  27.996  0.00  0.00     0.030 H 
ENDBRANCH  13  29
ENDBRANCH  10  13
ENDBRANCH   7   9
BRANCH   7  33
ATOM     33  C11 non d ame     -32.506  18.180  27.236  0.00  0.00    -0.033 C 
ATOM     34  H12 non d ame     -31.463  17.863  27.272  0.00  0.00     0.042 H 
BRANCH  33  35
ATOM     35  C12 non d ame     -33.038  17.879  25.799  0.00  0.00    -0.071 C 
ATOM     36  H13 non d ame     -32.197  17.791  25.112  0.00  0.00     0.028 H 
ATOM     37  H14 non d ame     -33.598  16.945  25.809  0.00  0.00     0.028 H 
ATOM     38  H15 non d ame     -33.688  18.691  25.475  0.00  0.00     0.028 H 
ENDBRANCH  33  35
BRANCH  33  39
ATOM     39  C13 non d ame     -32.557  19.709  27.549  0.00  0.00    -0.071 C 
ATOM     40  H16 non d ame     -32.832  19.858  28.594  0.00  0.00     0.028 H 
ATOM     41  H17 non d ame     -31.577  20.152  27.365  0.00  0.00     0.028 H 
ATOM     42  H18 non d ame     -33.296  20.188  26.907  0.00  0.00     0.028 H 
ENDBRANCH  33  39
ENDBRANCH   7  33
ENDBRANCH   4   7
ENDBRANCH   1   3
BRANCH   1  43
ATOM     43  C15 non d ame     -36.786  14.358  26.529  0.00  0.00     0.240 C 
ATOM     44  O5  non d ame     -37.827  13.976  26.955  0.00  0.00    -0.271 OA
ATOM     45  N6  non d ame     -35.801  13.379  25.989  0.00  0.00    -0.355 N 
ATOM     46  H46 non d ame     -34.915  13.693  25.620  0.00  0.00     0.162 HD
BRANCH  45  47
ATOM     47  C20 non d ame     -36.123  11.935  25.994  0.00  0.00     0.013 C 
ATOM     48  H30 non d ame     -37.020  11.794  26.598  0.00  0.00     0.072 H 
BRANCH  47  49
ATOM     49  C21 non d ame     -34.968  11.167  26.597  0.00  0.00    -0.038 C 
ATOM     50  H31 non d ame     -34.812  11.599  27.587  0.00  0.00     0.036 H 
ATOM     51  H32 non d ame     -35.231  10.115  26.497  0.00  0.00     0.036 H 
BRANCH  49  52
ATOM     52  C22 non d ame     -33.648  11.364  25.822  0.00  0.00     0.018 C 
ATOM     53  H33 non d ame     -32.995  10.552  26.139  0.00  0.00     0.048 H 
ATOM     54  H34 non d ame     -33.933  11.456  24.772  0.00  0.00     0.048 H 
BRANCH  52  55
ATOM     55  C23 non d ame     -32.901  12.679  26.178  0.00  0.00     0.259 C 
ATOM     56  O7  non d ame     -33.227  13.320  27.125  0.00  0.00    -0.265 OA
BRANCH  55  57
ATOM     57  O8  non d ame     -31.830  13.119  25.351  0.00  0.00    -0.317 OA
BRANCH  57  58
ATOM     58  C29 non d ame     -31.916  14.496  24.973  0.00  0.00     0.052 C 
ATOM     59  H47 non d ame     -32.977  14.696  24.826  0.00  0.00     0.082 H 
ATOM     60  H48 non d ame     -31.357  15.046  25.730  0.00  0.00     0.082 H 
BRANCH  58  61
ATOM     61  C35 non d ame     -31.192  14.665  23.610  0.00  0.00    -0.034 A 
ATOM     62  C30 non d ame     -30.369  13.651  23.130  0.00  0.00    -0.075 A 
ATOM     63  C31 non d ame     -29.718  13.803  21.906  0.00  0.00    -0.082 A 
ATOM     64  H49 non d ame     -30.232  12.740  23.711  0.00  0.00     0.084 H 
ATOM     65  C32 non d ame     -29.891  14.974  21.163  0.00  0.00    -0.083 A 
ATOM     66  H50 non d ame     -29.074  13.006  21.531  0.00  0.00     0.083 H 
ATOM     67  C33 non d ame     -30.711  15.984  21.649  0.00  0.00    -0.082 A 
ATOM     68  H51 non d ame     -29.386  15.100  20.205  0.00  0.00     0.083 H 
ATOM     69  C34 non d ame     -31.365  15.836  22.871  0.00  0.00    -0.075 A 
ATOM     70  H52 non d ame     -30.842  16.897  21.069  0.00  0.00     0.083 H 
ATOM     71  H53 non d ame     -32.008  16.633  23.244  0.00  0.00     0.084 H 
ENDBRANCH  58  61
ENDBRANCH  57  58
ENDBRANCH  55  57
ENDBRANCH  52  55
ENDBRANCH  49  52
ENDBRANCH  47  49
BRANCH  47  72
ATOM     72  C24 non d ame     -36.366  11.454  24.565  0.00  0.00    -0.039 C 
ATOM     73  H35 non d ame     -35.793  12.132  23.931  0.00  0.00     0.036 H 
ATOM     74  H36 non d ame     -36.132  10.390  24.574  0.00  0.00     0.036 H 
BRANCH  72  75
ATOM     75  C25 non d ame     -37.904  11.598  24.144  0.00  0.00    -0.001 C 
ATOM     76  C26 non d ame     -38.428  10.201  23.454  0.00  0.00    -0.035 C 
ATOM     77  C27 non d ame     -39.016  10.493  22.269  0.00  0.00     0.085 C 
ATOM     78  H38 non d ame     -37.577   9.582  23.170  0.00  0.00     0.036 H 
ATOM     79  H39 non d ame     -39.240   9.774  24.043  0.00  0.00     0.036 H 
ATOM     80  N5  non d ame     -38.651  11.919  21.935  0.00  0.00    -0.049 N 
ATOM     81  H40 non d ame     -38.551   9.828  21.541  0.00  0.00     0.075 H 
ATOM     82  H41 non d ame     -40.088  10.435  22.454  0.00  0.00     0.075 H 
ATOM     83  C28 non d ame     -38.070  12.560  23.299  0.00  0.00     0.193 C 
ATOM     84  H42 non d ame     -37.904  11.873  21.258  0.00  0.00     0.280 HD
ATOM     85  H43 non d ame     -39.515  12.388  21.702  0.00  0.00     0.280 HD
ATOM     86  H44 non d ame     -38.677  13.243  23.892  0.00  0.00     0.129 H 
ATOM     87  H37 non d ame     -38.515  12.014  24.945  0.00  0.00     0.046 H 
BRANCH  83  88
ATOM     88  O6  non d ame     -36.853  13.261  23.034  0.00  0.00    -0.369 OA
ATOM     89  H45 non d ame     -36.888  13.641  22.154  0.00  0.00     0.212 HD
ENDBRANCH  83  88
ENDBRANCH  72  75
ENDBRANCH  47  72
ENDBRANCH  45  47
ENDBRANCH   1  43
BRANCH   1  90
ATOM     90  C16 non d ame     -36.626  16.437  25.124  0.00  0.00    -0.035 C 
ATOM     91  H21 non d ame     -35.619  16.690  24.795  0.00  0.00     0.037 H 
ATOM     92  H22 non d ame     -37.204  15.689  24.582  0.00  0.00     0.037 H 
BRANCH  90  93
ATOM     93  C17 non d ame     -37.453  17.761  25.066  0.00  0.00    -0.059 C 
ATOM     94  H23 non d ame     -38.030  17.751  24.142  0.00  0.00     0.038 H 
BRANCH  93  95
ATOM     95  C18 non d ame     -38.459  17.879  26.256  0.00  0.00    -0.073 C 
ATOM     96  H24 non d ame     -37.928  17.730  27.196  0.00  0.00     0.028 H 
ATOM     97  H25 non d ame     -38.913  18.870  26.249  0.00  0.00     0.028 H 
ATOM     98  H26 non d ame     -39.236  17.123  26.152  0.00  0.00     0.028 H 
ENDBRANCH  93  95
BRANCH  93  99
ATOM     99  C19 non d ame     -36.529  18.980  25.011  0.00  0.00    -0.073 C 
ATOM    100  H27 non d ame     -36.217  19.246  26.022  0.00  0.00     0.028 H 
ATOM    101  H28 non d ame     -35.650  18.744  24.411  0.00  0.00     0.028 H 
ATOM    102  H29 non d ame     -37.060  19.819  24.561  0.00  0.00     0.028 H 
ENDBRANCH  93  99
ENDBRANCH  90  93
ENDBRANCH   1  90
TORSDOF 26
ENDMDL
MODEL 9
REMARK VINA RESULT:      -6.9      2.593      5.856
REMARK  26 active torsions:
REMARK  status: ('A' for Active; 'I' for Inactive)
REMARK    1  A    between atoms: C2_2  and  C3_3 
REMARK    2  A    between atoms: C4_6  and  C5_7 
REMARK       I    between atoms: C5_7  and  N2_9 
REMARK    3  A    between atoms: N2_9  and  C6_10 
REMARK    4  A    between atoms: C6_10  and  C7_11 
REMARK    5  A    between atoms: C6_10  and  C8_13 
REMARK       I    between atoms: C7_11  and  N3_14 
REMARK    6  A    between atoms: N3_14  and  C9_15 
REMARK    7  A    between atoms: C9_15  and  C10_16 
REMARK    8  A    between atoms: C9_15  and  C11_18 
REMARK       I    between atoms: C10_16  and  N4_21 
REMARK    9  A    between atoms: C11_18  and  C12_19 
REMARK   10  A    between atoms: C11_18  and  C13_20 
REMARK   11  A    between atoms: N4_21  and  C14_22 
REMARK   12  A    between atoms: C14_22  and  C15_23 
REMARK   13  A    between atoms: C14_22  and  C16_25 
REMARK       I    between atoms: C15_23  and  N6_40 
REMARK   14  A    between atoms: C16_25  and  C17_26 
REMARK   15  A    between atoms: C17_26  and  C18_27 
REMARK   16  A    between atoms: C17_26  and  C19_28 
REMARK   17  A    between atoms: C20_29  and  C21_30 
REMARK   18  A    between atoms: C20_29  and  C24_33 
REMARK   19  A    between atoms: C20_29  and  N6_40 
REMARK   20  A    between atoms: C21_30  and  C22_31 
REMARK   21  A    between atoms: C22_31  and  C23_32 
REMARK   22  A    between atoms: C23_32  and  O8_43 
REMARK   23  A    between atoms: C24_33  and  C25_34 
REMARK   24  A    between atoms: C28_38  and  O6_39 
REMARK   25  A    between atoms: C29_42  and  O8_43 
REMARK   26  A    between atoms: C29_42  and  C35_49 
ROOT
ATOM      1  C14 non d ame     -32.917  10.028  26.486  0.00  0.00     0.089 C 
ATOM      2  H20 non d ame     -33.637  10.501  25.817  0.00  0.00     0.087 H 
ENDROOT
BRANCH   1   3
ATOM      3  N4  non d ame     -32.235   8.988  25.729  0.00  0.00    -0.346 N 
ATOM      4  C10 non d ame     -33.011   8.092  24.797  0.00  0.00     0.241 C 
ATOM      5  O4  non d ame     -34.183   8.223  24.675  0.00  0.00    -0.271 OA
ATOM      6  H19 non d ame     -31.237   8.891  25.849  0.00  0.00     0.163 HD
BRANCH   4   7
ATOM      7  C9  non d ame     -32.288   7.025  24.018  0.00  0.00     0.092 C 
ATOM      8  H11 non d ame     -32.855   6.792  23.116  0.00  0.00     0.088 H 
BRANCH   7   9
ATOM      9  N3  non d ame     -30.981   7.533  23.590  0.00  0.00    -0.346 N 
ATOM     10  C7  non d ame     -30.807   8.033  22.248  0.00  0.00     0.240 C 
ATOM     11  O3  non d ame     -31.707   8.033  21.500  0.00  0.00    -0.271 OA
ATOM     12  H10 non d ame     -30.195   7.538  24.223  0.00  0.00     0.163 HD
BRANCH  10  13
ATOM     13  C6  non d ame     -29.413   8.570  21.797  0.00  0.00     0.086 C 
ATOM     14  H6  non d ame     -29.118   8.203  20.814  0.00  0.00     0.086 H 
BRANCH  13  15
ATOM     15  N2  non d ame     -29.475  10.019  21.699  0.00  0.00    -0.343 N 
ATOM     16  C5  non d ame     -29.982  10.797  22.831  0.00  0.00     0.273 C 
ATOM     17  O2  non d ame     -30.339  10.248  23.815  0.00  0.00    -0.266 OA
ATOM     18  H5  non d ame     -29.172  10.479  20.852  0.00  0.00     0.163 HD
BRANCH  16  19
ATOM     19  C4  non d ame     -30.052  12.329  22.741  0.00  0.00     0.154 A 
ATOM     20  C1  non d ame     -29.354  13.175  21.822  0.00  0.00    -0.017 A 
ATOM     21  C2  non d ame     -29.760  14.487  22.154  0.00  0.00     0.077 A 
ATOM     22  H1  non d ame     -28.658  12.882  21.036  0.00  0.00     0.091 H 
ATOM     23  O1  non d ame     -30.596  14.394  23.147  0.00  0.00    -0.218 OA
ATOM     24  N1  non d ame     -30.781  13.145  23.507  0.00  0.00    -0.123 NA
BRANCH  21  25
ATOM     25  C3  non d ame     -29.304  15.771  21.473  0.00  0.00    -0.029 C 
ATOM     26  H2  non d ame     -29.793  16.624  21.943  0.00  0.00     0.036 H 
ATOM     27  H3  non d ame     -28.223  15.871  21.574  0.00  0.00     0.036 H 
ATOM     28  H4  non d ame     -29.569  15.736  20.418  0.00  0.00     0.036 H 
ENDBRANCH  21  25
ENDBRANCH  16  19
ENDBRANCH  13  15
BRANCH  13  29
ATOM     29  C8  non d ame     -28.365   8.165  22.803  0.00  0.00    -0.049 C 
ATOM     30  H7  non d ame     -28.441   7.095  22.997  0.00  0.00     0.030 H 
ATOM     31  H8  non d ame     -27.375   8.393  22.408  0.00  0.00     0.030 H 
ATOM     32  H9  non d ame     -28.522   8.715  23.731  0.00  0.00     0.030 H 
ENDBRANCH  13  29
ENDBRANCH  10  13
ENDBRANCH   7   9
BRANCH   7  33
ATOM     33  C11 non d ame     -32.085   5.772  24.919  0.00  0.00    -0.033 C 
ATOM     34  H12 non d ame     -31.098   5.364  24.697  0.00  0.00     0.042 H 
BRANCH  33  35
ATOM     35  C12 non d ame     -32.106   6.151  26.433  0.00  0.00    -0.071 C 
ATOM     36  H13 non d ame     -31.460   5.470  26.987  0.00  0.00     0.028 H 
ATOM     37  H14 non d ame     -31.748   7.172  26.557  0.00  0.00     0.028 H 
ATOM     38  H15 non d ame     -33.124   6.073  26.813  0.00  0.00     0.028 H 
ENDBRANCH  33  35
BRANCH  33  39
ATOM     39  C13 non d ame     -33.146   4.672  24.595  0.00  0.00    -0.071 C 
ATOM     40  H16 non d ame     -33.854   5.055  23.860  0.00  0.00     0.028 H 
ATOM     41  H17 non d ame     -32.646   3.790  24.194  0.00  0.00     0.028 H 
ATOM     42  H18 non d ame     -33.679   4.403  25.507  0.00  0.00     0.028 H 
ENDBRANCH  33  39
ENDBRANCH   7  33
ENDBRANCH   4   7
ENDBRANCH   1   3
BRANCH   1  43
ATOM     43  C15 non d ame     -31.855  11.034  27.013  0.00  0.00     0.240 C 
ATOM     44  O5  non d ame     -30.857  11.218  26.395  0.00  0.00    -0.271 OA
ATOM     45  N6  non d ame     -32.087  11.776  28.285  0.00  0.00    -0.355 N 
ATOM     46  H46 non d ame     -32.934  11.632  28.816  0.00  0.00     0.162 HD
BRANCH  45  47
ATOM     47  C20 non d ame     -31.068  12.732  28.773  0.00  0.00     0.013 C 
ATOM     48  H30 non d ame     -30.098  12.411  28.392  0.00  0.00     0.072 H 
BRANCH  47  49
ATOM     49  C21 non d ame     -31.058  12.723  30.285  0.00  0.00    -0.038 C 
ATOM     50  H31 non d ame     -30.013  12.850  30.573  0.00  0.00     0.036 H 
ATOM     51  H32 non d ame     -31.801  13.459  30.588  0.00  0.00     0.036 H 
BRANCH  49  52
ATOM     52  C22 non d ame     -31.513  11.372  30.879  0.00  0.00     0.018 C 
ATOM     53  H33 non d ame     -31.244  10.619  30.140  0.00  0.00     0.048 H 
ATOM     54  H34 non d ame     -31.081  11.331  31.881  0.00  0.00     0.048 H 
BRANCH  52  55
ATOM     55  C23 non d ame     -33.050  11.257  31.070  0.00  0.00     0.259 C 
ATOM     56  O7  non d ame     -33.738  12.225  31.028  0.00  0.00    -0.265 OA
BRANCH  55  57
ATOM     57  O8  non d ame     -33.629   9.980  31.311  0.00  0.00    -0.317 OA
BRANCH  57  58
ATOM     58  C29 non d ame     -34.904  10.032  31.957  0.00  0.00     0.052 C 
ATOM     59  H47 non d ame     -34.693  10.047  33.025  0.00  0.00     0.082 H 
ATOM     60  H48 non d ame     -35.436  10.863  31.493  0.00  0.00     0.082 H 
BRANCH  58  61
ATOM     61  C35 non d ame     -35.663   8.718  31.626  0.00  0.00    -0.034 A 
ATOM     62  C30 non d ame     -34.958   7.530  31.460  0.00  0.00    -0.075 A 
ATOM     63  C31 non d ame     -35.640   6.350  31.162  0.00  0.00    -0.082 A 
ATOM     64  H49 non d ame     -33.873   7.523  31.562  0.00  0.00     0.084 H 
ATOM     65  C32 non d ame     -37.031   6.363  31.028  0.00  0.00    -0.083 A 
ATOM     66  H50 non d ame     -35.085   5.421  31.034  0.00  0.00     0.083 H 
ATOM     67  C33 non d ame     -37.729   7.551  31.192  0.00  0.00    -0.082 A 
ATOM     68  H51 non d ame     -37.570   5.445  30.797  0.00  0.00     0.083 H 
ATOM     69  C34 non d ame     -37.052   8.732  31.491  0.00  0.00    -0.075 A 
ATOM     70  H52 non d ame     -38.814   7.558  31.084  0.00  0.00     0.083 H 
ATOM     71  H53 non d ame     -37.608   9.661  31.619  0.00  0.00     0.084 H 
ENDBRANCH  58  61
ENDBRANCH  57  58
ENDBRANCH  55  57
ENDBRANCH  52  55
ENDBRANCH  49  52
ENDBRANCH  47  49
BRANCH  47  72
ATOM     72  C24 non d ame     -31.395  14.137  28.273  0.00  0.00    -0.039 C 
ATOM     73  H35 non d ame     -31.018  14.813  29.042  0.00  0.00     0.036 H 
ATOM     74  H36 non d ame     -30.994  14.186  27.261  0.00  0.00     0.036 H 
BRANCH  72  75
ATOM     75  C25 non d ame     -32.976  14.375  28.167  0.00  0.00    -0.001 C 
ATOM     76  C26 non d ame     -33.392  14.677  26.606  0.00  0.00    -0.035 C 
ATOM     77  C27 non d ame     -34.133  15.810  26.562  0.00  0.00     0.085 C 
ATOM     78  H38 non d ame     -32.506  14.929  26.024  0.00  0.00     0.036 H 
ATOM     79  H39 non d ame     -34.079  13.910  26.247  0.00  0.00     0.036 H 
ATOM     80  N5  non d ame     -33.984  16.486  27.903  0.00  0.00    -0.049 N 
ATOM     81  H40 non d ame     -33.669  16.433  25.797  0.00  0.00     0.075 H 
ATOM     82  H41 non d ame     -35.165  15.479  26.444  0.00  0.00     0.075 H 
ATOM     83  C28 non d ame     -33.347  15.379  28.891  0.00  0.00     0.193 C 
ATOM     84  H42 non d ame     -33.312  17.229  27.777  0.00  0.00     0.280 HD
ATOM     85  H43 non d ame     -34.919  16.700  28.221  0.00  0.00     0.280 HD
ATOM     86  H44 non d ame     -33.967  14.872  29.629  0.00  0.00     0.129 H 
ATOM     87  H37 non d ame     -33.545  13.610  28.694  0.00  0.00     0.046 H 
BRANCH  83  88
ATOM     88  O6  non d ame     -32.261  15.943  29.628  0.00  0.00    -0.369 OA
ATOM     89  H45 non d ame     -32.524  16.064  30.543  0.00  0.00     0.212 HD
ENDBRANCH  83  88
ENDBRANCH  72  75
ENDBRANCH  47  72
ENDBRANCH  45  47
ENDBRANCH   1  43
BRANCH   1  90
ATOM     90  C16 non d ame     -33.645   9.391  27.658  0.00  0.00    -0.035 C 
ATOM     91  H21 non d ame     -33.392   8.333  27.616  0.00  0.00     0.037 H 
ATOM     92  H22 non d ame     -33.365   9.984  28.529  0.00  0.00     0.037 H 
BRANCH  90  93
ATOM     93  C17 non d ame     -35.201   9.475  27.550  0.00  0.00    -0.059 C 
ATOM     94  H23 non d ame     -35.449   9.727  26.520  0.00  0.00     0.038 H 
BRANCH  93  95
ATOM     95  C18 non d ame     -35.889   8.114  27.887  0.00  0.00    -0.073 C 
ATOM     96  H24 non d ame     -36.966   8.204  27.740  0.00  0.00     0.028 H 
ATOM     97  H25 non d ame     -35.498   7.337  27.230  0.00  0.00     0.028 H 
ATOM     98  H26 non d ame     -35.685   7.849  28.924  0.00  0.00     0.028 H 
ENDBRANCH  93  95
BRANCH  93  99
ATOM     99  C19 non d ame     -35.751  10.596  28.437  0.00  0.00    -0.073 C 
ATOM    100  H27 non d ame     -35.915  11.490  27.833  0.00  0.00     0.028 H 
ATOM    101  H28 non d ame     -36.696  10.280  28.879  0.00  0.00     0.028 H 
ATOM    102  H29 non d ame     -35.036  10.818  29.228  0.00  0.00     0.028 H 
ENDBRANCH  93  99
ENDBRANCH  90  93
ENDBRANCH   1  90
TORSDOF 26
ENDMDL
MODEL 10
REMARK VINA RESULT:      -6.9      3.427      7.205
REMARK  26 active torsions:
REMARK  status: ('A' for Active; 'I' for Inactive)
REMARK    1  A    between atoms: C2_2  and  C3_3 
REMARK    2  A    between atoms: C4_6  and  C5_7 
REMARK       I    between atoms: C5_7  and  N2_9 
REMARK    3  A    between atoms: N2_9  and  C6_10 
REMARK    4  A    between atoms: C6_10  and  C7_11 
REMARK    5  A    between atoms: C6_10  and  C8_13 
REMARK       I    between atoms: C7_11  and  N3_14 
REMARK    6  A    between atoms: N3_14  and  C9_15 
REMARK    7  A    between atoms: C9_15  and  C10_16 
REMARK    8  A    between atoms: C9_15  and  C11_18 
REMARK       I    between atoms: C10_16  and  N4_21 
REMARK    9  A    between atoms: C11_18  and  C12_19 
REMARK   10  A    between atoms: C11_18  and  C13_20 
REMARK   11  A    between atoms: N4_21  and  C14_22 
REMARK   12  A    between atoms: C14_22  and  C15_23 
REMARK   13  A    between atoms: C14_22  and  C16_25 
REMARK       I    between atoms: C15_23  and  N6_40 
REMARK   14  A    between atoms: C16_25  and  C17_26 
REMARK   15  A    between atoms: C17_26  and  C18_27 
REMARK   16  A    between atoms: C17_26  and  C19_28 
REMARK   17  A    between atoms: C20_29  and  C21_30 
REMARK   18  A    between atoms: C20_29  and  C24_33 
REMARK   19  A    between atoms: C20_29  and  N6_40 
REMARK   20  A    between atoms: C21_30  and  C22_31 
REMARK   21  A    between atoms: C22_31  and  C23_32 
REMARK   22  A    between atoms: C23_32  and  O8_43 
REMARK   23  A    between atoms: C24_33  and  C25_34 
REMARK   24  A    between atoms: C28_38  and  O6_39 
REMARK   25  A    between atoms: C29_42  and  O8_43 
REMARK   26  A    between atoms: C29_42  and  C35_49 
ROOT
ATOM      1  C14 non d ame     -32.979  10.247  25.430  0.00  0.00     0.089 C 
ATOM      2  H20 non d ame     -33.658  10.321  24.580  0.00  0.00     0.087 H 
ENDROOT
BRANCH   1   3
ATOM      3  N4  non d ame     -32.414   8.906  25.423  0.00  0.00    -0.346 N 
ATOM      4  C10 non d ame     -33.181   7.759  24.814  0.00  0.00     0.241 C 
ATOM      5  O4  non d ame     -34.253   7.939  24.339  0.00  0.00    -0.271 OA
ATOM      6  H19 non d ame     -31.501   8.774  25.835  0.00  0.00     0.163 HD
BRANCH   4   7
ATOM      7  C9  non d ame     -32.578   6.379  24.811  0.00  0.00     0.092 C 
ATOM      8  H11 non d ame     -31.510   6.454  25.020  0.00  0.00     0.088 H 
BRANCH   7   9
ATOM      9  N3  non d ame     -33.175   5.581  25.885  0.00  0.00    -0.346 N 
ATOM     10  C7  non d ame     -32.704   5.729  27.240  0.00  0.00     0.240 C 
ATOM     11  O3  non d ame     -31.843   6.485  27.483  0.00  0.00    -0.271 OA
ATOM     12  H10 non d ame     -33.916   4.924  25.691  0.00  0.00     0.163 HD
BRANCH  10  13
ATOM     13  C6  non d ame     -33.341   4.875  28.380  0.00  0.00     0.086 C 
ATOM     14  H6  non d ame     -32.705   4.807  29.262  0.00  0.00     0.086 H 
BRANCH  13  15
ATOM     15  N2  non d ame     -34.578   5.508  28.807  0.00  0.00    -0.343 N 
ATOM     16  C5  non d ame     -34.927   5.522  30.230  0.00  0.00     0.273 C 
ATOM     17  O2  non d ame     -34.208   5.020  31.021  0.00  0.00    -0.266 OA
ATOM     18  H5  non d ame     -35.189   5.931  28.123  0.00  0.00     0.163 HD
BRANCH  16  19
ATOM     19  C4  non d ame     -36.231   6.189  30.695  0.00  0.00     0.154 A 
ATOM     20  C1  non d ame     -36.514   7.590  30.748  0.00  0.00    -0.017 A 
ATOM     21  C2  non d ame     -37.835   7.676  31.243  0.00  0.00     0.077 A 
ATOM     22  H1  non d ame     -35.862   8.418  30.472  0.00  0.00     0.091 H 
ATOM     23  O1  non d ame     -38.253   6.459  31.444  0.00  0.00    -0.218 OA
ATOM     24  N1  non d ame     -37.334   5.575  31.133  0.00  0.00    -0.123 NA
BRANCH  21  25
ATOM     25  C3  non d ame     -38.624   8.954  31.492  0.00  0.00    -0.029 C 
ATOM     26  H2  non d ame     -38.964   9.363  30.540  0.00  0.00     0.036 H 
ATOM     27  H3  non d ame     -39.486   8.733  32.121  0.00  0.00     0.036 H 
ATOM     28  H4  non d ame     -37.987   9.683  31.992  0.00  0.00     0.036 H 
ENDBRANCH  21  25
ENDBRANCH  16  19
ENDBRANCH  13  15
BRANCH  13  29
ATOM     29  C8  non d ame     -33.622   3.483  27.871  0.00  0.00    -0.049 C 
ATOM     30  H7  non d ame     -34.656   3.218  28.090  0.00  0.00     0.030 H 
ATOM     31  H8  non d ame     -33.459   3.451  26.794  0.00  0.00     0.030 H 
ATOM     32  H9  non d ame     -32.953   2.776  28.361  0.00  0.00     0.030 H 
ENDBRANCH  13  29
ENDBRANCH  10  13
ENDBRANCH   7   9
BRANCH   7  33
ATOM     33  C11 non d ame     -32.858   5.694  23.442  0.00  0.00    -0.033 C 
ATOM     34  H12 non d ame     -33.738   6.172  23.010  0.00  0.00     0.042 H 
BRANCH  33  35
ATOM     35  C12 non d ame     -31.674   5.903  22.447  0.00  0.00    -0.071 C 
ATOM     36  H13 non d ame     -31.386   6.954  22.441  0.00  0.00     0.028 H 
ATOM     37  H14 non d ame     -30.826   5.295  22.760  0.00  0.00     0.028 H 
ATOM     38  H15 non d ame     -31.985   5.606  21.445  0.00  0.00     0.028 H 
ENDBRANCH  33  35
BRANCH  33  39
ATOM     39  C13 non d ame     -33.179   4.176  23.631  0.00  0.00    -0.071 C 
ATOM     40  H16 non d ame     -32.247   3.617  23.728  0.00  0.00     0.028 H 
ATOM     41  H17 non d ame     -33.780   4.040  24.530  0.00  0.00     0.028 H 
ATOM     42  H18 non d ame     -33.733   3.812  22.767  0.00  0.00     0.028 H 
ENDBRANCH  33  39
ENDBRANCH   7  33
ENDBRANCH   4   7
ENDBRANCH   1   3
BRANCH   1  43
ATOM     43  C15 non d ame     -31.816  11.276  25.346  0.00  0.00     0.240 C 
ATOM     44  O5  non d ame     -30.744  10.991  25.772  0.00  0.00    -0.271 OA
ATOM     45  N6  non d ame     -32.036  12.612  24.724  0.00  0.00    -0.355 N 
ATOM     46  H46 non d ame     -32.942  12.863  24.354  0.00  0.00     0.162 HD
BRANCH  45  47
ATOM     47  C20 non d ame     -30.919  13.579  24.649  0.00  0.00     0.013 C 
ATOM     48  H30 non d ame     -30.097  13.188  25.248  0.00  0.00     0.072 H 
BRANCH  47  49
ATOM     49  C21 non d ame     -31.373  14.911  25.202  0.00  0.00    -0.038 C 
ATOM     50  H31 non d ame     -30.601  15.627  24.918  0.00  0.00     0.036 H 
ATOM     51  H32 non d ame     -32.395  15.043  24.848  0.00  0.00     0.036 H 
BRANCH  49  52
ATOM     52  C22 non d ame     -31.438  14.930  26.744  0.00  0.00     0.018 C 
ATOM     53  H33 non d ame     -30.886  14.051  27.074  0.00  0.00     0.048 H 
ATOM     54  H34 non d ame     -31.105  15.926  27.041  0.00  0.00     0.048 H 
BRANCH  52  55
ATOM     55  C23 non d ame     -32.875  14.771  27.313  0.00  0.00     0.259 C 
ATOM     56  O7  non d ame     -33.618  13.962  26.860  0.00  0.00    -0.265 OA
BRANCH  55  57
ATOM     57  O8  non d ame     -33.302  15.617  28.375  0.00  0.00    -0.317 OA
BRANCH  57  58
ATOM     58  C29 non d ame     -34.484  16.368  28.080  0.00  0.00     0.052 C 
ATOM     59  H47 non d ame     -34.940  15.875  27.222  0.00  0.00     0.082 H 
ATOM     60  H48 non d ame     -35.029  16.441  29.021  0.00  0.00     0.082 H 
BRANCH  58  61
ATOM     61  C35 non d ame     -34.050  17.796  27.654  0.00  0.00    -0.034 A 
ATOM     62  C30 non d ame     -34.913  18.591  26.904  0.00  0.00    -0.075 A 
ATOM     63  C31 non d ame     -34.523  19.874  26.521  0.00  0.00    -0.082 A 
ATOM     64  H49 non d ame     -35.892  18.209  26.617  0.00  0.00     0.084 H 
ATOM     65  C32 non d ame     -33.265  20.360  26.887  0.00  0.00    -0.083 A 
ATOM     66  H50 non d ame     -35.202  20.495  25.935  0.00  0.00     0.083 H 
ATOM     67  C33 non d ame     -32.407  19.562  27.631  0.00  0.00    -0.082 A 
ATOM     68  H51 non d ame     -32.954  21.362  26.591  0.00  0.00     0.083 H 
ATOM     69  C34 non d ame     -32.793  18.280  28.019  0.00  0.00    -0.075 A 
ATOM     70  H52 non d ame     -31.426  19.943  27.914  0.00  0.00     0.083 H 
ATOM     71  H53 non d ame     -32.114  17.660  28.605  0.00  0.00     0.084 H 
ENDBRANCH  58  61
ENDBRANCH  57  58
ENDBRANCH  55  57
ENDBRANCH  52  55
ENDBRANCH  49  52
ENDBRANCH  47  49
BRANCH  47  72
ATOM     72  C24 non d ame     -30.481  13.752  23.196  0.00  0.00    -0.039 C 
ATOM     73  H35 non d ame     -29.534  13.217  23.114  0.00  0.00     0.036 H 
ATOM     74  H36 non d ame     -31.336  13.441  22.597  0.00  0.00     0.036 H 
BRANCH  72  75
ATOM     75  C25 non d ame     -30.191  15.287  22.843  0.00  0.00    -0.001 C 
ATOM     76  C26 non d ame     -31.282  15.823  21.737  0.00  0.00    -0.035 C 
ATOM     77  C27 non d ame     -30.615  16.402  20.710  0.00  0.00     0.085 C 
ATOM     78  H38 non d ame     -31.786  14.978  21.269  0.00  0.00     0.036 H 
ATOM     79  H39 non d ame     -31.867  16.643  22.155  0.00  0.00     0.036 H 
ATOM     80  N5  non d ame     -29.162  16.019  20.857  0.00  0.00    -0.049 N 
ATOM     81  H40 non d ame     -31.014  15.941  19.806  0.00  0.00     0.075 H 
ATOM     82  H41 non d ame     -30.716  17.476  20.865  0.00  0.00     0.075 H 
ATOM     83  C28 non d ame     -29.004  15.438  22.355  0.00  0.00     0.193 C 
ATOM     84  H42 non d ame     -28.995  15.269  20.201  0.00  0.00     0.280 HD
ATOM     85  H43 non d ame     -28.632  16.877  20.787  0.00  0.00     0.280 HD
ATOM     86  H44 non d ame     -28.543  16.040  23.137  0.00  0.00     0.129 H 
ATOM     87  H37 non d ame     -30.049  15.897  23.735  0.00  0.00     0.046 H 
BRANCH  83  88
ATOM     88  O6  non d ame     -28.270  14.212  22.333  0.00  0.00    -0.369 OA
ATOM     89  H45 non d ame     -28.882  13.473  22.329  0.00  0.00     0.212 HD
ENDBRANCH  83  88
ENDBRANCH  72  75
ENDBRANCH  47  72
ENDBRANCH  45  47
ENDBRANCH   1  43
BRANCH   1  90
ATOM     90  C16 non d ame     -33.752  10.453  26.724  0.00  0.00    -0.035 C 
ATOM     91  H21 non d ame     -33.889  11.530  26.809  0.00  0.00     0.037 H 
ATOM     92  H22 non d ame     -34.619   9.798  26.649  0.00  0.00     0.037 H 
BRANCH  90  93
ATOM     93  C17 non d ame     -32.969  10.007  27.999  0.00  0.00    -0.059 C 
ATOM     94  H23 non d ame     -32.077   9.473  27.671  0.00  0.00     0.038 H 
BRANCH  93  95
ATOM     95  C18 non d ame     -32.505  11.224  28.862  0.00  0.00    -0.073 C 
ATOM     96  H24 non d ame     -32.818  12.151  28.381  0.00  0.00     0.028 H 
ATOM     97  H25 non d ame     -32.957  11.160  29.852  0.00  0.00     0.028 H 
ATOM     98  H26 non d ame     -31.420  11.211  28.956  0.00  0.00     0.028 H 
ENDBRANCH  93  95
BRANCH  93  99
ATOM     99  C19 non d ame     -33.800   9.031  28.837  0.00  0.00    -0.073 C 
ATOM    100  H27 non d ame     -33.610   9.208  29.896  0.00  0.00     0.028 H 
ATOM    101  H28 non d ame     -34.859   9.184  28.629  0.00  0.00     0.028 H 
ATOM    102  H29 non d ame     -33.524   8.008  28.583  0.00  0.00     0.028 H 
ENDBRANCH  93  99
ENDBRANCH  90  93
ENDBRANCH   1  90
TORSDOF 26
ENDMDL
MODEL 11
REMARK VINA RESULT:      -6.9      3.003      6.991
REMARK  26 active torsions:
REMARK  status: ('A' for Active; 'I' for Inactive)
REMARK    1  A    between atoms: C2_2  and  C3_3 
REMARK    2  A    between atoms: C4_6  and  C5_7 
REMARK       I    between atoms: C5_7  and  N2_9 
REMARK    3  A    between atoms: N2_9  and  C6_10 
REMARK    4  A    between atoms: C6_10  and  C7_11 
REMARK    5  A    between atoms: C6_10  and  C8_13 
REMARK       I    between atoms: C7_11  and  N3_14 
REMARK    6  A    between atoms: N3_14  and  C9_15 
REMARK    7  A    between atoms: C9_15  and  C10_16 
REMARK    8  A    between atoms: C9_15  and  C11_18 
REMARK       I    between atoms: C10_16  and  N4_21 
REMARK    9  A    between atoms: C11_18  and  C12_19 
REMARK   10  A    between atoms: C11_18  and  C13_20 
REMARK   11  A    between atoms: N4_21  and  C14_22 
REMARK   12  A    between atoms: C14_22  and  C15_23 
REMARK   13  A    between atoms: C14_22  and  C16_25 
REMARK       I    between atoms: C15_23  and  N6_40 
REMARK   14  A    between atoms: C16_25  and  C17_26 
REMARK   15  A    between atoms: C17_26  and  C18_27 
REMARK   16  A    between atoms: C17_26  and  C19_28 
REMARK   17  A    between atoms: C20_29  and  C21_30 
REMARK   18  A    between atoms: C20_29  and  C24_33 
REMARK   19  A    between atoms: C20_29  and  N6_40 
REMARK   20  A    between atoms: C21_30  and  C22_31 
REMARK   21  A    between atoms: C22_31  and  C23_32 
REMARK   22  A    between atoms: C23_32  and  O8_43 
REMARK   23  A    between atoms: C24_33  and  C25_34 
REMARK   24  A    between atoms: C28_38  and  O6_39 
REMARK   25  A    between atoms: C29_42  and  O8_43 
REMARK   26  A    between atoms: C29_42  and  C35_49 
ROOT
ATOM      1  C14 non d ame     -31.216  14.153  24.276  0.00  0.00     0.089 C 
ATOM      2  H20 non d ame     -30.205  14.088  24.680  0.00  0.00     0.087 H 
ENDROOT
BRANCH   1   3
ATOM      3  N4  non d ame     -31.750  12.801  24.218  0.00  0.00    -0.346 N 
ATOM      4  C10 non d ame     -31.566  11.857  25.380  0.00  0.00     0.241 C 
ATOM      5  O4  non d ame     -30.980  12.208  26.350  0.00  0.00    -0.271 OA
ATOM      6  H19 non d ame     -32.244  12.521  23.382  0.00  0.00     0.163 HD
BRANCH   4   7
ATOM      7  C9  non d ame     -32.131  10.464  25.304  0.00  0.00     0.092 C 
ATOM      8  H11 non d ame     -33.023  10.472  24.677  0.00  0.00     0.088 H 
BRANCH   7   9
ATOM      9  N3  non d ame     -31.158   9.575  24.665  0.00  0.00    -0.346 N 
ATOM     10  C7  non d ame     -31.391   9.097  23.324  0.00  0.00     0.240 C 
ATOM     11  O3  non d ame     -32.358   9.417  22.746  0.00  0.00    -0.271 OA
ATOM     12  H10 non d ame     -30.321   9.288  25.151  0.00  0.00     0.163 HD
BRANCH  10  13
ATOM     13  C6  non d ame     -30.353   8.148  22.648  0.00  0.00     0.086 C 
ATOM     14  H6  non d ame     -30.017   7.350  23.311  0.00  0.00     0.086 H 
BRANCH  13  15
ATOM     15  N2  non d ame     -30.978   7.503  21.505  0.00  0.00    -0.343 N 
ATOM     16  C5  non d ame     -31.682   6.232  21.690  0.00  0.00     0.273 C 
ATOM     17  O2  non d ame     -31.737   5.735  22.760  0.00  0.00    -0.266 OA
ATOM     18  H5  non d ame     -30.922   7.933  20.593  0.00  0.00     0.163 HD
BRANCH  16  19
ATOM     19  C4  non d ame     -32.348   5.540  20.490  0.00  0.00     0.154 A 
ATOM     20  C1  non d ame     -32.387   4.137  20.213  0.00  0.00    -0.017 A 
ATOM     21  C2  non d ame     -33.112   4.025  19.006  0.00  0.00     0.077 A 
ATOM     22  H1  non d ame     -31.955   3.325  20.797  0.00  0.00     0.091 H 
ATOM     23  O1  non d ame     -33.448   5.228  18.642  0.00  0.00    -0.218 OA
ATOM     24  N1  non d ame     -33.012   6.129  19.492  0.00  0.00    -0.123 NA
BRANCH  21  25
ATOM     25  C3  non d ame     -33.441   2.734  18.268  0.00  0.00    -0.029 C 
ATOM     26  H2  non d ame     -32.759   2.611  17.427  0.00  0.00     0.036 H 
ATOM     27  H3  non d ame     -33.332   1.889  18.948  0.00  0.00     0.036 H 
ATOM     28  H4  non d ame     -34.465   2.775  17.901  0.00  0.00     0.036 H 
ENDBRANCH  21  25
ENDBRANCH  16  19
ENDBRANCH  13  15
BRANCH  13  29
ATOM     29  C8  non d ame     -29.155   8.946  22.200  0.00  0.00    -0.049 C 
ATOM     30  H7  non d ame     -28.379   8.898  22.963  0.00  0.00     0.030 H 
ATOM     31  H8  non d ame     -28.772   8.533  21.266  0.00  0.00     0.030 H 
ATOM     32  H9  non d ame     -29.448   9.985  22.044  0.00  0.00     0.030 H 
ENDBRANCH  13  29
ENDBRANCH  10  13
ENDBRANCH   7   9
BRANCH   7  33
ATOM     33  C11 non d ame     -32.434   9.949  26.742  0.00  0.00    -0.033 C 
ATOM     34  H12 non d ame     -31.657  10.337  27.400  0.00  0.00     0.042 H 
BRANCH  33  35
ATOM     35  C12 non d ame     -33.804  10.487  27.263  0.00  0.00    -0.071 C 
ATOM     36  H13 non d ame     -34.615   9.949  26.774  0.00  0.00     0.028 H 
ATOM     37  H14 non d ame     -33.865  10.337  28.340  0.00  0.00     0.028 H 
ATOM     38  H15 non d ame     -33.886  11.550  27.038  0.00  0.00     0.028 H 
ENDBRANCH  33  35
BRANCH  33  39
ATOM     39  C13 non d ame     -32.380   8.388  26.800  0.00  0.00    -0.071 C 
ATOM     40  H16 non d ame     -33.070   8.028  27.564  0.00  0.00     0.028 H 
ATOM     41  H17 non d ame     -32.665   7.978  25.830  0.00  0.00     0.028 H 
ATOM     42  H18 non d ame     -31.368   8.069  27.044  0.00  0.00     0.028 H 
ENDBRANCH  33  39
ENDBRANCH   7  33
ENDBRANCH   4   7
ENDBRANCH   1   3
BRANCH   1  43
ATOM     43  C15 non d ame     -32.151  15.018  25.168  0.00  0.00     0.240 C 
ATOM     44  O5  non d ame     -33.176  15.427  24.726  0.00  0.00    -0.271 OA
ATOM     45  N6  non d ame     -31.774  15.329  26.576  0.00  0.00    -0.355 N 
ATOM     46  H46 non d ame     -30.908  14.982  26.963  0.00  0.00     0.162 HD
BRANCH  45  47
ATOM     47  C20 non d ame     -32.675  16.151  27.413  0.00  0.00     0.013 C 
ATOM     48  H30 non d ame     -33.670  16.116  26.968  0.00  0.00     0.072 H 
BRANCH  47  49
ATOM     49  C21 non d ame     -32.171  17.576  27.439  0.00  0.00    -0.038 C 
ATOM     50  H31 non d ame     -32.447  17.969  28.419  0.00  0.00     0.036 H 
ATOM     51  H32 non d ame     -31.122  17.522  27.150  0.00  0.00     0.036 H 
BRANCH  49  52
ATOM     52  C22 non d ame     -32.866  18.478  26.396  0.00  0.00     0.018 C 
ATOM     53  H33 non d ame     -32.067  18.877  25.772  0.00  0.00     0.048 H 
ATOM     54  H34 non d ame     -33.650  17.863  25.951  0.00  0.00     0.048 H 
BRANCH  52  55
ATOM     55  C23 non d ame     -33.585  19.709  27.012  0.00  0.00     0.259 C 
ATOM     56  O7  non d ame     -33.087  20.315  27.905  0.00  0.00    -0.265 OA
BRANCH  55  57
ATOM     57  O8  non d ame     -34.857  20.098  26.507  0.00  0.00    -0.317 OA
BRANCH  57  58
ATOM     58  C29 non d ame     -35.962  19.512  27.202  0.00  0.00     0.052 C 
ATOM     59  H47 non d ame     -35.640  19.415  28.238  0.00  0.00     0.082 H 
ATOM     60  H48 non d ame     -36.826  20.129  26.954  0.00  0.00     0.082 H 
BRANCH  58  61
ATOM     61  C35 non d ame     -36.192  18.090  26.623  0.00  0.00    -0.034 A 
ATOM     62  C30 non d ame     -36.412  17.920  25.260  0.00  0.00    -0.075 A 
ATOM     63  C31 non d ame     -36.619  16.642  24.741  0.00  0.00    -0.082 A 
ATOM     64  H49 non d ame     -36.423  18.786  24.599  0.00  0.00     0.084 H 
ATOM     65  C32 non d ame     -36.607  15.533  25.590  0.00  0.00    -0.083 A 
ATOM     66  H50 non d ame     -36.790  16.512  23.671  0.00  0.00     0.083 H 
ATOM     67  C33 non d ame     -36.391  15.709  26.950  0.00  0.00    -0.082 A 
ATOM     68  H51 non d ame     -36.767  14.532  25.192  0.00  0.00     0.083 H 
ATOM     69  C34 non d ame     -36.182  16.983  27.473  0.00  0.00    -0.075 A 
ATOM     70  H52 non d ame     -36.384  14.841  27.611  0.00  0.00     0.083 H 
ATOM     71  H53 non d ame     -36.011  17.112  28.543  0.00  0.00     0.084 H 
ENDBRANCH  58  61
ENDBRANCH  57  58
ENDBRANCH  55  57
ENDBRANCH  52  55
ENDBRANCH  49  52
ENDBRANCH  47  49
BRANCH  47  72
ATOM     72  C24 non d ame     -32.711  15.596  28.835  0.00  0.00    -0.039 C 
ATOM     73  H35 non d ame     -32.385  16.417  29.474  0.00  0.00     0.036 H 
ATOM     74  H36 non d ame     -33.708  15.174  28.956  0.00  0.00     0.036 H 
BRANCH  72  75
ATOM     75  C25 non d ame     -31.664  14.399  29.030  0.00  0.00    -0.001 C 
ATOM     76  C26 non d ame     -32.456  13.030  29.477  0.00  0.00    -0.035 C 
ATOM     77  C27 non d ame     -31.862  12.523  30.583  0.00  0.00     0.085 C 
ATOM     78  H38 non d ame     -33.462  13.275  29.818  0.00  0.00     0.036 H 
ATOM     79  H39 non d ame     -32.308  12.251  28.729  0.00  0.00     0.036 H 
ATOM     80  N5  non d ame     -30.945  13.594  31.122  0.00  0.00    -0.049 N 
ATOM     81  H40 non d ame     -32.669  12.355  31.297  0.00  0.00     0.075 H 
ATOM     82  H41 non d ame     -31.261  11.684  30.233  0.00  0.00     0.075 H 
ATOM     83  C28 non d ame     -30.793  14.684  29.941  0.00  0.00     0.193 C 
ATOM     84  H42 non d ame     -31.430  14.025  31.896  0.00  0.00     0.280 HD
ATOM     85  H43 non d ame     -30.048  13.154  31.271  0.00  0.00     0.280 HD
ATOM     86  H44 non d ame     -29.885  14.727  29.340  0.00  0.00     0.129 H 
ATOM     87  H37 non d ame     -30.967  14.319  28.196  0.00  0.00     0.046 H 
BRANCH  83  88
ATOM     88  O6  non d ame     -30.969  16.003  30.461  0.00  0.00    -0.369 OA
ATOM     89  H45 non d ame     -30.821  16.645  29.763  0.00  0.00     0.212 HD
ENDBRANCH  83  88
ENDBRANCH  72  75
ENDBRANCH  47  72
ENDBRANCH  45  47
ENDBRANCH   1  43
BRANCH   1  90
ATOM     90  C16 non d ame     -31.172  14.730  22.870  0.00  0.00    -0.035 C 
ATOM     91  H21 non d ame     -31.667  13.992  22.240  0.00  0.00     0.037 H 
ATOM     92  H22 non d ame     -31.584  15.735  22.958  0.00  0.00     0.037 H 
BRANCH  90  93
ATOM     93  C17 non d ame     -29.726  14.893  22.304  0.00  0.00    -0.059 C 
ATOM     94  H23 non d ame     -29.111  15.335  23.087  0.00  0.00     0.038 H 
BRANCH  93  95
ATOM     95  C18 non d ame     -29.088  13.522  21.914  0.00  0.00    -0.073 C 
ATOM     96  H24 non d ame     -29.064  13.427  20.828  0.00  0.00     0.028 H 
ATOM     97  H25 non d ame     -28.071  13.470  22.304  0.00  0.00     0.028 H 
ATOM     98  H26 non d ame     -29.680  12.711  22.336  0.00  0.00     0.028 H 
ENDBRANCH  93  95
BRANCH  93  99
ATOM     99  C19 non d ame     -29.710  15.858  21.115  0.00  0.00    -0.073 C 
ATOM    100  H27 non d ame     -30.074  15.344  20.225  0.00  0.00     0.028 H 
ATOM    101  H28 non d ame     -30.355  16.710  21.330  0.00  0.00     0.028 H 
ATOM    102  H29 non d ame     -28.693  16.207  20.944  0.00  0.00     0.028 H 
ENDBRANCH  93  99
ENDBRANCH  90  93
ENDBRANCH   1  90
TORSDOF 26
ENDMDL
MODEL 12
REMARK VINA RESULT:      -6.9      2.999      8.192
REMARK  26 active torsions:
REMARK  status: ('A' for Active; 'I' for Inactive)
REMARK    1  A    between atoms: C2_2  and  C3_3 
REMARK    2  A    between atoms: C4_6  and  C5_7 
REMARK       I    between atoms: C5_7  and  N2_9 
REMARK    3  A    between atoms: N2_9  and  C6_10 
REMARK    4  A    between atoms: C6_10  and  C7_11 
REMARK    5  A    between atoms: C6_10  and  C8_13 
REMARK       I    between atoms: C7_11  and  N3_14 
REMARK    6  A    between atoms: N3_14  and  C9_15 
REMARK    7  A    between atoms: C9_15  and  C10_16 
REMARK    8  A    between atoms: C9_15  and  C11_18 
REMARK       I    between atoms: C10_16  and  N4_21 
REMARK    9  A    between atoms: C11_18  and  C12_19 
REMARK   10  A    between atoms: C11_18  and  C13_20 
REMARK   11  A    between atoms: N4_21  and  C14_22 
REMARK   12  A    between atoms: C14_22  and  C15_23 
REMARK   13  A    between atoms: C14_22  and  C16_25 
REMARK       I    between atoms: C15_23  and  N6_40 
REMARK   14  A    between atoms: C16_25  and  C17_26 
REMARK   15  A    between atoms: C17_26  and  C18_27 
REMARK   16  A    between atoms: C17_26  and  C19_28 
REMARK   17  A    between atoms: C20_29  and  C21_30 
REMARK   18  A    between atoms: C20_29  and  C24_33 
REMARK   19  A    between atoms: C20_29  and  N6_40 
REMARK   20  A    between atoms: C21_30  and  C22_31 
REMARK   21  A    between atoms: C22_31  and  C23_32 
REMARK   22  A    between atoms: C23_32  and  O8_43 
REMARK   23  A    between atoms: C24_33  and  C25_34 
REMARK   24  A    between atoms: C28_38  and  O6_39 
REMARK   25  A    between atoms: C29_42  and  O8_43 
REMARK   26  A    between atoms: C29_42  and  C35_49 
ROOT
ATOM      1  C14 non d ame     -35.312   9.044  27.036  0.00  0.00     0.089 C 
ATOM      2  H20 non d ame     -35.452   8.422  27.921  0.00  0.00     0.087 H 
ENDROOT
BRANCH   1   3
ATOM      3  N4  non d ame     -34.279  10.021  27.348  0.00  0.00    -0.346 N 
ATOM      4  C10 non d ame     -33.427   9.862  28.582  0.00  0.00     0.241 C 
ATOM      5  O4  non d ame     -33.593   8.942  29.311  0.00  0.00    -0.271 OA
ATOM      6  H19 non d ame     -34.155  10.799  26.715  0.00  0.00     0.163 HD
BRANCH   4   7
ATOM      7  C9  non d ame     -32.359  10.880  28.885  0.00  0.00     0.092 C 
ATOM      8  H11 non d ame     -31.418  10.557  28.437  0.00  0.00     0.088 H 
BRANCH   7   9
ATOM      9  N3  non d ame     -32.715  12.161  28.268  0.00  0.00    -0.346 N 
ATOM     10  C7  non d ame     -31.884  12.716  27.229  0.00  0.00     0.240 C 
ATOM     11  O3  non d ame     -30.923  12.146  26.877  0.00  0.00    -0.271 OA
ATOM     12  H10 non d ame     -33.539  12.665  28.562  0.00  0.00     0.163 HD
BRANCH  10  13
ATOM     13  C6  non d ame     -32.266  14.082  26.578  0.00  0.00     0.086 C 
ATOM     14  H6  non d ame     -31.850  14.936  27.114  0.00  0.00     0.086 H 
BRANCH  13  15
ATOM     15  N2  non d ame     -31.721  14.131  25.232  0.00  0.00    -0.343 N 
ATOM     16  C5  non d ame     -31.155  15.385  24.728  0.00  0.00     0.273 C 
ATOM     17  O2  non d ame     -31.145  16.348  25.413  0.00  0.00    -0.266 OA
ATOM     18  H5  non d ame     -31.737  13.305  24.652  0.00  0.00     0.163 HD
BRANCH  16  19
ATOM     19  C4  non d ame     -30.574  15.451  23.307  0.00  0.00     0.154 A 
ATOM     20  C1  non d ame     -31.298  15.611  22.083  0.00  0.00    -0.017 A 
ATOM     21  C2  non d ame     -30.310  15.609  21.073  0.00  0.00     0.077 A 
ATOM     22  H1  non d ame     -32.375  15.712  21.948  0.00  0.00     0.091 H 
ATOM     23  O1  non d ame     -29.157  15.467  21.659  0.00  0.00    -0.218 OA
ATOM     24  N1  non d ame     -29.286  15.371  22.963  0.00  0.00    -0.123 NA
BRANCH  21  25
ATOM     25  C3  non d ame     -30.551  15.750  19.576  0.00  0.00    -0.029 C 
ATOM     26  H2  non d ame     -29.665  15.421  19.033  0.00  0.00     0.036 H 
ATOM     27  H3  non d ame     -31.403  15.135  19.286  0.00  0.00     0.036 H 
ATOM     28  H4  non d ame     -30.757  16.792  19.337  0.00  0.00     0.036 H 
ENDBRANCH  21  25
ENDBRANCH  16  19
ENDBRANCH  13  15
BRANCH  13  29
ATOM     29  C8  non d ame     -33.767  14.218  26.533  0.00  0.00    -0.049 C 
ATOM     30  H7  non d ame     -34.078  14.477  25.522  0.00  0.00     0.030 H 
ATOM     31  H8  non d ame     -34.225  13.272  26.823  0.00  0.00     0.030 H 
ATOM     32  H9  non d ame     -34.082  15.001  27.223  0.00  0.00     0.030 H 
ENDBRANCH  13  29
ENDBRANCH  10  13
ENDBRANCH   7   9
BRANCH   7  33
ATOM     33  C11 non d ame     -32.240  11.064  30.426  0.00  0.00    -0.033 C 
ATOM     34  H12 non d ame     -32.158  10.071  30.869  0.00  0.00     0.042 H 
BRANCH  33  35
ATOM     35  C12 non d ame     -30.951  11.856  30.807  0.00  0.00    -0.071 C 
ATOM     36  H13 non d ame     -31.073  12.294  31.798  0.00  0.00     0.028 H 
ATOM     37  H14 non d ame     -30.097  11.179  30.812  0.00  0.00     0.028 H 
ATOM     38  H15 non d ame     -30.783  12.649  30.079  0.00  0.00     0.028 H 
ENDBRANCH  33  35
BRANCH  33  39
ATOM     39  C13 non d ame     -33.519  11.748  31.008  0.00  0.00    -0.071 C 
ATOM     40  H16 non d ame     -34.218  11.961  30.199  0.00  0.00     0.028 H 
ATOM     41  H17 non d ame     -33.991  11.082  31.730  0.00  0.00     0.028 H 
ATOM     42  H18 non d ame     -33.240  12.678  31.502  0.00  0.00     0.028 H 
ENDBRANCH  33  39
ENDBRANCH   7  33
ENDBRANCH   4   7
ENDBRANCH   1   3
BRANCH   1  43
ATOM     43  C15 non d ame     -34.855   8.217  25.802  0.00  0.00     0.240 C 
ATOM     44  O5  non d ame     -35.590   7.414  25.324  0.00  0.00    -0.271 OA
ATOM     45  N6  non d ame     -33.505   8.431  25.209  0.00  0.00    -0.355 N 
ATOM     46  H46 non d ame     -32.874   9.114  25.603  0.00  0.00     0.162 HD
BRANCH  45  47
ATOM     47  C20 non d ame     -33.085   7.637  24.033  0.00  0.00     0.013 C 
ATOM     48  H30 non d ame     -33.962   7.112  23.653  0.00  0.00     0.072 H 
BRANCH  47  49
ATOM     49  C21 non d ame     -32.028   6.642  24.453  0.00  0.00    -0.038 C 
ATOM     50  H31 non d ame     -31.565   6.295  23.528  0.00  0.00     0.036 H 
ATOM     51  H32 non d ame     -31.426   7.151  25.205  0.00  0.00     0.036 H 
BRANCH  49  52
ATOM     52  C22 non d ame     -32.620   5.392  25.140  0.00  0.00     0.018 C 
ATOM     53  H33 non d ame     -33.668   5.363  24.847  0.00  0.00     0.048 H 
ATOM     54  H34 non d ame     -31.957   4.567  24.873  0.00  0.00     0.048 H 
BRANCH  52  55
ATOM     55  C23 non d ame     -32.609   5.465  26.691  0.00  0.00     0.259 C 
ATOM     56  O7  non d ame     -32.048   6.352  27.250  0.00  0.00    -0.265 OA
BRANCH  55  57
ATOM     57  O8  non d ame     -33.266   4.450  27.442  0.00  0.00    -0.317 OA
BRANCH  57  58
ATOM     58  C29 non d ame     -33.147   4.606  28.859  0.00  0.00     0.052 C 
ATOM     59  H47 non d ame     -32.932   3.611  29.248  0.00  0.00     0.082 H 
ATOM     60  H48 non d ame     -32.434   5.417  29.008  0.00  0.00     0.082 H 
BRANCH  58  61
ATOM     61  C35 non d ame     -34.526   5.060  29.408  0.00  0.00    -0.034 A 
ATOM     62  C30 non d ame     -34.656   5.433  30.742  0.00  0.00    -0.075 A 
ATOM     63  C31 non d ame     -35.896   5.840  31.235  0.00  0.00    -0.082 A 
ATOM     64  H49 non d ame     -33.789   5.406  31.401  0.00  0.00     0.084 H 
ATOM     65  C32 non d ame     -37.007   5.871  30.390  0.00  0.00    -0.083 A 
ATOM     66  H50 non d ame     -35.994   6.133  32.281  0.00  0.00     0.083 H 
ATOM     67  C33 non d ame     -36.873   5.495  29.060  0.00  0.00    -0.082 A 
ATOM     68  H51 non d ame     -37.979   6.189  30.767  0.00  0.00     0.083 H 
ATOM     69  C34 non d ame     -35.637   5.090  28.562  0.00  0.00    -0.075 A 
ATOM     70  H52 non d ame     -37.743   5.519  28.403  0.00  0.00     0.083 H 
ATOM     71  H53 non d ame     -35.539   4.797  27.517  0.00  0.00     0.084 H 
ENDBRANCH  58  61
ENDBRANCH  57  58
ENDBRANCH  55  57
ENDBRANCH  52  55
ENDBRANCH  49  52
ENDBRANCH  47  49
BRANCH  47  72
ATOM     72  C24 non d ame     -32.517   8.563  22.960  0.00  0.00    -0.039 C 
ATOM     73  H35 non d ame     -32.378   7.935  22.079  0.00  0.00     0.036 H 
ATOM     74  H36 non d ame     -33.198   9.413  22.920  0.00  0.00     0.036 H 
BRANCH  72  75
ATOM     75  C25 non d ame     -31.076   9.131  23.369  0.00  0.00    -0.001 C 
ATOM     76  C26 non d ame     -31.162  10.755  23.609  0.00  0.00    -0.035 C 
ATOM     77  C27 non d ame     -30.189  11.355  22.883  0.00  0.00     0.085 C 
ATOM     78  H38 non d ame     -32.082  11.149  23.178  0.00  0.00     0.036 H 
ATOM     79  H39 non d ame     -30.896  10.995  24.639  0.00  0.00     0.036 H 
ATOM     80  N5  non d ame     -29.658  10.324  21.917  0.00  0.00    -0.049 N 
ATOM     81  H40 non d ame     -30.689  12.144  22.321  0.00  0.00     0.075 H 
ATOM     82  H41 non d ame     -29.406  11.608  23.597  0.00  0.00     0.075 H 
ATOM     83  C28 non d ame     -30.202   8.899  22.446  0.00  0.00     0.193 C 
ATOM     84  H42 non d ame     -30.087  10.520  21.024  0.00  0.00     0.280 HD
ATOM     85  H43 non d ame     -28.652  10.338  22.008  0.00  0.00     0.280 HD
ATOM     86  H44 non d ame     -29.539   8.212  22.970  0.00  0.00     0.129 H 
ATOM     87  H37 non d ame     -30.606   8.538  24.153  0.00  0.00     0.046 H 
BRANCH  83  88
ATOM     88  O6  non d ame     -30.751   8.147  21.362  0.00  0.00    -0.369 OA
ATOM     89  H45 non d ame     -30.866   8.720  20.601  0.00  0.00     0.212 HD
ENDBRANCH  83  88
ENDBRANCH  72  75
ENDBRANCH  47  72
ENDBRANCH  45  47
ENDBRANCH   1  43
BRANCH   1  90
ATOM     90  C16 non d ame     -36.605   9.776  26.712  0.00  0.00    -0.035 C 
ATOM     91  H21 non d ame     -36.383  10.833  26.856  0.00  0.00     0.037 H 
ATOM     92  H22 non d ame     -36.904   9.411  25.730  0.00  0.00     0.037 H 
BRANCH  90  93
ATOM     93  C17 non d ame     -37.778   9.436  27.685  0.00  0.00    -0.059 C 
ATOM     94  H23 non d ame     -38.465  10.283  27.684  0.00  0.00     0.038 H 
BRANCH  93  95
ATOM     95  C18 non d ame     -38.576   8.174  27.228  0.00  0.00    -0.073 C 
ATOM     96  H24 non d ame     -38.721   7.508  28.078  0.00  0.00     0.028 H 
ATOM     97  H25 non d ame     -39.548   8.479  26.838  0.00  0.00     0.028 H 
ATOM     98  H26 non d ame     -38.020   7.654  26.449  0.00  0.00     0.028 H 
ENDBRANCH  93  95
BRANCH  93  99
ATOM     99  C19 non d ame     -37.268   9.268  29.119  0.00  0.00    -0.073 C 
ATOM    100  H27 non d ame     -37.957   8.634  29.678  0.00  0.00     0.028 H 
ATOM    101  H28 non d ame     -36.282   8.803  29.102  0.00  0.00     0.028 H 
ATOM    102  H29 non d ame     -37.200  10.244  29.598  0.00  0.00     0.028 H 
ENDBRANCH  93  99
ENDBRANCH  90  93
ENDBRANCH   1  90
TORSDOF 26
ENDMDL
MODEL 13
REMARK VINA RESULT:      -6.8      2.963      5.719
REMARK  26 active torsions:
REMARK  status: ('A' for Active; 'I' for Inactive)
REMARK    1  A    between atoms: C2_2  and  C3_3 
REMARK    2  A    between atoms: C4_6  and  C5_7 
REMARK       I    between atoms: C5_7  and  N2_9 
REMARK    3  A    between atoms: N2_9  and  C6_10 
REMARK    4  A    between atoms: C6_10  and  C7_11 
REMARK    5  A    between atoms: C6_10  and  C8_13 
REMARK       I    between atoms: C7_11  and  N3_14 
REMARK    6  A    between atoms: N3_14  and  C9_15 
REMARK    7  A    between atoms: C9_15  and  C10_16 
REMARK    8  A    between atoms: C9_15  and  C11_18 
REMARK       I    between atoms: C10_16  and  N4_21 
REMARK    9  A    between atoms: C11_18  and  C12_19 
REMARK   10  A    between atoms: C11_18  and  C13_20 
REMARK   11  A    between atoms: N4_21  and  C14_22 
REMARK   12  A    between atoms: C14_22  and  C15_23 
REMARK   13  A    between atoms: C14_22  and  C16_25 
REMARK       I    between atoms: C15_23  and  N6_40 
REMARK   14  A    between atoms: C16_25  and  C17_26 
REMARK   15  A    between atoms: C17_26  and  C18_27 
REMARK   16  A    between atoms: C17_26  and  C19_28 
REMARK   17  A    between atoms: C20_29  and  C21_30 
REMARK   18  A    between atoms: C20_29  and  C24_33 
REMARK   19  A    between atoms: C20_29  and  N6_40 
REMARK   20  A    between atoms: C21_30  and  C22_31 
REMARK   21  A    between atoms: C22_31  and  C23_32 
REMARK   22  A    between atoms: C23_32  and  O8_43 
REMARK   23  A    between atoms: C24_33  and  C25_34 
REMARK   24  A    between atoms: C28_38  and  O6_39 
REMARK   25  A    between atoms: C29_42  and  O8_43 
REMARK   26  A    between atoms: C29_42  and  C35_49 
ROOT
ATOM      1  C14 non d ame     -30.996  14.164  24.239  0.00  0.00     0.089 C 
ATOM      2  H20 non d ame     -29.950  13.861  24.292  0.00  0.00     0.087 H 
ENDROOT
BRANCH   1   3
ATOM      3  N4  non d ame     -31.807  12.975  24.451  0.00  0.00    -0.346 N 
ATOM      4  C10 non d ame     -31.262  11.609  24.114  0.00  0.00     0.241 C 
ATOM      5  O4  non d ame     -30.168  11.493  23.670  0.00  0.00    -0.271 OA
ATOM      6  H19 non d ame     -32.737  13.095  24.828  0.00  0.00     0.163 HD
BRANCH   4   7
ATOM      7  C9  non d ame     -32.114  10.390  24.346  0.00  0.00     0.092 C 
ATOM      8  H11 non d ame     -32.886  10.340  23.578  0.00  0.00     0.088 H 
BRANCH   7   9
ATOM      9  N3  non d ame     -31.290   9.185  24.212  0.00  0.00    -0.346 N 
ATOM     10  C7  non d ame     -31.312   8.430  22.983  0.00  0.00     0.240 C 
ATOM     11  O3  non d ame     -31.989   8.777  22.093  0.00  0.00    -0.271 OA
ATOM     12  H10 non d ame     -30.703   8.872  24.971  0.00  0.00     0.163 HD
BRANCH  10  13
ATOM     13  C6  non d ame     -30.436   7.146  22.847  0.00  0.00     0.086 C 
ATOM     14  H6  non d ame     -30.575   6.451  23.675  0.00  0.00     0.086 H 
BRANCH  13  15
ATOM     15  N2  non d ame     -30.825   6.436  21.639  0.00  0.00    -0.343 N 
ATOM     16  C5  non d ame     -31.865   5.408  21.710  0.00  0.00     0.273 C 
ATOM     17  O2  non d ame     -32.381   5.157  22.744  0.00  0.00    -0.266 OA
ATOM     18  H5  non d ame     -30.376   6.654  20.761  0.00  0.00     0.163 HD
BRANCH  16  19
ATOM     19  C4  non d ame     -32.287   4.651  20.442  0.00  0.00     0.154 A 
ATOM     20  C1  non d ame     -32.517   3.245  20.309  0.00  0.00    -0.017 A 
ATOM     21  C2  non d ame     -32.879   3.061  18.956  0.00  0.00     0.077 A 
ATOM     22  H1  non d ame     -32.434   2.476  21.077  0.00  0.00     0.091 H 
ATOM     23  O1  non d ame     -32.859   4.232  18.387  0.00  0.00    -0.218 OA
ATOM     24  N1  non d ame     -32.515   5.175  19.234  0.00  0.00    -0.123 NA
BRANCH  21  25
ATOM     25  C3  non d ame     -33.230   1.739  18.288  0.00  0.00    -0.029 C 
ATOM     26  H2  non d ame     -34.294   1.723  18.048  0.00  0.00     0.036 H 
ATOM     27  H3  non d ame     -32.650   1.629  17.372  0.00  0.00     0.036 H 
ATOM     28  H4  non d ame     -32.999   0.917  18.965  0.00  0.00     0.036 H 
ENDBRANCH  21  25
ENDBRANCH  16  19
ENDBRANCH  13  15
BRANCH  13  29
ATOM     29  C8  non d ame     -28.980   7.533  22.773  0.00  0.00    -0.049 C 
ATOM     30  H7  non d ame     -28.458   6.856  22.099  0.00  0.00     0.030 H 
ATOM     31  H8  non d ame     -28.896   8.554  22.399  0.00  0.00     0.030 H 
ATOM     32  H9  non d ame     -28.537   7.472  23.767  0.00  0.00     0.030 H 
ENDBRANCH  13  29
ENDBRANCH  10  13
ENDBRANCH   7   9
BRANCH   7  33
ATOM     33  C11 non d ame     -32.718  10.445  25.779  0.00  0.00    -0.033 C 
ATOM     34  H12 non d ame     -32.227  11.261  26.312  0.00  0.00     0.042 H 
BRANCH  33  35
ATOM     35  C12 non d ame     -34.246  10.761  25.742  0.00  0.00    -0.071 C 
ATOM     36  H13 non d ame     -34.575  11.082  26.730  0.00  0.00     0.028 H 
ATOM     37  H14 non d ame     -34.434  11.556  25.020  0.00  0.00     0.028 H 
ATOM     38  H15 non d ame     -34.795   9.867  25.449  0.00  0.00     0.028 H 
ENDBRANCH  33  35
BRANCH  33  39
ATOM     39  C13 non d ame     -32.433   9.121  26.558  0.00  0.00    -0.071 C 
ATOM     40  H16 non d ame     -31.415   9.139  26.947  0.00  0.00     0.028 H 
ATOM     41  H17 non d ame     -33.137   9.027  27.387  0.00  0.00     0.028 H 
ATOM     42  H18 non d ame     -32.551   8.271  25.886  0.00  0.00     0.028 H 
ENDBRANCH  33  39
ENDBRANCH   7  33
ENDBRANCH   4   7
ENDBRANCH   1   3
BRANCH   1  43
ATOM     43  C15 non d ame     -31.360  15.213  25.327  0.00  0.00     0.240 C 
ATOM     44  O5  non d ame     -30.828  16.276  25.324  0.00  0.00    -0.271 OA
ATOM     45  N6  non d ame     -32.379  14.897  26.367  0.00  0.00    -0.355 N 
ATOM     46  H46 non d ame     -32.842  13.999  26.376  0.00  0.00     0.162 HD
BRANCH  45  47
ATOM     47  C20 non d ame     -32.717  15.906  27.395  0.00  0.00     0.013 C 
ATOM     48  H30 non d ame     -31.986  16.712  27.326  0.00  0.00     0.072 H 
BRANCH  47  49
ATOM     49  C21 non d ame     -32.653  15.267  28.763  0.00  0.00    -0.038 C 
ATOM     50  H31 non d ame     -32.806  16.079  29.476  0.00  0.00     0.036 H 
ATOM     51  H32 non d ame     -33.351  14.432  28.731  0.00  0.00     0.036 H 
BRANCH  49  52
ATOM     52  C22 non d ame     -31.266  14.666  29.080  0.00  0.00     0.018 C 
ATOM     53  H33 non d ame     -30.667  14.818  28.184  0.00  0.00     0.048 H 
ATOM     54  H34 non d ame     -30.959  15.117  30.025  0.00  0.00     0.048 H 
BRANCH  52  55
ATOM     55  C23 non d ame     -31.290  13.132  29.326  0.00  0.00     0.259 C 
ATOM     56  O7  non d ame     -30.318  12.476  29.135  0.00  0.00    -0.265 OA
BRANCH  55  57
ATOM     57  O8  non d ame     -32.493  12.515  29.769  0.00  0.00    -0.317 OA
BRANCH  57  58
ATOM     58  C29 non d ame     -32.484  11.088  29.671  0.00  0.00     0.052 C 
ATOM     59  H47 non d ame     -32.781  10.861  28.648  0.00  0.00     0.082 H 
ATOM     60  H48 non d ame     -31.508  10.773  30.039  0.00  0.00     0.082 H 
BRANCH  58  61
ATOM     61  C35 non d ame     -33.572  10.536  30.631  0.00  0.00    -0.034 A 
ATOM     62  C30 non d ame     -34.060   9.244  30.461  0.00  0.00    -0.075 A 
ATOM     63  C31 non d ame     -35.038   8.748  31.323  0.00  0.00    -0.082 A 
ATOM     64  H49 non d ame     -33.679   8.621  29.652  0.00  0.00     0.084 H 
ATOM     65  C32 non d ame     -35.528   9.550  32.357  0.00  0.00    -0.083 A 
ATOM     66  H50 non d ame     -35.417   7.734  31.188  0.00  0.00     0.083 H 
ATOM     67  C33 non d ame     -35.040  10.839  32.521  0.00  0.00    -0.082 A 
ATOM     68  H51 non d ame     -36.292   9.169  33.036  0.00  0.00     0.083 H 
ATOM     69  C34 non d ame     -34.062  11.338  31.663  0.00  0.00    -0.075 A 
ATOM     70  H52 non d ame     -35.426  11.463  33.328  0.00  0.00     0.083 H 
ATOM     71  H53 non d ame     -33.683  12.351  31.799  0.00  0.00     0.084 H 
ENDBRANCH  58  61
ENDBRANCH  57  58
ENDBRANCH  55  57
ENDBRANCH  52  55
ENDBRANCH  49  52
ENDBRANCH  47  49
BRANCH  47  72
ATOM     72  C24 non d ame     -34.124  16.445  27.148  0.00  0.00    -0.039 C 
ATOM     73  H35 non d ame     -34.486  15.915  26.266  0.00  0.00     0.036 H 
ATOM     74  H36 non d ame     -34.646  16.339  28.099  0.00  0.00     0.036 H 
BRANCH  72  75
ATOM     75  C25 non d ame     -34.107  18.006  26.790  0.00  0.00    -0.001 C 
ATOM     76  C26 non d ame     -32.574  18.588  26.898  0.00  0.00    -0.035 C 
ATOM     77  C27 non d ame     -32.580  19.694  27.680  0.00  0.00     0.085 C 
ATOM     78  H38 non d ame     -31.946  17.889  27.449  0.00  0.00     0.036 H 
ATOM     79  H39 non d ame     -32.248  18.965  25.928  0.00  0.00     0.036 H 
ATOM     80  N5  non d ame     -33.917  19.730  28.381  0.00  0.00    -0.049 N 
ATOM     81  H40 non d ame     -31.795  19.532  28.420  0.00  0.00     0.075 H 
ATOM     82  H41 non d ame     -32.517  20.537  26.993  0.00  0.00     0.075 H 
ATOM     83  C28 non d ame     -34.859  18.679  27.597  0.00  0.00     0.193 C 
ATOM     84  H42 non d ame     -33.759  19.385  29.317  0.00  0.00     0.280 HD
ATOM     85  H43 non d ame     -34.287  20.660  28.242  0.00  0.00     0.280 HD
ATOM     86  H44 non d ame     -35.625  19.030  26.908  0.00  0.00     0.129 H 
ATOM     87  H37 non d ame     -34.659  18.226  25.876  0.00  0.00     0.046 H 
BRANCH  83  88
ATOM     88  O6  non d ame     -35.539  17.837  28.529  0.00  0.00    -0.369 OA
ATOM     89  H45 non d ame     -36.482  18.013  28.491  0.00  0.00     0.212 HD
ENDBRANCH  83  88
ENDBRANCH  72  75
ENDBRANCH  47  72
ENDBRANCH  45  47
ENDBRANCH   1  43
BRANCH   1  90
ATOM     90  C16 non d ame     -31.298  14.730  22.860  0.00  0.00    -0.035 C 
ATOM     91  H21 non d ame     -32.085  14.097  22.454  0.00  0.00     0.037 H 
ATOM     92  H22 non d ame     -31.481  15.793  23.019  0.00  0.00     0.037 H 
BRANCH  90  93
ATOM     93  C17 non d ame     -30.098  14.633  21.866  0.00  0.00    -0.059 C 
ATOM     94  H23 non d ame     -29.957  13.581  21.619  0.00  0.00     0.038 H 
BRANCH  93  95
ATOM     95  C18 non d ame     -30.372  15.402  20.534  0.00  0.00    -0.073 C 
ATOM     96  H24 non d ame     -29.693  15.044  19.761  0.00  0.00     0.028 H 
ATOM     97  H25 non d ame     -31.402  15.230  20.220  0.00  0.00     0.028 H 
ATOM     98  H26 non d ame     -30.214  16.469  20.691  0.00  0.00     0.028 H 
ENDBRANCH  93  95
BRANCH  93  99
ATOM     99  C19 non d ame     -28.803  15.123  22.521  0.00  0.00    -0.073 C 
ATOM    100  H27 non d ame     -28.847  14.938  23.595  0.00  0.00     0.028 H 
ATOM    101  H28 non d ame     -27.955  14.587  22.096  0.00  0.00     0.028 H 
ATOM    102  H29 non d ame     -28.686  16.191  22.339  0.00  0.00     0.028 H 
ENDBRANCH  93  99
ENDBRANCH  90  93
ENDBRANCH   1  90
TORSDOF 26
ENDMDL
MODEL 14
REMARK VINA RESULT:      -6.8      1.866      5.531
REMARK  26 active torsions:
REMARK  status: ('A' for Active; 'I' for Inactive)
REMARK    1  A    between atoms: C2_2  and  C3_3 
REMARK    2  A    between atoms: C4_6  and  C5_7 
REMARK       I    between atoms: C5_7  and  N2_9 
REMARK    3  A    between atoms: N2_9  and  C6_10 
REMARK    4  A    between atoms: C6_10  and  C7_11 
REMARK    5  A    between atoms: C6_10  and  C8_13 
REMARK       I    between atoms: C7_11  and  N3_14 
REMARK    6  A    between atoms: N3_14  and  C9_15 
REMARK    7  A    between atoms: C9_15  and  C10_16 
REMARK    8  A    between atoms: C9_15  and  C11_18 
REMARK       I    between atoms: C10_16  and  N4_21 
REMARK    9  A    between atoms: C11_18  and  C12_19 
REMARK   10  A    between atoms: C11_18  and  C13_20 
REMARK   11  A    between atoms: N4_21  and  C14_22 
REMARK   12  A    between atoms: C14_22  and  C15_23 
REMARK   13  A    between atoms: C14_22  and  C16_25 
REMARK       I    between atoms: C15_23  and  N6_40 
REMARK   14  A    between atoms: C16_25  and  C17_26 
REMARK   15  A    between atoms: C17_26  and  C18_27 
REMARK   16  A    between atoms: C17_26  and  C19_28 
REMARK   17  A    between atoms: C20_29  and  C21_30 
REMARK   18  A    between atoms: C20_29  and  C24_33 
REMARK   19  A    between atoms: C20_29  and  N6_40 
REMARK   20  A    between atoms: C21_30  and  C22_31 
REMARK   21  A    between atoms: C22_31  and  C23_32 
REMARK   22  A    between atoms: C23_32  and  O8_43 
REMARK   23  A    between atoms: C24_33  and  C25_34 
REMARK   24  A    between atoms: C28_38  and  O6_39 
REMARK   25  A    between atoms: C29_42  and  O8_43 
REMARK   26  A    between atoms: C29_42  and  C35_49 
ROOT
ATOM      1  C14 non d ame     -32.670  10.015  24.931  0.00  0.00     0.089 C 
ATOM      2  H20 non d ame     -32.496   9.238  25.676  0.00  0.00     0.087 H 
ENDROOT
BRANCH   1   3
ATOM      3  N4  non d ame     -34.004  10.549  25.161  0.00  0.00    -0.346 N 
ATOM      4  C10 non d ame     -35.034   9.735  25.904  0.00  0.00     0.241 C 
ATOM      5  O4  non d ame     -34.766   8.651  26.305  0.00  0.00    -0.271 OA
ATOM      6  H19 non d ame     -34.213  11.473  24.810  0.00  0.00     0.163 HD
BRANCH   4   7
ATOM      7  C9  non d ame     -36.407  10.306  26.138  0.00  0.00     0.092 C 
ATOM      8  H11 non d ame     -36.554  10.462  27.207  0.00  0.00     0.088 H 
BRANCH   7   9
ATOM      9  N3  non d ame     -36.508  11.617  25.491  0.00  0.00    -0.346 N 
ATOM     10  C7  non d ame     -37.037  12.743  26.222  0.00  0.00     0.240 C 
ATOM     11  O3  non d ame     -37.386  12.611  27.331  0.00  0.00    -0.271 OA
ATOM     12  H10 non d ame     -36.213  11.746  24.535  0.00  0.00     0.163 HD
BRANCH  10  13
ATOM     13  C6  non d ame     -37.145  14.136  25.527  0.00  0.00     0.086 C 
ATOM     14  H6  non d ame     -38.038  14.686  25.823  0.00  0.00     0.086 H 
BRANCH  13  15
ATOM     15  N2  non d ame     -36.006  14.948  25.921  0.00  0.00    -0.343 N 
ATOM     16  C5  non d ame     -36.187  16.010  26.915  0.00  0.00     0.273 C 
ATOM     17  O2  non d ame     -37.252  16.203  27.388  0.00  0.00    -0.266 OA
ATOM     18  H5  non d ame     -35.100  14.779  25.508  0.00  0.00     0.163 HD
BRANCH  16  19
ATOM     19  C4  non d ame     -34.991  16.875  27.341  0.00  0.00     0.154 A 
ATOM     20  C1  non d ame     -34.363  17.916  26.586  0.00  0.00    -0.017 A 
ATOM     21  C2  non d ame     -33.325  18.393  27.417  0.00  0.00     0.077 A 
ATOM     22  H1  non d ame     -34.620  18.270  25.588  0.00  0.00     0.091 H 
ATOM     23  O1  non d ame     -33.363  17.702  28.519  0.00  0.00    -0.218 OA
ATOM     24  N1  non d ame     -34.326  16.810  28.498  0.00  0.00    -0.123 NA
BRANCH  21  25
ATOM     25  C3  non d ame     -32.344  19.509  27.084  0.00  0.00    -0.029 C 
ATOM     26  H2  non d ame     -31.326  19.123  27.123  0.00  0.00     0.036 H 
ATOM     27  H3  non d ame     -32.551  19.887  26.083  0.00  0.00     0.036 H 
ATOM     28  H4  non d ame     -32.454  20.317  27.807  0.00  0.00     0.036 H 
ENDBRANCH  21  25
ENDBRANCH  16  19
ENDBRANCH  13  15
BRANCH  13  29
ATOM     29  C8  non d ame     -37.157  13.954  24.030  0.00  0.00    -0.049 C 
ATOM     30  H7  non d ame     -37.745  14.748  23.572  0.00  0.00     0.030 H 
ATOM     31  H8  non d ame     -36.135  13.996  23.652  0.00  0.00     0.030 H 
ATOM     32  H9  non d ame     -37.596  12.987  23.785  0.00  0.00     0.030 H 
ENDBRANCH  13  29
ENDBRANCH  10  13
ENDBRANCH   7   9
BRANCH   7  33
ATOM     33  C11 non d ame     -37.476   9.349  25.535  0.00  0.00    -0.033 C 
ATOM     34  H12 non d ame     -37.070   8.337  25.574  0.00  0.00     0.042 H 
BRANCH  33  35
ATOM     35  C12 non d ame     -38.791   9.360  26.376  0.00  0.00    -0.071 C 
ATOM     36  H13 non d ame     -39.006   8.352  26.728  0.00  0.00     0.028 H 
ATOM     37  H14 non d ame     -38.669  10.025  27.231  0.00  0.00     0.028 H 
ATOM     38  H15 non d ame     -39.616   9.712  25.756  0.00  0.00     0.028 H 
ENDBRANCH  33  35
BRANCH  33  39
ATOM     39  C13 non d ame     -37.758   9.697  24.038  0.00  0.00    -0.071 C 
ATOM     40  H16 non d ame     -38.708  10.227  23.961  0.00  0.00     0.028 H 
ATOM     41  H17 non d ame     -36.957  10.330  23.654  0.00  0.00     0.028 H 
ATOM     42  H18 non d ame     -37.805   8.779  23.454  0.00  0.00     0.028 H 
ENDBRANCH  33  39
ENDBRANCH   7  33
ENDBRANCH   4   7
ENDBRANCH   1   3
BRANCH   1  43
ATOM     43  C15 non d ame     -31.644  11.178  25.045  0.00  0.00     0.240 C 
ATOM     44  O5  non d ame     -30.616  11.006  25.615  0.00  0.00    -0.271 OA
ATOM     45  N6  non d ame     -31.939  12.506  24.434  0.00  0.00    -0.355 N 
ATOM     46  H46 non d ame     -32.808  12.662  23.943  0.00  0.00     0.162 HD
BRANCH  45  47
ATOM     47  C20 non d ame     -30.953  13.602  24.549  0.00  0.00     0.013 C 
ATOM     48  H30 non d ame     -30.263  13.349  25.354  0.00  0.00     0.072 H 
BRANCH  47  49
ATOM     49  C21 non d ame     -31.674  14.891  24.872  0.00  0.00    -0.038 C 
ATOM     50  H31 non d ame     -31.135  15.673  24.335  0.00  0.00     0.036 H 
ATOM     51  H32 non d ame     -32.724  14.704  24.652  0.00  0.00     0.036 H 
BRANCH  49  52
ATOM     52  C22 non d ame     -31.600  15.261  26.369  0.00  0.00     0.018 C 
ATOM     53  H33 non d ame     -30.543  15.222  26.631  0.00  0.00     0.048 H 
ATOM     54  H34 non d ame     -32.151  16.197  26.469  0.00  0.00     0.048 H 
BRANCH  52  55
ATOM     55  C23 non d ame     -32.311  14.243  27.302  0.00  0.00     0.259 C 
ATOM     56  O7  non d ame     -33.337  13.739  26.975  0.00  0.00    -0.265 OA
BRANCH  55  57
ATOM     57  O8  non d ame     -31.731  13.928  28.562  0.00  0.00    -0.317 OA
BRANCH  57  58
ATOM     58  C29 non d ame     -31.166  12.615  28.630  0.00  0.00     0.052 C 
ATOM     59  H47 non d ame     -31.089  12.274  27.598  0.00  0.00     0.082 H 
ATOM     60  H48 non d ame     -30.270  12.710  29.242  0.00  0.00     0.082 H 
BRANCH  58  61
ATOM     61  C35 non d ame     -32.174  11.698  29.375  0.00  0.00    -0.034 A 
ATOM     62  C30 non d ame     -32.656  10.548  28.759  0.00  0.00    -0.075 A 
ATOM     63  C31 non d ame     -33.561   9.725  29.429  0.00  0.00    -0.082 A 
ATOM     64  H49 non d ame     -32.325  10.291  27.753  0.00  0.00     0.084 H 
ATOM     65  C32 non d ame     -33.986  10.058  30.717  0.00  0.00    -0.083 A 
ATOM     66  H50 non d ame     -33.936   8.823  28.943  0.00  0.00     0.083 H 
ATOM     67  C33 non d ame     -33.505  11.208  31.327  0.00  0.00    -0.082 A 
ATOM     68  H51 non d ame     -34.692   9.419  31.247  0.00  0.00     0.083 H 
ATOM     69  C34 non d ame     -32.598  12.033  30.662  0.00  0.00    -0.075 A 
ATOM     70  H52 non d ame     -33.839  11.467  32.332  0.00  0.00     0.083 H 
ATOM     71  H53 non d ame     -32.224  12.934  31.148  0.00  0.00     0.084 H 
ENDBRANCH  58  61
ENDBRANCH  57  58
ENDBRANCH  55  57
ENDBRANCH  52  55
ENDBRANCH  49  52
ENDBRANCH  47  49
BRANCH  47  72
ATOM     72  C24 non d ame     -30.196  13.756  23.232  0.00  0.00    -0.039 C 
ATOM     73  H35 non d ame     -29.166  13.478  23.455  0.00  0.00     0.036 H 
ATOM     74  H36 non d ame     -30.768  13.186  22.500  0.00  0.00     0.036 H 
BRANCH  72  75
ATOM     75  C25 non d ame     -30.178  15.279  22.733  0.00  0.00    -0.001 C 
ATOM     76  C26 non d ame     -31.215  15.467  21.472  0.00  0.00    -0.035 C 
ATOM     77  C27 non d ame     -30.560  16.076  20.455  0.00  0.00     0.085 C 
ATOM     78  H38 non d ame     -31.481  14.495  21.058  0.00  0.00     0.036 H 
ATOM     79  H39 non d ame     -31.997  16.180  21.734  0.00  0.00     0.036 H 
ATOM     80  N5  non d ame     -29.088  16.023  20.785  0.00  0.00    -0.049 N 
ATOM     81  H40 non d ame     -30.749  15.459  19.576  0.00  0.00     0.075 H 
ATOM     82  H41 non d ame     -30.891  17.114  20.474  0.00  0.00     0.075 H 
ATOM     83  C28 non d ame     -28.996  15.630  22.348  0.00  0.00     0.193 C 
ATOM     84  H42 non d ame     -28.698  15.268  20.239  0.00  0.00     0.280 HD
ATOM     85  H43 non d ame     -28.735  16.963  20.668  0.00  0.00     0.280 HD
ATOM     86  H44 non d ame     -28.760  16.385  23.096  0.00  0.00     0.129 H 
ATOM     87  H37 non d ame     -30.267  15.985  23.559  0.00  0.00     0.046 H 
BRANCH  83  88
ATOM     88  O6  non d ame     -28.035  14.590  22.539  0.00  0.00    -0.369 OA
ATOM     89  H45 non d ame     -27.946  14.405  23.476  0.00  0.00     0.212 HD
ENDBRANCH  83  88
ENDBRANCH  72  75
ENDBRANCH  47  72
ENDBRANCH  45  47
ENDBRANCH   1  43
BRANCH   1  90
ATOM     90  C16 non d ame     -32.610   9.415  23.536  0.00  0.00    -0.035 C 
ATOM     91  H21 non d ame     -33.550   8.878  23.412  0.00  0.00     0.037 H 
ATOM     92  H22 non d ame     -32.366  10.245  22.874  0.00  0.00     0.037 H 
BRANCH  90  93
ATOM     93  C17 non d ame     -31.473   8.359  23.356  0.00  0.00    -0.059 C 
ATOM     94  H23 non d ame     -30.850   8.387  24.249  0.00  0.00     0.038 H 
BRANCH  93  95
ATOM     95  C18 non d ame     -32.034   6.908  23.212  0.00  0.00    -0.073 C 
ATOM     96  H24 non d ame     -31.939   6.385  24.163  0.00  0.00     0.028 H 
ATOM     97  H25 non d ame     -33.086   6.952  22.926  0.00  0.00     0.028 H 
ATOM     98  H26 non d ame     -31.472   6.375  22.446  0.00  0.00     0.028 H 
ENDBRANCH  93  95
BRANCH  93  99
ATOM     99  C19 non d ame     -30.578   8.717  22.166  0.00  0.00    -0.073 C 
ATOM    100  H27 non d ame     -30.130   7.808  21.762  0.00  0.00     0.028 H 
ATOM    101  H28 non d ame     -31.176   9.200  21.394  0.00  0.00     0.028 H 
ATOM    102  H29 non d ame     -29.792   9.396  22.494  0.00  0.00     0.028 H 
ENDBRANCH  93  99
ENDBRANCH  90  93
ENDBRANCH   1  90
TORSDOF 26
ENDMDL
MODEL 15
REMARK VINA RESULT:      -6.8      2.970      9.016
REMARK  26 active torsions:
REMARK  status: ('A' for Active; 'I' for Inactive)
REMARK    1  A    between atoms: C2_2  and  C3_3 
REMARK    2  A    between atoms: C4_6  and  C5_7 
REMARK       I    between atoms: C5_7  and  N2_9 
REMARK    3  A    between atoms: N2_9  and  C6_10 
REMARK    4  A    between atoms: C6_10  and  C7_11 
REMARK    5  A    between atoms: C6_10  and  C8_13 
REMARK       I    between atoms: C7_11  and  N3_14 
REMARK    6  A    between atoms: N3_14  and  C9_15 
REMARK    7  A    between atoms: C9_15  and  C10_16 
REMARK    8  A    between atoms: C9_15  and  C11_18 
REMARK       I    between atoms: C10_16  and  N4_21 
REMARK    9  A    between atoms: C11_18  and  C12_19 
REMARK   10  A    between atoms: C11_18  and  C13_20 
REMARK   11  A    between atoms: N4_21  and  C14_22 
REMARK   12  A    between atoms: C14_22  and  C15_23 
REMARK   13  A    between atoms: C14_22  and  C16_25 
REMARK       I    between atoms: C15_23  and  N6_40 
REMARK   14  A    between atoms: C16_25  and  C17_26 
REMARK   15  A    between atoms: C17_26  and  C18_27 
REMARK   16  A    between atoms: C17_26  and  C19_28 
REMARK   17  A    between atoms: C20_29  and  C21_30 
REMARK   18  A    between atoms: C20_29  and  C24_33 
REMARK   19  A    between atoms: C20_29  and  N6_40 
REMARK   20  A    between atoms: C21_30  and  C22_31 
REMARK   21  A    between atoms: C22_31  and  C23_32 
REMARK   22  A    between atoms: C23_32  and  O8_43 
REMARK   23  A    between atoms: C24_33  and  C25_34 
REMARK   24  A    between atoms: C28_38  and  O6_39 
REMARK   25  A    between atoms: C29_42  and  O8_43 
REMARK   26  A    between atoms: C29_42  and  C35_49 
ROOT
ATOM      1  C14 non d ame     -33.938   6.764  27.481  0.00  0.00     0.089 C 
ATOM      2  H20 non d ame     -33.570   6.326  28.410  0.00  0.00     0.087 H 
ENDROOT
BRANCH   1   3
ATOM      3  N4  non d ame     -34.335   8.134  27.771  0.00  0.00    -0.346 N 
ATOM      4  C10 non d ame     -34.804   8.516  29.152  0.00  0.00     0.241 C 
ATOM      5  O4  non d ame     -34.857   7.702  30.014  0.00  0.00    -0.271 OA
ATOM      6  H19 non d ame     -34.284   8.811  27.023  0.00  0.00     0.163 HD
BRANCH   4   7
ATOM      7  C9  non d ame     -35.205   9.940  29.435  0.00  0.00     0.092 C 
ATOM      8  H11 non d ame     -35.423  10.047  30.498  0.00  0.00     0.088 H 
BRANCH   7   9
ATOM      9  N3  non d ame     -34.085  10.834  29.129  0.00  0.00    -0.346 N 
ATOM     10  C7  non d ame     -33.057  11.064  30.114  0.00  0.00     0.240 C 
ATOM     11  O3  non d ame     -33.117  10.539  31.159  0.00  0.00    -0.271 OA
ATOM     12  H10 non d ame     -34.021  11.295  28.233  0.00  0.00     0.163 HD
BRANCH  10  13
ATOM     13  C6  non d ame     -31.869  12.019  29.783  0.00  0.00     0.086 C 
ATOM     14  H6  non d ame     -31.305  11.703  28.906  0.00  0.00     0.086 H 
BRANCH  13  15
ATOM     15  N2  non d ame     -32.396  13.341  29.485  0.00  0.00    -0.343 N 
ATOM     16  C5  non d ame     -31.585  14.282  28.707  0.00  0.00     0.273 C 
ATOM     17  O2  non d ame     -30.511  13.967  28.329  0.00  0.00    -0.266 OA
ATOM     18  H5  non d ame     -33.313  13.603  29.816  0.00  0.00     0.163 HD
BRANCH  16  19
ATOM     19  C4  non d ame     -32.131  15.681  28.384  0.00  0.00     0.154 A 
ATOM     20  C1  non d ame     -32.453  16.206  27.092  0.00  0.00    -0.017 A 
ATOM     21  C2  non d ame     -32.910  17.521  27.337  0.00  0.00     0.077 A 
ATOM     22  H1  non d ame     -32.368  15.711  26.125  0.00  0.00     0.091 H 
ATOM     23  O1  non d ame     -32.855  17.716  28.623  0.00  0.00    -0.218 OA
ATOM     24  N1  non d ame     -32.402  16.657  29.254  0.00  0.00    -0.123 NA
BRANCH  21  25
ATOM     25  C3  non d ame     -33.381  18.522  26.291  0.00  0.00    -0.029 C 
ATOM     26  H2  non d ame     -33.860  17.990  25.469  0.00  0.00     0.036 H 
ATOM     27  H3  non d ame     -34.096  19.210  26.742  0.00  0.00     0.036 H 
ATOM     28  H4  non d ame     -32.527  19.081  25.912  0.00  0.00     0.036 H 
ENDBRANCH  21  25
ENDBRANCH  16  19
ENDBRANCH  13  15
BRANCH  13  29
ATOM     29  C8  non d ame     -30.934  12.091  30.965  0.00  0.00    -0.049 C 
ATOM     30  H7  non d ame     -30.550  11.095  31.185  0.00  0.00     0.030 H 
ATOM     31  H8  non d ame     -30.103  12.757  30.730  0.00  0.00     0.030 H 
ATOM     32  H9  non d ame     -31.473  12.473  31.832  0.00  0.00     0.030 H 
ENDBRANCH  13  29
ENDBRANCH  10  13
ENDBRANCH   7   9
BRANCH   7  33
ATOM     33  C11 non d ame     -36.427  10.320  28.548  0.00  0.00    -0.033 C 
ATOM     34  H12 non d ame     -36.706   9.433  27.977  0.00  0.00     0.042 H 
BRANCH  33  35
ATOM     35  C12 non d ame     -37.658  10.725  29.417  0.00  0.00    -0.071 C 
ATOM     36  H13 non d ame     -37.334  10.914  30.440  0.00  0.00     0.028 H 
ATOM     37  H14 non d ame     -38.110  11.627  29.006  0.00  0.00     0.028 H 
ATOM     38  H15 non d ame     -38.389   9.916  29.412  0.00  0.00     0.028 H 
ENDBRANCH  33  35
BRANCH  33  39
ATOM     39  C13 non d ame     -36.053  11.448  27.535  0.00  0.00    -0.071 C 
ATOM     40  H16 non d ame     -35.700  11.001  26.605  0.00  0.00     0.028 H 
ATOM     41  H17 non d ame     -36.931  12.062  27.332  0.00  0.00     0.028 H 
ATOM     42  H18 non d ame     -35.266  12.072  27.959  0.00  0.00     0.028 H 
ENDBRANCH  33  39
ENDBRANCH   7  33
ENDBRANCH   4   7
ENDBRANCH   1   3
BRANCH   1  43
ATOM     43  C15 non d ame     -32.849   6.788  26.371  0.00  0.00     0.240 C 
ATOM     44  O5  non d ame     -31.868   6.128  26.492  0.00  0.00    -0.271 OA
ATOM     45  N6  non d ame     -33.033   7.626  25.153  0.00  0.00    -0.355 N 
ATOM     46  H46 non d ame     -33.865   8.187  25.037  0.00  0.00     0.162 HD
BRANCH  45  47
ATOM     47  C20 non d ame     -31.989   7.636  24.105  0.00  0.00     0.013 C 
ATOM     48  H30 non d ame     -31.088   7.188  24.524  0.00  0.00     0.072 H 
BRANCH  47  49
ATOM     49  C21 non d ame     -31.711   9.064  23.690  0.00  0.00    -0.038 C 
ATOM     50  H31 non d ame     -30.671   9.252  23.960  0.00  0.00     0.036 H 
ATOM     51  H32 non d ame     -32.026   9.134  22.649  0.00  0.00     0.036 H 
BRANCH  49  52
ATOM     52  C22 non d ame     -32.557  10.091  24.473  0.00  0.00     0.018 C 
ATOM     53  H33 non d ame     -32.680  10.942  23.805  0.00  0.00     0.048 H 
ATOM     54  H34 non d ame     -33.433   9.544  24.825  0.00  0.00     0.048 H 
BRANCH  52  55
ATOM     55  C23 non d ame     -31.856  10.641  25.745  0.00  0.00     0.259 C 
ATOM     56  O7  non d ame     -32.067  10.155  26.809  0.00  0.00    -0.265 OA
BRANCH  55  57
ATOM     57  O8  non d ame     -30.966  11.745  25.628  0.00  0.00    -0.317 OA
BRANCH  57  58
ATOM     58  C29 non d ame     -31.601  12.964  25.229  0.00  0.00     0.052 C 
ATOM     59  H47 non d ame     -32.586  12.677  24.863  0.00  0.00     0.082 H 
ATOM     60  H48 non d ame     -31.510  13.636  26.082  0.00  0.00     0.082 H 
BRANCH  58  61
ATOM     61  C35 non d ame     -30.792  13.561  24.046  0.00  0.00    -0.034 A 
ATOM     62  C30 non d ame     -30.626  14.938  23.941  0.00  0.00    -0.075 A 
ATOM     63  C31 non d ame     -29.900  15.474  22.877  0.00  0.00    -0.082 A 
ATOM     64  H49 non d ame     -31.065  15.597  24.689  0.00  0.00     0.084 H 
ATOM     65  C32 non d ame     -29.341  14.627  21.917  0.00  0.00    -0.083 A 
ATOM     66  H50 non d ame     -29.771  16.554  22.798  0.00  0.00     0.083 H 
ATOM     67  C33 non d ame     -29.511  13.254  22.025  0.00  0.00    -0.082 A 
ATOM     68  H51 non d ame     -28.771  15.038  21.084  0.00  0.00     0.083 H 
ATOM     69  C34 non d ame     -30.234  12.714  23.087  0.00  0.00    -0.075 A 
ATOM     70  H52 non d ame     -29.075  12.595  21.273  0.00  0.00     0.083 H 
ATOM     71  H53 non d ame     -30.363  11.634  23.165  0.00  0.00     0.084 H 
ENDBRANCH  58  61
ENDBRANCH  57  58
ENDBRANCH  55  57
ENDBRANCH  52  55
ENDBRANCH  49  52
ENDBRANCH  47  49
BRANCH  47  72
ATOM     72  C24 non d ame     -32.464   6.836  22.894  0.00  0.00    -0.039 C 
ATOM     73  H35 non d ame     -31.636   6.173  22.642  0.00  0.00     0.036 H 
ATOM     74  H36 non d ame     -33.428   6.418  23.183  0.00  0.00     0.036 H 
BRANCH  72  75
ATOM     75  C25 non d ame     -32.720   7.779  21.624  0.00  0.00    -0.001 C 
ATOM     76  C26 non d ame     -34.306   8.206  21.555  0.00  0.00    -0.035 C 
ATOM     77  C27 non d ame     -34.777   7.939  20.313  0.00  0.00     0.085 C 
ATOM     78  H38 non d ame     -34.897   7.554  22.197  0.00  0.00     0.036 H 
ATOM     79  H39 non d ame     -34.406   9.288  21.637  0.00  0.00     0.036 H 
ATOM     80  N5  non d ame     -33.750   7.067  19.630  0.00  0.00    -0.049 N 
ATOM     81  H40 non d ame     -35.689   7.360  20.465  0.00  0.00     0.075 H 
ATOM     82  H41 non d ame     -34.820   8.901  19.804  0.00  0.00     0.075 H 
ATOM     83  C28 non d ame     -32.410   7.176  20.524  0.00  0.00     0.193 C 
ATOM     84  H42 non d ame     -34.097   6.120  19.684  0.00  0.00     0.280 HD
ATOM     85  H43 non d ame     -33.571   7.489  18.730  0.00  0.00     0.280 HD
ATOM     86  H44 non d ame     -31.571   7.787  20.193  0.00  0.00     0.129 H 
ATOM     87  H37 non d ame     -31.987   8.581  21.550  0.00  0.00     0.046 H 
BRANCH  83  88
ATOM     88  O6  non d ame     -31.866   5.875  20.757  0.00  0.00    -0.369 OA
ATOM     89  H45 non d ame     -32.088   5.590  21.646  0.00  0.00     0.212 HD
ENDBRANCH  83  88
ENDBRANCH  72  75
ENDBRANCH  47  72
ENDBRANCH  45  47
ENDBRANCH   1  43
BRANCH   1  90
ATOM     90  C16 non d ame     -35.151   5.989  26.991  0.00  0.00    -0.035 C 
ATOM     91  H21 non d ame     -35.973   6.704  27.001  0.00  0.00     0.037 H 
ATOM     92  H22 non d ame     -34.840   5.530  26.054  0.00  0.00     0.037 H 
BRANCH  90  93
ATOM     93  C17 non d ame     -35.572   4.821  27.938  0.00  0.00    -0.059 C 
ATOM     94  H23 non d ame     -34.776   4.683  28.669  0.00  0.00     0.038 H 
BRANCH  93  95
ATOM     95  C18 non d ame     -36.887   5.140  28.718  0.00  0.00    -0.073 C 
ATOM     96  H24 non d ame     -37.167   4.280  29.327  0.00  0.00     0.028 H 
ATOM     97  H25 non d ame     -36.726   6.003  29.365  0.00  0.00     0.028 H 
ATOM     98  H26 non d ame     -37.686   5.360  28.011  0.00  0.00     0.028 H 
ENDBRANCH  93  95
BRANCH  93  99
ATOM     99  C19 non d ame     -35.707   3.509  27.160  0.00  0.00    -0.073 C 
ATOM    100  H27 non d ame     -36.164   2.752  27.798  0.00  0.00     0.028 H 
ATOM    101  H28 non d ame     -36.333   3.669  26.282  0.00  0.00     0.028 H 
ATOM    102  H29 non d ame     -34.720   3.171  26.844  0.00  0.00     0.028 H 
ENDBRANCH  93  99
ENDBRANCH  90  93
ENDBRANCH   1  90
TORSDOF 26
ENDMDL
MODEL 16
REMARK VINA RESULT:      -6.7      2.486      6.838
REMARK  26 active torsions:
REMARK  status: ('A' for Active; 'I' for Inactive)
REMARK    1  A    between atoms: C2_2  and  C3_3 
REMARK    2  A    between atoms: C4_6  and  C5_7 
REMARK       I    between atoms: C5_7  and  N2_9 
REMARK    3  A    between atoms: N2_9  and  C6_10 
REMARK    4  A    between atoms: C6_10  and  C7_11 
REMARK    5  A    between atoms: C6_10  and  C8_13 
REMARK       I    between atoms: C7_11  and  N3_14 
REMARK    6  A    between atoms: N3_14  and  C9_15 
REMARK    7  A    between atoms: C9_15  and  C10_16 
REMARK    8  A    between atoms: C9_15  and  C11_18 
REMARK       I    between atoms: C10_16  and  N4_21 
REMARK    9  A    between atoms: C11_18  and  C12_19 
REMARK   10  A    between atoms: C11_18  and  C13_20 
REMARK   11  A    between atoms: N4_21  and  C14_22 
REMARK   12  A    between atoms: C14_22  and  C15_23 
REMARK   13  A    between atoms: C14_22  and  C16_25 
REMARK       I    between atoms: C15_23  and  N6_40 
REMARK   14  A    between atoms: C16_25  and  C17_26 
REMARK   15  A    between atoms: C17_26  and  C18_27 
REMARK   16  A    between atoms: C17_26  and  C19_28 
REMARK   17  A    between atoms: C20_29  and  C21_30 
REMARK   18  A    between atoms: C20_29  and  C24_33 
REMARK   19  A    between atoms: C20_29  and  N6_40 
REMARK   20  A    between atoms: C21_30  and  C22_31 
REMARK   21  A    between atoms: C22_31  and  C23_32 
REMARK   22  A    between atoms: C23_32  and  O8_43 
REMARK   23  A    between atoms: C24_33  and  C25_34 
REMARK   24  A    between atoms: C28_38  and  O6_39 
REMARK   25  A    between atoms: C29_42  and  O8_43 
REMARK   26  A    between atoms: C29_42  and  C35_49 
ROOT
ATOM      1  C14 non d ame     -32.504   9.488  24.549  0.00  0.00     0.089 C 
ATOM      2  H20 non d ame     -32.158   8.589  25.061  0.00  0.00     0.087 H 
ENDROOT
BRANCH   1   3
ATOM      3  N4  non d ame     -33.827   9.804  25.066  0.00  0.00    -0.346 N 
ATOM      4  C10 non d ame     -34.736   8.706  25.556  0.00  0.00     0.241 C 
ATOM      5  O4  non d ame     -34.382   7.574  25.522  0.00  0.00    -0.271 OA
ATOM      6  H19 non d ame     -34.109  10.774  25.084  0.00  0.00     0.163 HD
BRANCH   4   7
ATOM      7  C9  non d ame     -36.099   9.053  26.094  0.00  0.00     0.092 C 
ATOM      8  H11 non d ame     -36.667   8.135  26.253  0.00  0.00     0.088 H 
BRANCH   7   9
ATOM      9  N3  non d ame     -35.960   9.708  27.397  0.00  0.00    -0.346 N 
ATOM     10  C7  non d ame     -36.343   9.010  28.599  0.00  0.00     0.240 C 
ATOM     11  O3  non d ame     -36.768   7.921  28.536  0.00  0.00    -0.271 OA
ATOM     12  H10 non d ame     -35.597  10.647  27.467  0.00  0.00     0.163 HD
BRANCH  10  13
ATOM     13  C6  non d ame     -36.195   9.714  29.984  0.00  0.00     0.086 C 
ATOM     14  H6  non d ame     -35.934   9.020  30.784  0.00  0.00     0.086 H 
BRANCH  13  15
ATOM     15  N2  non d ame     -35.115  10.684  29.906  0.00  0.00    -0.343 N 
ATOM     16  C5  non d ame     -33.882  10.452  30.663  0.00  0.00     0.273 C 
ATOM     17  O2  non d ame     -33.770   9.485  31.333  0.00  0.00    -0.266 OA
ATOM     18  H5  non d ame     -35.220  11.509  29.334  0.00  0.00     0.163 HD
BRANCH  16  19
ATOM     19  C4  non d ame     -32.732  11.468  30.589  0.00  0.00     0.154 A 
ATOM     20  C1  non d ame     -32.751  12.752  29.957  0.00  0.00    -0.017 A 
ATOM     21  C2  non d ame     -31.459  13.283  30.171  0.00  0.00     0.077 A 
ATOM     22  H1  non d ame     -33.575  13.226  29.424  0.00  0.00     0.091 H 
ATOM     23  O1  non d ame     -30.786  12.400  30.850  0.00  0.00    -0.218 OA
ATOM     24  N1  non d ame     -31.507  11.333  31.104  0.00  0.00    -0.123 NA
BRANCH  21  25
ATOM     25  C3  non d ame     -30.951  14.637  29.696  0.00  0.00    -0.029 C 
ATOM     26  H2  non d ame     -31.186  15.396  30.443  0.00  0.00     0.036 H 
ATOM     27  H3  non d ame     -29.871  14.591  29.554  0.00  0.00     0.036 H 
ATOM     28  H4  non d ame     -31.430  14.896  28.753  0.00  0.00     0.036 H 
ENDBRANCH  21  25
ENDBRANCH  16  19
ENDBRANCH  13  15
BRANCH  13  29
ATOM     29  C8  non d ame     -37.486  10.407  30.340  0.00  0.00    -0.049 C 
ATOM     30  H7  non d ame     -37.577  10.472  31.423  0.00  0.00     0.030 H 
ATOM     31  H8  non d ame     -37.488  11.410  29.914  0.00  0.00     0.030 H 
ATOM     32  H9  non d ame     -38.325   9.839  29.938  0.00  0.00     0.030 H 
ENDBRANCH  13  29
ENDBRANCH  10  13
ENDBRANCH   7   9
BRANCH   7  33
ATOM     33  C11 non d ame     -36.816  10.018  25.105  0.00  0.00    -0.033 C 
ATOM     34  H12 non d ame     -36.137  10.849  24.907  0.00  0.00     0.042 H 
BRANCH  33  35
ATOM     35  C12 non d ame     -37.112   9.319  23.741  0.00  0.00    -0.071 C 
ATOM     36  H13 non d ame     -36.273   9.475  23.063  0.00  0.00     0.028 H 
ATOM     37  H14 non d ame     -37.254   8.251  23.904  0.00  0.00     0.028 H 
ATOM     38  H15 non d ame     -38.015   9.744  23.303  0.00  0.00     0.028 H 
ENDBRANCH  33  35
BRANCH  33  39
ATOM     39  C13 non d ame     -38.120  10.601  25.737  0.00  0.00    -0.071 C 
ATOM     40  H16 non d ame     -38.616   9.828  26.326  0.00  0.00     0.028 H 
ATOM     41  H17 non d ame     -37.867  11.443  26.383  0.00  0.00     0.028 H 
ATOM     42  H18 non d ame     -38.788  10.940  24.946  0.00  0.00     0.028 H 
ENDBRANCH  33  39
ENDBRANCH   7  33
ENDBRANCH   4   7
ENDBRANCH   1   3
BRANCH   1  43
ATOM     43  C15 non d ame     -31.569  10.705  24.801  0.00  0.00     0.240 C 
ATOM     44  O5  non d ame     -30.791  10.676  25.699  0.00  0.00    -0.271 OA
ATOM     45  N6  non d ame     -31.636  11.903  23.916  0.00  0.00    -0.355 N 
ATOM     46  H46 non d ame     -32.289  11.936  23.147  0.00  0.00     0.162 HD
BRANCH  45  47
ATOM     47  C20 non d ame     -30.739  13.052  24.168  0.00  0.00     0.013 C 
ATOM     48  H30 non d ame     -29.996  12.742  24.903  0.00  0.00     0.072 H 
BRANCH  47  49
ATOM     49  C21 non d ame     -31.548  14.210  24.706  0.00  0.00    -0.038 C 
ATOM     50  H31 non d ame     -30.893  15.080  24.647  0.00  0.00     0.036 H 
ATOM     51  H32 non d ame     -32.486  14.195  24.152  0.00  0.00     0.036 H 
BRANCH  49  52
ATOM     52  C22 non d ame     -31.918  14.042  26.195  0.00  0.00     0.018 C 
ATOM     53  H33 non d ame     -31.414  13.134  26.524  0.00  0.00     0.048 H 
ATOM     54  H34 non d ame     -31.681  14.997  26.667  0.00  0.00     0.048 H 
BRANCH  52  55
ATOM     55  C23 non d ame     -33.433  13.807  26.443  0.00  0.00     0.259 C 
ATOM     56  O7  non d ame     -33.943  12.780  26.131  0.00  0.00    -0.265 OA
BRANCH  55  57
ATOM     57  O8  non d ame     -34.211  14.840  27.035  0.00  0.00    -0.317 OA
BRANCH  57  58
ATOM     58  C29 non d ame     -34.570  15.889  26.130  0.00  0.00     0.052 C 
ATOM     59  H47 non d ame     -34.190  15.581  25.157  0.00  0.00     0.082 H 
ATOM     60  H48 non d ame     -35.638  16.050  26.273  0.00  0.00     0.082 H 
BRANCH  58  61
ATOM     61  C35 non d ame     -33.817  17.176  26.566  0.00  0.00    -0.034 A 
ATOM     62  C30 non d ame     -33.249  17.254  27.833  0.00  0.00    -0.075 A 
ATOM     63  C31 non d ame     -32.573  18.409  28.225  0.00  0.00    -0.082 A 
ATOM     64  H49 non d ame     -33.333  16.412  28.520  0.00  0.00     0.084 H 
ATOM     65  C32 non d ame     -32.470  19.490  27.344  0.00  0.00    -0.083 A 
ATOM     66  H50 non d ame     -32.127  18.467  29.218  0.00  0.00     0.083 H 
ATOM     67  C33 non d ame     -33.042  19.408  26.082  0.00  0.00    -0.082 A 
ATOM     68  H51 non d ame     -31.943  20.396  27.643  0.00  0.00     0.083 H 
ATOM     69  C34 non d ame     -33.716  18.254  25.686  0.00  0.00    -0.075 A 
ATOM     70  H52 non d ame     -32.961  20.253  25.398  0.00  0.00     0.083 H 
ATOM     71  H53 non d ame     -34.161  18.198  24.692  0.00  0.00     0.084 H 
ENDBRANCH  58  61
ENDBRANCH  57  58
ENDBRANCH  55  57
ENDBRANCH  52  55
ENDBRANCH  49  52
ENDBRANCH  47  49
BRANCH  47  72
ATOM     72  C24 non d ame     -30.055  13.468  22.867  0.00  0.00    -0.039 C 
ATOM     73  H35 non d ame     -28.997  13.242  23.011  0.00  0.00     0.036 H 
ATOM     74  H36 non d ame     -30.614  12.972  22.074  0.00  0.00     0.036 H 
BRANCH  72  75
ATOM     75  C25 non d ame     -30.173  15.045  22.613  0.00  0.00    -0.001 C 
ATOM     76  C26 non d ame     -31.122  15.330  21.302  0.00  0.00    -0.035 C 
ATOM     77  C27 non d ame     -30.463  16.161  20.458  0.00  0.00     0.085 C 
ATOM     78  H38 non d ame     -31.241  14.417  20.719  0.00  0.00     0.036 H 
ATOM     79  H39 non d ame     -31.999  15.909  21.594  0.00  0.00     0.036 H 
ATOM     80  N5  non d ame     -29.025  16.205  20.916  0.00  0.00    -0.049 N 
ATOM     81  H40 non d ame     -30.510  15.680  19.480  0.00  0.00     0.075 H 
ATOM     82  H41 non d ame     -30.912  17.143  20.605  0.00  0.00     0.075 H 
ATOM     83  C28 non d ame     -29.013  15.573  22.402  0.00  0.00     0.193 C 
ATOM     84  H42 non d ame     -28.509  15.592  20.302  0.00  0.00     0.280 HD
ATOM     85  H43 non d ame     -28.776  17.182  20.981  0.00  0.00     0.280 HD
ATOM     86  H44 non d ame     -28.926  16.215  23.277  0.00  0.00     0.129 H 
ATOM     87  H37 non d ame     -30.408  15.594  23.525  0.00  0.00     0.046 H 
BRANCH  83  88
ATOM     88  O6  non d ame     -27.956  14.618  22.523  0.00  0.00    -0.369 OA
ATOM     89  H45 non d ame     -27.115  15.077  22.578  0.00  0.00     0.212 HD
ENDBRANCH  83  88
ENDBRANCH  72  75
ENDBRANCH  47  72
ENDBRANCH  45  47
ENDBRANCH   1  43
BRANCH   1  90
ATOM     90  C16 non d ame     -32.605   9.222  23.055  0.00  0.00    -0.035 C 
ATOM     91  H21 non d ame     -33.661   9.336  22.813  0.00  0.00     0.037 H 
ATOM     92  H22 non d ame     -31.867   9.878  22.594  0.00  0.00     0.037 H 
BRANCH  90  93
ATOM     93  C17 non d ame     -32.216   7.765  22.650  0.00  0.00    -0.059 C 
ATOM     94  H23 non d ame     -32.828   7.082  23.239  0.00  0.00     0.038 H 
BRANCH  93  95
ATOM     95  C18 non d ame     -32.499   7.477  21.141  0.00  0.00    -0.073 C 
ATOM     96  H24 non d ame     -33.576   7.431  20.975  0.00  0.00     0.028 H 
ATOM     97  H25 non d ame     -32.073   8.276  20.532  0.00  0.00     0.028 H 
ATOM     98  H26 non d ame     -32.047   6.527  20.860  0.00  0.00     0.028 H 
ENDBRANCH  93  95
BRANCH  93  99
ATOM     99  C19 non d ame     -30.752   7.475  22.993  0.00  0.00    -0.073 C 
ATOM    100  H27 non d ame     -30.360   8.277  23.619  0.00  0.00     0.028 H 
ATOM    101  H28 non d ame     -30.685   6.530  23.532  0.00  0.00     0.028 H 
ATOM    102  H29 non d ame     -30.169   7.411  22.075  0.00  0.00     0.028 H 
ENDBRANCH  93  99
ENDBRANCH  90  93
ENDBRANCH   1  90
TORSDOF 26
ENDMDL
MODEL 17
REMARK VINA RESULT:      -6.7      3.197      7.811
REMARK  26 active torsions:
REMARK  status: ('A' for Active; 'I' for Inactive)
REMARK    1  A    between atoms: C2_2  and  C3_3 
REMARK    2  A    between atoms: C4_6  and  C5_7 
REMARK       I    between atoms: C5_7  and  N2_9 
REMARK    3  A    between atoms: N2_9  and  C6_10 
REMARK    4  A    between atoms: C6_10  and  C7_11 
REMARK    5  A    between atoms: C6_10  and  C8_13 
REMARK       I    between atoms: C7_11  and  N3_14 
REMARK    6  A    between atoms: N3_14  and  C9_15 
REMARK    7  A    between atoms: C9_15  and  C10_16 
REMARK    8  A    between atoms: C9_15  and  C11_18 
REMARK       I    between atoms: C10_16  and  N4_21 
REMARK    9  A    between atoms: C11_18  and  C12_19 
REMARK   10  A    between atoms: C11_18  and  C13_20 
REMARK   11  A    between atoms: N4_21  and  C14_22 
REMARK   12  A    between atoms: C14_22  and  C15_23 
REMARK   13  A    between atoms: C14_22  and  C16_25 
REMARK       I    between atoms: C15_23  and  N6_40 
REMARK   14  A    between atoms: C16_25  and  C17_26 
REMARK   15  A    between atoms: C17_26  and  C18_27 
REMARK   16  A    between atoms: C17_26  and  C19_28 
REMARK   17  A    between atoms: C20_29  and  C21_30 
REMARK   18  A    between atoms: C20_29  and  C24_33 
REMARK   19  A    between atoms: C20_29  and  N6_40 
REMARK   20  A    between atoms: C21_30  and  C22_31 
REMARK   21  A    between atoms: C22_31  and  C23_32 
REMARK   22  A    between atoms: C23_32  and  O8_43 
REMARK   23  A    between atoms: C24_33  and  C25_34 
REMARK   24  A    between atoms: C28_38  and  O6_39 
REMARK   25  A    between atoms: C29_42  and  O8_43 
REMARK   26  A    between atoms: C29_42  and  C35_49 
ROOT
ATOM      1  C14 non d ame     -32.578  10.567  29.639  0.00  0.00     0.089 C 
ATOM      2  H20 non d ame     -31.797   9.840  29.416  0.00  0.00     0.087 H 
ENDROOT
BRANCH   1   3
ATOM      3  N4  non d ame     -33.198  10.943  28.377  0.00  0.00    -0.346 N 
ATOM      4  C10 non d ame     -32.730  10.324  27.083  0.00  0.00     0.241 C 
ATOM      5  O4  non d ame     -31.849   9.529  27.082  0.00  0.00    -0.271 OA
ATOM      6  H19 non d ame     -33.944  11.623  28.399  0.00  0.00     0.163 HD
BRANCH   4   7
ATOM      7  C9  non d ame     -33.388  10.721  25.788  0.00  0.00     0.092 C 
ATOM      8  H11 non d ame     -34.470  10.663  25.903  0.00  0.00     0.088 H 
BRANCH   7   9
ATOM      9  N3  non d ame     -33.059  12.115  25.479  0.00  0.00    -0.346 N 
ATOM     10  C7  non d ame     -33.797  13.185  26.103  0.00  0.00     0.240 C 
ATOM     11  O3  non d ame     -34.661  12.942  26.855  0.00  0.00    -0.271 OA
ATOM     12  H10 non d ame     -32.318  12.340  24.831  0.00  0.00     0.163 HD
BRANCH  10  13
ATOM     13  C6  non d ame     -33.444  14.668  25.767  0.00  0.00     0.086 C 
ATOM     14  H6  non d ame     -32.764  15.114  26.492  0.00  0.00     0.086 H 
BRANCH  13  15
ATOM     15  N2  non d ame     -32.768  14.712  24.481  0.00  0.00    -0.343 N 
ATOM     16  C5  non d ame     -31.585  15.559  24.317  0.00  0.00     0.273 C 
ATOM     17  O2  non d ame     -31.186  16.203  25.224  0.00  0.00    -0.266 OA
ATOM     18  H5  non d ame     -33.118  14.161  23.710  0.00  0.00     0.163 HD
BRANCH  16  19
ATOM     19  C4  non d ame     -30.860  15.614  22.963  0.00  0.00     0.154 A 
ATOM     20  C1  non d ame     -31.455  15.728  21.667  0.00  0.00    -0.017 A 
ATOM     21  C2  non d ame     -30.366  15.735  20.766  0.00  0.00     0.077 A 
ATOM     22  H1  non d ame     -32.513  15.795  21.418  0.00  0.00     0.091 H 
ATOM     23  O1  non d ame     -29.278  15.639  21.473  0.00  0.00    -0.218 OA
ATOM     24  N1  non d ame     -29.541  15.566  22.758  0.00  0.00    -0.123 NA
BRANCH  21  25
ATOM     25  C3  non d ame     -30.452  15.839  19.250  0.00  0.00    -0.029 C 
ATOM     26  H2  non d ame     -31.492  15.743  18.937  0.00  0.00     0.036 H 
ATOM     27  H3  non d ame     -30.065  16.806  18.929  0.00  0.00     0.036 H 
ATOM     28  H4  non d ame     -29.862  15.044  18.797  0.00  0.00     0.036 H 
ENDBRANCH  21  25
ENDBRANCH  16  19
ENDBRANCH  13  15
BRANCH  13  29
ATOM     29  C8  non d ame     -34.708  15.489  25.714  0.00  0.00    -0.049 C 
ATOM     30  H7  non d ame     -35.073  15.660  26.727  0.00  0.00     0.030 H 
ATOM     31  H8  non d ame     -34.499  16.446  25.237  0.00  0.00     0.030 H 
ATOM     32  H9  non d ame     -35.465  14.954  25.141  0.00  0.00     0.030 H 
ENDBRANCH  13  29
ENDBRANCH  10  13
ENDBRANCH   7   9
BRANCH   7  33
ATOM     33  C11 non d ame     -32.872   9.802  24.642  0.00  0.00    -0.033 C 
ATOM     34  H12 non d ame     -32.456   8.905  25.103  0.00  0.00     0.042 H 
BRANCH  33  35
ATOM     35  C12 non d ame     -34.036   9.353  23.705  0.00  0.00    -0.071 C 
ATOM     36  H13 non d ame     -34.094   8.264  23.694  0.00  0.00     0.028 H 
ATOM     37  H14 non d ame     -34.976   9.763  24.072  0.00  0.00     0.028 H 
ATOM     38  H15 non d ame     -33.850   9.716  22.694  0.00  0.00     0.028 H 
ENDBRANCH  33  35
BRANCH  33  39
ATOM     39  C13 non d ame     -31.732  10.502  23.834  0.00  0.00    -0.071 C 
ATOM     40  H16 non d ame     -30.766  10.113  24.156  0.00  0.00     0.028 H 
ATOM     41  H17 non d ame     -31.867  10.305  22.770  0.00  0.00     0.028 H 
ATOM     42  H18 non d ame     -31.768  11.576  24.011  0.00  0.00     0.028 H 
ENDBRANCH  33  39
ENDBRANCH   7  33
ENDBRANCH   4   7
ENDBRANCH   1   3
BRANCH   1  43
ATOM     43  C15 non d ame     -33.674   9.984  30.575  0.00  0.00     0.240 C 
ATOM     44  O5  non d ame     -34.039  10.610  31.517  0.00  0.00    -0.271 OA
ATOM     45  N6  non d ame     -34.275   8.650  30.294  0.00  0.00    -0.355 N 
ATOM     46  H46 non d ame     -33.976   8.112  29.493  0.00  0.00     0.162 HD
BRANCH  45  47
ATOM     47  C20 non d ame     -35.318   8.110  31.193  0.00  0.00     0.013 C 
ATOM     48  H30 non d ame     -35.225   8.615  32.155  0.00  0.00     0.072 H 
BRANCH  47  49
ATOM     49  C21 non d ame     -35.107   6.623  31.367  0.00  0.00    -0.038 C 
ATOM     50  H31 non d ame     -34.100   6.423  30.996  0.00  0.00     0.036 H 
ATOM     51  H32 non d ame     -35.357   6.410  32.406  0.00  0.00     0.036 H 
BRANCH  49  52
ATOM     52  C22 non d ame     -36.066   5.776  30.504  0.00  0.00     0.018 C 
ATOM     53  H33 non d ame     -36.212   4.846  31.050  0.00  0.00     0.048 H 
ATOM     54  H34 non d ame     -36.920   6.422  30.291  0.00  0.00     0.048 H 
BRANCH  52  55
ATOM     55  C23 non d ame     -35.479   5.376  29.123  0.00  0.00     0.259 C 
ATOM     56  O7  non d ame     -36.133   4.764  28.342  0.00  0.00    -0.265 OA
BRANCH  55  57
ATOM     57  O8  non d ame     -34.139   5.736  28.804  0.00  0.00    -0.317 OA
BRANCH  57  58
ATOM     58  C29 non d ame     -33.351   4.655  28.297  0.00  0.00     0.052 C 
ATOM     59  H47 non d ame     -32.430   4.663  28.879  0.00  0.00     0.082 H 
ATOM     60  H48 non d ame     -34.002   3.780  28.317  0.00  0.00     0.082 H 
BRANCH  58  61
ATOM     61  C35 non d ame     -33.000   4.970  26.818  0.00  0.00    -0.034 A 
ATOM     62  C30 non d ame     -33.514   4.178  25.796  0.00  0.00    -0.075 A 
ATOM     63  C31 non d ame     -33.198   4.461  24.467  0.00  0.00    -0.082 A 
ATOM     64  H49 non d ame     -34.162   3.335  26.035  0.00  0.00     0.084 H 
ATOM     65  C32 non d ame     -32.363   5.540  24.163  0.00  0.00    -0.083 A 
ATOM     66  H50 non d ame     -33.603   3.839  23.669  0.00  0.00     0.083 H 
ATOM     67  C33 non d ame     -31.851   6.325  25.187  0.00  0.00    -0.082 A 
ATOM     68  H51 non d ame     -32.113   5.768  23.128  0.00  0.00     0.083 H 
ATOM     69  C34 non d ame     -32.165   6.047  26.515  0.00  0.00    -0.075 A 
ATOM     70  H52 non d ame     -31.198   7.165  24.946  0.00  0.00     0.083 H 
ATOM     71  H53 non d ame     -31.760   6.670  27.313  0.00  0.00     0.084 H 
ENDBRANCH  58  61
ENDBRANCH  57  58
ENDBRANCH  55  57
ENDBRANCH  52  55
ENDBRANCH  49  52
ENDBRANCH  47  49
BRANCH  47  72
ATOM     72  C24 non d ame     -36.699   8.363  30.593  0.00  0.00    -0.039 C 
ATOM     73  H35 non d ame     -36.513   8.832  29.626  0.00  0.00     0.036 H 
ATOM     74  H36 non d ame     -37.217   7.405  30.643  0.00  0.00     0.036 H 
BRANCH  72  75
ATOM     75  C25 non d ame     -37.545   9.404  31.469  0.00  0.00    -0.001 C 
ATOM     76  C26 non d ame     -39.105   8.899  31.585  0.00  0.00    -0.035 C 
ATOM     77  C27 non d ame     -39.922   9.921  31.234  0.00  0.00     0.085 C 
ATOM     78  H38 non d ame     -39.309   8.138  30.832  0.00  0.00     0.036 H 
ATOM     79  H39 non d ame     -39.362   8.716  32.629  0.00  0.00     0.036 H 
ATOM     80  N5  non d ame     -39.058  10.969  30.575  0.00  0.00    -0.049 N 
ATOM     81  H40 non d ame     -40.605   9.506  30.492  0.00  0.00     0.075 H 
ATOM     82  H41 non d ame     -40.311  10.319  32.170  0.00  0.00     0.075 H 
ATOM     83  C28 non d ame     -37.534  10.581  30.938  0.00  0.00     0.193 C 
ATOM     84  H42 non d ame     -39.189  10.864  29.579  0.00  0.00     0.280 HD
ATOM     85  H43 non d ame     -39.282  11.847  31.023  0.00  0.00     0.280 HD
ATOM     86  H44 non d ame     -36.986  11.136  31.698  0.00  0.00     0.129 H 
ATOM     87  H37 non d ame     -37.039   9.669  32.397  0.00  0.00     0.046 H 
BRANCH  83  88
ATOM     88  O6  non d ame     -36.719  10.634  29.765  0.00  0.00    -0.369 OA
ATOM     89  H45 non d ame     -37.023   9.979  29.133  0.00  0.00     0.212 HD
ENDBRANCH  83  88
ENDBRANCH  72  75
ENDBRANCH  47  72
ENDBRANCH  45  47
ENDBRANCH   1  43
BRANCH   1  90
ATOM     90  C16 non d ame     -31.963  11.803  30.276  0.00  0.00    -0.035 C 
ATOM     91  H21 non d ame     -32.718  12.176  30.968  0.00  0.00     0.037 H 
ATOM     92  H22 non d ame     -30.992  11.481  30.652  0.00  0.00     0.037 H 
BRANCH  90  93
ATOM     93  C17 non d ame     -31.685  12.959  29.264  0.00  0.00    -0.059 C 
ATOM     94  H23 non d ame     -31.985  12.612  28.275  0.00  0.00     0.038 H 
BRANCH  93  95
ATOM     95  C18 non d ame     -32.514  14.242  29.592  0.00  0.00    -0.073 C 
ATOM     96  H24 non d ame     -33.392  14.282  28.948  0.00  0.00     0.028 H 
ATOM     97  H25 non d ame     -32.830  14.213  30.635  0.00  0.00     0.028 H 
ATOM     98  H26 non d ame     -31.898  15.125  29.424  0.00  0.00     0.028 H 
ENDBRANCH  93  95
BRANCH  93  99
ATOM     99  C19 non d ame     -30.189  13.279  29.198  0.00  0.00    -0.073 C 
ATOM    100  H27 non d ame     -29.643  12.601  29.854  0.00  0.00     0.028 H 
ATOM    101  H28 non d ame     -29.835  13.156  28.174  0.00  0.00     0.028 H 
ATOM    102  H29 non d ame     -30.023  14.307  29.517  0.00  0.00     0.028 H 
ENDBRANCH  93  99
ENDBRANCH  90  93
ENDBRANCH   1  90
TORSDOF 26
ENDMDL
MODEL 18
REMARK VINA RESULT:      -6.6      2.302      6.355
REMARK  26 active torsions:
REMARK  status: ('A' for Active; 'I' for Inactive)
REMARK    1  A    between atoms: C2_2  and  C3_3 
REMARK    2  A    between atoms: C4_6  and  C5_7 
REMARK       I    between atoms: C5_7  and  N2_9 
REMARK    3  A    between atoms: N2_9  and  C6_10 
REMARK    4  A    between atoms: C6_10  and  C7_11 
REMARK    5  A    between atoms: C6_10  and  C8_13 
REMARK       I    between atoms: C7_11  and  N3_14 
REMARK    6  A    between atoms: N3_14  and  C9_15 
REMARK    7  A    between atoms: C9_15  and  C10_16 
REMARK    8  A    between atoms: C9_15  and  C11_18 
REMARK       I    between atoms: C10_16  and  N4_21 
REMARK    9  A    between atoms: C11_18  and  C12_19 
REMARK   10  A    between atoms: C11_18  and  C13_20 
REMARK   11  A    between atoms: N4_21  and  C14_22 
REMARK   12  A    between atoms: C14_22  and  C15_23 
REMARK   13  A    between atoms: C14_22  and  C16_25 
REMARK       I    between atoms: C15_23  and  N6_40 
REMARK   14  A    between atoms: C16_25  and  C17_26 
REMARK   15  A    between atoms: C17_26  and  C18_27 
REMARK   16  A    between atoms: C17_26  and  C19_28 
REMARK   17  A    between atoms: C20_29  and  C21_30 
REMARK   18  A    between atoms: C20_29  and  C24_33 
REMARK   19  A    between atoms: C20_29  and  N6_40 
REMARK   20  A    between atoms: C21_30  and  C22_31 
REMARK   21  A    between atoms: C22_31  and  C23_32 
REMARK   22  A    between atoms: C23_32  and  O8_43 
REMARK   23  A    between atoms: C24_33  and  C25_34 
REMARK   24  A    between atoms: C28_38  and  O6_39 
REMARK   25  A    between atoms: C29_42  and  O8_43 
REMARK   26  A    between atoms: C29_42  and  C35_49 
ROOT
ATOM      1  C14 non d ame     -31.000  13.649  24.560  0.00  0.00     0.089 C 
ATOM      2  H20 non d ame     -30.005  13.557  24.995  0.00  0.00     0.087 H 
ENDROOT
BRANCH   1   3
ATOM      3  N4  non d ame     -31.369  12.345  24.031  0.00  0.00    -0.346 N 
ATOM      4  C10 non d ame     -31.209  11.106  24.877  0.00  0.00     0.241 C 
ATOM      5  O4  non d ame     -30.778  11.184  25.979  0.00  0.00    -0.271 OA
ATOM      6  H19 non d ame     -31.732  12.300  23.089  0.00  0.00     0.163 HD
BRANCH   4   7
ATOM      7  C9  non d ame     -31.602   9.765  24.314  0.00  0.00     0.092 C 
ATOM      8  H11 non d ame     -31.058   8.982  24.843  0.00  0.00     0.088 H 
BRANCH   7   9
ATOM      9  N3  non d ame     -33.030   9.536  24.548  0.00  0.00    -0.346 N 
ATOM     10  C7  non d ame     -33.459   8.410  25.340  0.00  0.00     0.240 C 
ATOM     11  O3  non d ame     -32.668   7.678  25.797  0.00  0.00    -0.271 OA
ATOM     12  H10 non d ame     -33.724  10.157  24.159  0.00  0.00     0.163 HD
BRANCH  10  13
ATOM     13  C6  non d ame     -34.981   8.169  25.583  0.00  0.00     0.086 C 
ATOM     14  H6  non d ame     -35.241   7.110  25.611  0.00  0.00     0.086 H 
BRANCH  13  15
ATOM     15  N2  non d ame     -35.345   8.720  26.878  0.00  0.00    -0.343 N 
ATOM     16  C5  non d ame     -35.652   7.814  27.987  0.00  0.00     0.273 C 
ATOM     17  O2  non d ame     -35.606   6.644  27.827  0.00  0.00    -0.266 OA
ATOM     18  H5  non d ame     -35.386   9.721  27.005  0.00  0.00     0.163 HD
BRANCH  16  19
ATOM     19  C4  non d ame     -36.037   8.384  29.361  0.00  0.00     0.154 A 
ATOM     20  C1  non d ame     -35.177   8.576  30.489  0.00  0.00    -0.017 A 
ATOM     21  C2  non d ame     -36.010   9.121  31.493  0.00  0.00     0.077 A 
ATOM     22  H1  non d ame     -34.114   8.352  30.569  0.00  0.00     0.091 H 
ATOM     23  O1  non d ame     -37.205   9.228  30.988  0.00  0.00    -0.218 OA
ATOM     24  N1  non d ame     -37.245   8.804  29.746  0.00  0.00    -0.123 NA
BRANCH  21  25
ATOM     25  C3  non d ame     -35.586   9.512  32.902  0.00  0.00    -0.029 C 
ATOM     26  H2  non d ame     -35.565  10.598  32.987  0.00  0.00     0.036 H 
ATOM     27  H3  non d ame     -36.297   9.106  33.621  0.00  0.00     0.036 H 
ATOM     28  H4  non d ame     -34.593   9.113  33.107  0.00  0.00     0.036 H 
ENDBRANCH  21  25
ENDBRANCH  16  19
ENDBRANCH  13  15
BRANCH  13  29
ATOM     29  C8  non d ame     -35.779   8.839  24.493  0.00  0.00    -0.049 C 
ATOM     30  H7  non d ame     -35.102   9.338  23.801  0.00  0.00     0.030 H 
ATOM     31  H8  non d ame     -36.360   8.089  23.956  0.00  0.00     0.030 H 
ATOM     32  H9  non d ame     -36.453   9.573  24.936  0.00  0.00     0.030 H 
ENDBRANCH  13  29
ENDBRANCH  10  13
ENDBRANCH   7   9
BRANCH   7  33
ATOM     33  C11 non d ame     -31.318   9.742  22.784  0.00  0.00    -0.033 C 
ATOM     34  H12 non d ame     -31.695  10.676  22.366  0.00  0.00     0.042 H 
BRANCH  33  35
ATOM     35  C12 non d ame     -29.787   9.681  22.489  0.00  0.00    -0.071 C 
ATOM     36  H13 non d ame     -29.250   9.433  23.405  0.00  0.00     0.028 H 
ATOM     37  H14 non d ame     -29.593   8.919  21.736  0.00  0.00     0.028 H 
ATOM     38  H15 non d ame     -29.448  10.650  22.122  0.00  0.00     0.028 H 
ENDBRANCH  33  35
BRANCH  33  39
ATOM     39  C13 non d ame     -32.075   8.563  22.093  0.00  0.00    -0.071 C 
ATOM     40  H16 non d ame     -32.800   8.963  21.382  0.00  0.00     0.028 H 
ATOM     41  H17 non d ame     -31.360   7.931  21.565  0.00  0.00     0.028 H 
ATOM     42  H18 non d ame     -32.593   7.972  22.847  0.00  0.00     0.028 H 
ENDBRANCH  33  39
ENDBRANCH   7  33
ENDBRANCH   4   7
ENDBRANCH   1   3
BRANCH   1  43
ATOM     43  C15 non d ame     -32.064  14.076  25.611  0.00  0.00     0.240 C 
ATOM     44  O5  non d ame     -33.215  14.090  25.315  0.00  0.00    -0.271 OA
ATOM     45  N6  non d ame     -31.649  14.459  26.990  0.00  0.00    -0.355 N 
ATOM     46  H46 non d ame     -30.674  14.446  27.255  0.00  0.00     0.162 HD
BRANCH  45  47
ATOM     47  C20 non d ame     -32.672  14.861  27.980  0.00  0.00     0.013 C 
ATOM     48  H30 non d ame     -33.627  14.439  27.665  0.00  0.00     0.072 H 
BRANCH  47  49
ATOM     49  C21 non d ame     -32.763  16.369  28.021  0.00  0.00    -0.038 C 
ATOM     50  H31 non d ame     -32.332  16.665  28.979  0.00  0.00     0.036 H 
ATOM     51  H32 non d ame     -32.313  16.716  27.091  0.00  0.00     0.036 H 
BRANCH  49  52
ATOM     52  C22 non d ame     -34.219  16.883  28.021  0.00  0.00     0.018 C 
ATOM     53  H33 non d ame     -34.759  16.240  28.714  0.00  0.00     0.048 H 
ATOM     54  H34 non d ame     -34.153  17.955  28.212  0.00  0.00     0.048 H 
BRANCH  52  55
ATOM     55  C23 non d ame     -34.935  16.736  26.650  0.00  0.00     0.259 C 
ATOM     56  O7  non d ame     -35.899  16.050  26.544  0.00  0.00    -0.265 OA
BRANCH  55  57
ATOM     57  O8  non d ame     -34.417  17.421  25.516  0.00  0.00    -0.317 OA
BRANCH  57  58
ATOM     58  C29 non d ame     -34.045  18.778  25.776  0.00  0.00     0.052 C 
ATOM     59  H47 non d ame     -33.551  18.767  26.747  0.00  0.00     0.082 H 
ATOM     60  H48 non d ame     -33.502  19.110  24.891  0.00  0.00     0.082 H 
BRANCH  58  61
ATOM     61  C35 non d ame     -35.346  19.616  25.896  0.00  0.00    -0.034 A 
ATOM     62  C30 non d ame     -36.253  19.649  24.841  0.00  0.00    -0.075 A 
ATOM     63  C31 non d ame     -37.422  20.403  24.949  0.00  0.00    -0.082 A 
ATOM     64  H49 non d ame     -36.049  19.086  23.931  0.00  0.00     0.084 H 
ATOM     65  C32 non d ame     -37.680  21.127  26.116  0.00  0.00    -0.083 A 
ATOM     66  H50 non d ame     -38.131  20.425  24.121  0.00  0.00     0.083 H 
ATOM     67  C33 non d ame     -36.770  21.094  27.164  0.00  0.00    -0.082 A 
ATOM     68  H51 non d ame     -38.591  21.718  26.208  0.00  0.00     0.083 H 
ATOM     69  C34 non d ame     -35.602  20.341  27.061  0.00  0.00    -0.075 A 
ATOM     70  H52 non d ame     -36.973  21.662  28.072  0.00  0.00     0.083 H 
ATOM     71  H53 non d ame     -34.893  20.319  27.889  0.00  0.00     0.084 H 
ENDBRANCH  58  61
ENDBRANCH  57  58
ENDBRANCH  55  57
ENDBRANCH  52  55
ENDBRANCH  49  52
ENDBRANCH  47  49
BRANCH  47  72
ATOM     72  C24 non d ame     -32.290  14.335  29.362  0.00  0.00    -0.039 C 
ATOM     73  H35 non d ame     -31.520  15.015  29.728  0.00  0.00     0.036 H 
ATOM     74  H36 non d ame     -33.230  14.234  29.904  0.00  0.00     0.036 H 
BRANCH  72  75
ATOM     75  C25 non d ame     -31.633  12.876  29.280  0.00  0.00    -0.001 C 
ATOM     76  C26 non d ame     -32.814  11.735  29.204  0.00  0.00    -0.035 C 
ATOM     77  C27 non d ame     -32.576  10.797  30.153  0.00  0.00     0.085 C 
ATOM     78  H38 non d ame     -33.769  12.164  29.504  0.00  0.00     0.036 H 
ATOM     79  H39 non d ame     -32.735  11.177  28.271  0.00  0.00     0.036 H 
ATOM     80  N5  non d ame     -31.531  11.365  31.082  0.00  0.00    -0.049 N 
ATOM     81  H40 non d ame     -33.515  10.690  30.698  0.00  0.00     0.075 H 
ATOM     82  H41 non d ame     -32.154   9.945  29.621  0.00  0.00     0.075 H 
ATOM     83  C28 non d ame     -30.897  12.636  30.314  0.00  0.00     0.193 C 
ATOM     84  H42 non d ame     -32.022  11.695  31.900  0.00  0.00     0.280 HD
ATOM     85  H43 non d ame     -30.816  10.656  31.175  0.00  0.00     0.280 HD
ATOM     86  H44 non d ame     -29.916  12.569  29.847  0.00  0.00     0.129 H 
ATOM     87  H37 non d ame     -30.841  12.821  28.534  0.00  0.00     0.046 H 
BRANCH  83  88
ATOM     88  O6  non d ame     -30.824  13.758  31.196  0.00  0.00    -0.369 OA
ATOM     89  H45 non d ame     -30.327  13.517  31.981  0.00  0.00     0.212 HD
ENDBRANCH  83  88
ENDBRANCH  72  75
ENDBRANCH  47  72
ENDBRANCH  45  47
ENDBRANCH   1  43
BRANCH   1  90
ATOM     90  C16 non d ame     -30.974  14.656  23.421  0.00  0.00    -0.035 C 
ATOM     91  H21 non d ame     -31.952  14.583  22.948  0.00  0.00     0.037 H 
ATOM     92  H22 non d ame     -30.657  15.596  23.874  0.00  0.00     0.037 H 
BRANCH  90  93
ATOM     93  C17 non d ame     -29.923  14.324  22.314  0.00  0.00    -0.059 C 
ATOM     94  H23 non d ame     -29.825  13.240  22.267  0.00  0.00     0.038 H 
BRANCH  93  95
ATOM     95  C18 non d ame     -30.374  14.825  20.905  0.00  0.00    -0.073 C 
ATOM     96  H24 non d ame     -30.676  15.870  20.970  0.00  0.00     0.028 H 
ATOM     97  H25 non d ame     -29.544  14.732  20.204  0.00  0.00     0.028 H 
ATOM     98  H26 non d ame     -31.213  14.224  20.557  0.00  0.00     0.028 H 
ENDBRANCH  93  95
BRANCH  93  99
ATOM     99  C19 non d ame     -28.548  14.889  22.679  0.00  0.00    -0.073 C 
ATOM    100  H27 non d ame     -27.830  14.073  22.765  0.00  0.00     0.028 H 
ATOM    101  H28 non d ame     -28.220  15.579  21.901  0.00  0.00     0.028 H 
ATOM    102  H29 non d ame     -28.612  15.419  23.629  0.00  0.00     0.028 H 
ENDBRANCH  93  99
ENDBRANCH  90  93
ENDBRANCH   1  90
TORSDOF 26
ENDMDL
MODEL 19
REMARK VINA RESULT:      -6.5      3.501      9.373
REMARK  26 active torsions:
REMARK  status: ('A' for Active; 'I' for Inactive)
REMARK    1  A    between atoms: C2_2  and  C3_3 
REMARK    2  A    between atoms: C4_6  and  C5_7 
REMARK       I    between atoms: C5_7  and  N2_9 
REMARK    3  A    between atoms: N2_9  and  C6_10 
REMARK    4  A    between atoms: C6_10  and  C7_11 
REMARK    5  A    between atoms: C6_10  and  C8_13 
REMARK       I    between atoms: C7_11  and  N3_14 
REMARK    6  A    between atoms: N3_14  and  C9_15 
REMARK    7  A    between atoms: C9_15  and  C10_16 
REMARK    8  A    between atoms: C9_15  and  C11_18 
REMARK       I    between atoms: C10_16  and  N4_21 
REMARK    9  A    between atoms: C11_18  and  C12_19 
REMARK   10  A    between atoms: C11_18  and  C13_20 
REMARK   11  A    between atoms: N4_21  and  C14_22 
REMARK   12  A    between atoms: C14_22  and  C15_23 
REMARK   13  A    between atoms: C14_22  and  C16_25 
REMARK       I    between atoms: C15_23  and  N6_40 
REMARK   14  A    between atoms: C16_25  and  C17_26 
REMARK   15  A    between atoms: C17_26  and  C18_27 
REMARK   16  A    between atoms: C17_26  and  C19_28 
REMARK   17  A    between atoms: C20_29  and  C21_30 
REMARK   18  A    between atoms: C20_29  and  C24_33 
REMARK   19  A    between atoms: C20_29  and  N6_40 
REMARK   20  A    between atoms: C21_30  and  C22_31 
REMARK   21  A    between atoms: C22_31  and  C23_32 
REMARK   22  A    between atoms: C23_32  and  O8_43 
REMARK   23  A    between atoms: C24_33  and  C25_34 
REMARK   24  A    between atoms: C28_38  and  O6_39 
REMARK   25  A    between atoms: C29_42  and  O8_43 
REMARK   26  A    between atoms: C29_42  and  C35_49 
ROOT
ATOM      1  C14 non d ame     -34.947   8.183  30.816  0.00  0.00     0.089 C 
ATOM      2  H20 non d ame     -34.758   8.426  31.862  0.00  0.00     0.087 H 
ENDROOT
BRANCH   1   3
ATOM      3  N4  non d ame     -34.077   9.023  30.007  0.00  0.00    -0.346 N 
ATOM      4  C10 non d ame     -33.471  10.276  30.589  0.00  0.00     0.241 C 
ATOM      5  O4  non d ame     -33.701  10.588  31.710  0.00  0.00    -0.271 OA
ATOM      6  H19 non d ame     -33.896   8.740  29.054  0.00  0.00     0.163 HD
BRANCH   4   7
ATOM      7  C9  non d ame     -32.568  11.130  29.739  0.00  0.00     0.092 C 
ATOM      8  H11 non d ame     -31.842  10.492  29.233  0.00  0.00     0.088 H 
BRANCH   7   9
ATOM      9  N3  non d ame     -33.359  11.795  28.701  0.00  0.00    -0.346 N 
ATOM     10  C7  non d ame     -33.480  11.199  27.393  0.00  0.00     0.240 C 
ATOM     11  O3  non d ame     -32.944  10.185  27.159  0.00  0.00    -0.271 OA
ATOM     12  H10 non d ame     -33.825  12.671  28.887  0.00  0.00     0.163 HD
BRANCH  10  13
ATOM     13  C6  non d ame     -34.321  11.914  26.290  0.00  0.00     0.086 C 
ATOM     14  H6  non d ame     -35.002  12.661  26.698  0.00  0.00     0.086 H 
BRANCH  13  15
ATOM     15  N2  non d ame     -33.420  12.618  25.393  0.00  0.00    -0.343 N 
ATOM     16  C5  non d ame     -32.913  13.940  25.771  0.00  0.00     0.273 C 
ATOM     17  O2  non d ame     -33.237  14.427  26.797  0.00  0.00    -0.266 OA
ATOM     18  H5  non d ame     -33.151  12.196  24.516  0.00  0.00     0.163 HD
BRANCH  16  19
ATOM     19  C4  non d ame     -31.959  14.695  24.833  0.00  0.00     0.154 A 
ATOM     20  C1  non d ame     -30.791  14.178  24.188  0.00  0.00    -0.017 A 
ATOM     21  C2  non d ame     -30.275  15.263  23.445  0.00  0.00     0.077 A 
ATOM     22  H1  non d ame     -30.379  13.171  24.251  0.00  0.00     0.091 H 
ATOM     23  O1  non d ame     -31.064  16.278  23.643  0.00  0.00    -0.218 OA
ATOM     24  N1  non d ame     -32.053  15.971  24.451  0.00  0.00    -0.123 NA
BRANCH  21  25
ATOM     25  C3  non d ame     -29.028  15.245  22.571  0.00  0.00    -0.029 C 
ATOM     26  H2  non d ame     -28.381  14.423  22.877  0.00  0.00     0.036 H 
ATOM     27  H3  non d ame     -29.317  15.110  21.528  0.00  0.00     0.036 H 
ATOM     28  H4  non d ame     -28.494  16.188  22.681  0.00  0.00     0.036 H 
ENDBRANCH  21  25
ENDBRANCH  16  19
ENDBRANCH  13  15
BRANCH  13  29
ATOM     29  C8  non d ame     -35.120  10.891  25.522  0.00  0.00    -0.049 C 
ATOM     30  H7  non d ame     -34.604  10.650  24.593  0.00  0.00     0.030 H 
ATOM     31  H8  non d ame     -35.226   9.988  26.123  0.00  0.00     0.030 H 
ATOM     32  H9  non d ame     -36.107  11.296  25.296  0.00  0.00     0.030 H 
ENDBRANCH  13  29
ENDBRANCH  10  13
ENDBRANCH   7   9
BRANCH   7  33
ATOM     33  C11 non d ame     -31.879  12.204  30.631  0.00  0.00    -0.033 C 
ATOM     34  H12 non d ame     -32.455  12.282  31.554  0.00  0.00     0.042 H 
BRANCH  33  35
ATOM     35  C12 non d ame     -30.428  11.778  31.017  0.00  0.00    -0.071 C 
ATOM     36  H13 non d ame     -29.864  11.548  30.114  0.00  0.00     0.028 H 
ATOM     37  H14 non d ame     -29.942  12.593  31.552  0.00  0.00     0.028 H 
ATOM     38  H15 non d ame     -30.466  10.895  31.655  0.00  0.00     0.028 H 
ENDBRANCH  33  35
BRANCH  33  39
ATOM     39  C13 non d ame     -31.893  13.602  29.934  0.00  0.00    -0.071 C 
ATOM     40  H16 non d ame     -31.407  14.335  30.579  0.00  0.00     0.028 H 
ATOM     41  H17 non d ame     -31.358  13.541  28.986  0.00  0.00     0.028 H 
ATOM     42  H18 non d ame     -32.923  13.906  29.750  0.00  0.00     0.028 H 
ENDBRANCH  33  39
ENDBRANCH   7  33
ENDBRANCH   4   7
ENDBRANCH   1   3
BRANCH   1  43
ATOM     43  C15 non d ame     -34.637   6.693  30.493  0.00  0.00     0.240 C 
ATOM     44  O5  non d ame     -34.805   5.861  31.325  0.00  0.00    -0.271 OA
ATOM     45  N6  non d ame     -34.139   6.302  29.144  0.00  0.00    -0.355 N 
ATOM     46  H46 non d ame     -33.997   7.000  28.428  0.00  0.00     0.162 HD
BRANCH  45  47
ATOM     47  C20 non d ame     -33.850   4.881  28.852  0.00  0.00     0.013 C 
ATOM     48  H30 non d ame     -33.742   4.359  29.803  0.00  0.00     0.072 H 
BRANCH  47  49
ATOM     49  C21 non d ame     -32.565   4.785  28.061  0.00  0.00    -0.038 C 
ATOM     50  H31 non d ame     -31.780   4.599  28.795  0.00  0.00     0.036 H 
ATOM     51  H32 non d ame     -32.758   4.057  27.273  0.00  0.00     0.036 H 
BRANCH  49  52
ATOM     52  C22 non d ame     -32.196   6.106  27.353  0.00  0.00     0.018 C 
ATOM     53  H33 non d ame     -32.786   6.879  27.844  0.00  0.00     0.048 H 
ATOM     54  H34 non d ame     -31.106   6.157  27.374  0.00  0.00     0.048 H 
BRANCH  52  55
ATOM     55  C23 non d ame     -32.598   6.148  25.853  0.00  0.00     0.259 C 
ATOM     56  O7  non d ame     -32.792   5.141  25.252  0.00  0.00    -0.265 OA
BRANCH  55  57
ATOM     57  O8  non d ame     -32.720   7.405  25.199  0.00  0.00    -0.317 OA
BRANCH  57  58
ATOM     58  C29 non d ame     -32.612   7.332  23.774  0.00  0.00     0.052 C 
ATOM     59  H47 non d ame     -32.151   6.367  23.563  0.00  0.00     0.082 H 
ATOM     60  H48 non d ame     -33.607   7.557  23.390  0.00  0.00     0.082 H 
BRANCH  58  61
ATOM     61  C35 non d ame     -31.642   8.451  23.308  0.00  0.00    -0.034 A 
ATOM     62  C30 non d ame     -31.817   9.756  23.758  0.00  0.00    -0.075 A 
ATOM     63  C31 non d ame     -30.946  10.761  23.340  0.00  0.00    -0.082 A 
ATOM     64  H49 non d ame     -32.636   9.991  24.437  0.00  0.00     0.084 H 
ATOM     65  C32 non d ame     -29.898  10.458  22.467  0.00  0.00    -0.083 A 
ATOM     66  H50 non d ame     -31.085  11.783  23.695  0.00  0.00     0.083 H 
ATOM     67  C33 non d ame     -29.729   9.155  22.018  0.00  0.00    -0.082 A 
ATOM     68  H51 non d ame     -29.212  11.238  22.136  0.00  0.00     0.083 H 
ATOM     69  C34 non d ame     -30.596   8.147  22.435  0.00  0.00    -0.075 A 
ATOM     70  H52 non d ame     -28.912   8.921  21.335  0.00  0.00     0.083 H 
ATOM     71  H53 non d ame     -30.456   7.126  22.079  0.00  0.00     0.084 H 
ENDBRANCH  58  61
ENDBRANCH  57  58
ENDBRANCH  55  57
ENDBRANCH  52  55
ENDBRANCH  49  52
ENDBRANCH  47  49
BRANCH  47  72
ATOM     72  C24 non d ame     -34.995   4.277  28.042  0.00  0.00    -0.039 C 
ATOM     73  H35 non d ame     -34.547   3.960  27.099  0.00  0.00     0.036 H 
ATOM     74  H36 non d ame     -35.458   3.541  28.699  0.00  0.00     0.036 H 
BRANCH  72  75
ATOM     75  C25 non d ame     -36.114   5.368  27.691  0.00  0.00    -0.001 C 
ATOM     76  C26 non d ame     -37.479   5.067  28.557  0.00  0.00    -0.035 C 
ATOM     77  C27 non d ame     -38.535   5.037  27.709  0.00  0.00     0.085 C 
ATOM     78  H38 non d ame     -37.449   4.057  28.963  0.00  0.00     0.036 H 
ATOM     79  H39 non d ame     -37.701   5.912  29.210  0.00  0.00     0.036 H 
ATOM     80  N5  non d ame     -37.975   4.962  26.309  0.00  0.00    -0.049 N 
ATOM     81  H40 non d ame     -39.061   4.108  27.931  0.00  0.00     0.075 H 
ATOM     82  H41 non d ame     -39.041   5.994  27.839  0.00  0.00     0.075 H 
ATOM     83  C28 non d ame     -36.412   5.345  26.435  0.00  0.00     0.193 C 
ATOM     84  H42 non d ame     -38.048   3.997  26.022  0.00  0.00     0.280 HD
ATOM     85  H43 non d ame     -38.441   5.684  25.776  0.00  0.00     0.280 HD
ATOM     86  H44 non d ame     -36.056   6.328  26.129  0.00  0.00     0.129 H 
ATOM     87  H37 non d ame     -35.722   6.385  27.720  0.00  0.00     0.046 H 
BRANCH  83  88
ATOM     88  O6  non d ame     -35.615   4.407  25.709  0.00  0.00    -0.369 OA
ATOM     89  H45 non d ame     -35.269   4.826  24.917  0.00  0.00     0.212 HD
ENDBRANCH  83  88
ENDBRANCH  72  75
ENDBRANCH  47  72
ENDBRANCH  45  47
ENDBRANCH   1  43
BRANCH   1  90
ATOM     90  C16 non d ame     -36.395   8.490  30.470  0.00  0.00    -0.035 C 
ATOM     91  H21 non d ame     -36.819   7.544  30.134  0.00  0.00     0.037 H 
ATOM     92  H22 non d ame     -36.803   8.988  31.349  0.00  0.00     0.037 H 
BRANCH  90  93
ATOM     93  C17 non d ame     -36.557   9.491  29.282  0.00  0.00    -0.059 C 
ATOM     94  H23 non d ame     -35.575   9.912  29.067  0.00  0.00     0.038 H 
BRANCH  93  95
ATOM     95  C18 non d ame     -37.068   8.786  27.984  0.00  0.00    -0.073 C 
ATOM     96  H24 non d ame     -36.556   7.832  27.862  0.00  0.00     0.028 H 
ATOM     97  H25 non d ame     -38.142   8.613  28.063  0.00  0.00     0.028 H 
ATOM     98  H26 non d ame     -36.865   9.421  27.122  0.00  0.00     0.028 H 
ENDBRANCH  93  95
BRANCH  93  99
ATOM     99  C19 non d ame     -37.476  10.653  29.667  0.00  0.00    -0.073 C 
ATOM    100  H27 non d ame     -37.187  11.545  29.111  0.00  0.00     0.028 H 
ATOM    101  H28 non d ame     -38.508  10.396  29.428  0.00  0.00     0.028 H 
ATOM    102  H29 non d ame     -37.389  10.846  30.736  0.00  0.00     0.028 H 
ENDBRANCH  93  99
ENDBRANCH  90  93
ENDBRANCH   1  90
TORSDOF 26
ENDMDL
MODEL 20
REMARK VINA RESULT:      -6.4      2.783      7.957
REMARK  26 active torsions:
REMARK  status: ('A' for Active; 'I' for Inactive)
REMARK    1  A    between atoms: C2_2  and  C3_3 
REMARK    2  A    between atoms: C4_6  and  C5_7 
REMARK       I    between atoms: C5_7  and  N2_9 
REMARK    3  A    between atoms: N2_9  and  C6_10 
REMARK    4  A    between atoms: C6_10  and  C7_11 
REMARK    5  A    between atoms: C6_10  and  C8_13 
REMARK       I    between atoms: C7_11  and  N3_14 
REMARK    6  A    between atoms: N3_14  and  C9_15 
REMARK    7  A    between atoms: C9_15  and  C10_16 
REMARK    8  A    between atoms: C9_15  and  C11_18 
REMARK       I    between atoms: C10_16  and  N4_21 
REMARK    9  A    between atoms: C11_18  and  C12_19 
REMARK   10  A    between atoms: C11_18  and  C13_20 
REMARK   11  A    between atoms: N4_21  and  C14_22 
REMARK   12  A    between atoms: C14_22  and  C15_23 
REMARK   13  A    between atoms: C14_22  and  C16_25 
REMARK       I    between atoms: C15_23  and  N6_40 
REMARK   14  A    between atoms: C16_25  and  C17_26 
REMARK   15  A    between atoms: C17_26  and  C18_27 
REMARK   16  A    between atoms: C17_26  and  C19_28 
REMARK   17  A    between atoms: C20_29  and  C21_30 
REMARK   18  A    between atoms: C20_29  and  C24_33 
REMARK   19  A    between atoms: C20_29  and  N6_40 
REMARK   20  A    between atoms: C21_30  and  C22_31 
REMARK   21  A    between atoms: C22_31  and  C23_32 
REMARK   22  A    between atoms: C23_32  and  O8_43 
REMARK   23  A    between atoms: C24_33  and  C25_34 
REMARK   24  A    between atoms: C28_38  and  O6_39 
REMARK   25  A    between atoms: C29_42  and  O8_43 
REMARK   26  A    between atoms: C29_42  and  C35_49 
ROOT
ATOM      1  C14 non d ame     -32.976   9.311  27.571  0.00  0.00     0.089 C 
ATOM      2  H20 non d ame     -31.955   8.929  27.561  0.00  0.00     0.087 H 
ENDROOT
BRANCH   1   3
ATOM      3  N4  non d ame     -32.910  10.729  27.889  0.00  0.00    -0.346 N 
ATOM      4  C10 non d ame     -31.844  11.600  27.271  0.00  0.00     0.241 C 
ATOM      5  O4  non d ame     -31.049  11.135  26.523  0.00  0.00    -0.271 OA
ATOM      6  H19 non d ame     -33.595  11.105  28.529  0.00  0.00     0.163 HD
BRANCH   4   7
ATOM      7  C9  non d ame     -31.794  13.067  27.607  0.00  0.00     0.092 C 
ATOM      8  H11 non d ame     -30.758  13.404  27.589  0.00  0.00     0.088 H 
BRANCH   7   9
ATOM      9  N3  non d ame     -32.516  13.828  26.584  0.00  0.00    -0.346 N 
ATOM     10  C7  non d ame     -31.788  14.478  25.522  0.00  0.00     0.240 C 
ATOM     11  O3  non d ame     -30.621  14.399  25.476  0.00  0.00    -0.271 OA
ATOM     12  H10 non d ame     -33.522  13.906  26.611  0.00  0.00     0.163 HD
BRANCH  10  13
ATOM     13  C6  non d ame     -32.562  15.289  24.436  0.00  0.00     0.086 C 
ATOM     14  H6  non d ame     -33.495  14.812  24.138  0.00  0.00     0.086 H 
BRANCH  13  15
ATOM     15  N2  non d ame     -32.916  16.589  24.984  0.00  0.00    -0.343 N 
ATOM     16  C5  non d ame     -34.210  16.763  25.648  0.00  0.00     0.273 C 
ATOM     17  O2  non d ame     -34.959  15.853  25.734  0.00  0.00    -0.266 OA
ATOM     18  H5  non d ame     -32.271  17.362  24.902  0.00  0.00     0.163 HD
BRANCH  16  19
ATOM     19  C4  non d ame     -34.597  18.130  26.232  0.00  0.00     0.154 A 
ATOM     20  C1  non d ame     -35.819  18.845  26.025  0.00  0.00    -0.017 A 
ATOM     21  C2  non d ame     -35.677  20.035  26.774  0.00  0.00     0.077 A 
ATOM     22  H1  non d ame     -36.677  18.548  25.423  0.00  0.00     0.091 H 
ATOM     23  O1  non d ame     -34.507  19.996  27.343  0.00  0.00    -0.218 OA
ATOM     24  N1  non d ame     -33.858  18.895  27.041  0.00  0.00    -0.123 NA
BRANCH  21  25
ATOM     25  C3  non d ame     -36.703  21.153  26.894  0.00  0.00    -0.029 C 
ATOM     26  H2  non d ame     -37.630  20.753  27.306  0.00  0.00     0.036 H 
ATOM     27  H3  non d ame     -36.318  21.930  27.555  0.00  0.00     0.036 H 
ATOM     28  H4  non d ame     -36.897  21.576  25.909  0.00  0.00     0.036 H 
ENDBRANCH  21  25
ENDBRANCH  16  19
ENDBRANCH  13  15
BRANCH  13  29
ATOM     29  C8  non d ame     -31.690  15.463  23.218  0.00  0.00    -0.049 C 
ATOM     30  H7  non d ame     -30.839  14.786  23.281  0.00  0.00     0.030 H 
ATOM     31  H8  non d ame     -32.270  15.236  22.323  0.00  0.00     0.030 H 
ATOM     32  H9  non d ame     -31.334  16.492  23.169  0.00  0.00     0.030 H 
ENDBRANCH  13  29
ENDBRANCH  10  13
ENDBRANCH   7   9
BRANCH   7  33
ATOM     33  C11 non d ame     -32.462  13.304  28.993  0.00  0.00    -0.033 C 
ATOM     34  H12 non d ame     -33.340  12.659  29.049  0.00  0.00     0.042 H 
BRANCH  33  35
ATOM     35  C12 non d ame     -31.508  12.900  30.161  0.00  0.00    -0.071 C 
ATOM     36  H13 non d ame     -31.308  13.772  30.784  0.00  0.00     0.028 H 
ATOM     37  H14 non d ame     -31.979  12.123  30.762  0.00  0.00     0.028 H 
ATOM     38  H15 non d ame     -30.570  12.525  29.751  0.00  0.00     0.028 H 
ENDBRANCH  33  35
BRANCH  33  39
ATOM     39  C13 non d ame     -32.940  14.784  29.138  0.00  0.00    -0.071 C 
ATOM     40  H16 non d ame     -32.566  15.371  28.299  0.00  0.00     0.028 H 
ATOM     41  H17 non d ame     -34.030  14.815  29.147  0.00  0.00     0.028 H 
ATOM     42  H18 non d ame     -32.559  15.199  30.071  0.00  0.00     0.028 H 
ENDBRANCH  33  39
ENDBRANCH   7  33
ENDBRANCH   4   7
ENDBRANCH   1   3
BRANCH   1  43
ATOM     43  C15 non d ame     -33.680   9.144  26.194  0.00  0.00     0.240 C 
ATOM     44  O5  non d ame     -34.707   9.704  25.983  0.00  0.00    -0.271 OA
ATOM     45  N6  non d ame     -33.068   8.294  25.133  0.00  0.00    -0.355 N 
ATOM     46  H46 non d ame     -32.193   7.818  25.299  0.00  0.00     0.162 HD
BRANCH  45  47
ATOM     47  C20 non d ame     -33.748   8.147  23.828  0.00  0.00     0.013 C 
ATOM     48  H30 non d ame     -34.700   8.675  23.885  0.00  0.00     0.072 H 
BRANCH  47  49
ATOM     49  C21 non d ame     -33.987   6.679  23.551  0.00  0.00    -0.038 C 
ATOM     50  H31 non d ame     -35.003   6.477  23.893  0.00  0.00     0.036 H 
ATOM     51  H32 non d ame     -33.724   6.531  22.504  0.00  0.00     0.036 H 
BRANCH  49  52
ATOM     52  C22 non d ame     -33.059   5.756  24.370  0.00  0.00     0.018 C 
ATOM     53  H33 non d ame     -32.721   4.987  23.677  0.00  0.00     0.048 H 
ATOM     54  H34 non d ame     -32.333   6.417  24.847  0.00  0.00     0.048 H 
BRANCH  52  55
ATOM     55  C23 non d ame     -33.780   5.008  25.524  0.00  0.00     0.259 C 
ATOM     56  O7  non d ame     -33.816   3.820  25.544  0.00  0.00    -0.265 OA
BRANCH  55  57
ATOM     57  O8  non d ame     -34.414   5.759  26.554  0.00  0.00    -0.317 OA
BRANCH  57  58
ATOM     58  C29 non d ame     -35.581   5.133  27.095  0.00  0.00     0.052 C 
ATOM     59  H47 non d ame     -36.428   5.669  26.667  0.00  0.00     0.082 H 
ATOM     60  H48 non d ame     -35.459   4.067  26.908  0.00  0.00     0.082 H 
BRANCH  58  61
ATOM     61  C35 non d ame     -35.580   5.364  28.630  0.00  0.00    -0.034 A 
ATOM     62  C30 non d ame     -34.441   5.081  29.376  0.00  0.00    -0.075 A 
ATOM     63  C31 non d ame     -34.440   5.288  30.756  0.00  0.00    -0.082 A 
ATOM     64  H49 non d ame     -33.549   4.696  28.882  0.00  0.00     0.084 H 
ATOM     65  C32 non d ame     -35.585   5.779  31.388  0.00  0.00    -0.083 A 
ATOM     66  H50 non d ame     -33.545   5.066  31.337  0.00  0.00     0.083 H 
ATOM     67  C33 non d ame     -36.721   6.057  30.640  0.00  0.00    -0.082 A 
ATOM     68  H51 non d ame     -35.592   5.944  32.465  0.00  0.00     0.083 H 
ATOM     69  C34 non d ame     -36.725   5.853  29.261  0.00  0.00    -0.075 A 
ATOM     70  H52 non d ame     -37.614   6.438  31.136  0.00  0.00     0.083 H 
ATOM     71  H53 non d ame     -37.621   6.076  28.680  0.00  0.00     0.084 H 
ENDBRANCH  58  61
ENDBRANCH  57  58
ENDBRANCH  55  57
ENDBRANCH  52  55
ENDBRANCH  49  52
ENDBRANCH  47  49
BRANCH  47  72
ATOM     72  C24 non d ame     -32.878   8.740  22.722  0.00  0.00    -0.039 C 
ATOM     73  H35 non d ame     -32.993   8.067  21.871  0.00  0.00     0.036 H 
ATOM     74  H36 non d ame     -33.187   9.782  22.637  0.00  0.00     0.036 H 
BRANCH  72  75
ATOM     75  C25 non d ame     -31.327   8.738  23.122  0.00  0.00    -0.001 C 
ATOM     76  C26 non d ame     -30.755  10.279  23.148  0.00  0.00    -0.035 C 
ATOM     77  C27 non d ame     -29.629  10.339  22.397  0.00  0.00     0.085 C 
ATOM     78  H38 non d ame     -31.444  10.943  22.628  0.00  0.00     0.036 H 
ATOM     79  H39 non d ame     -30.406  10.531  24.150  0.00  0.00     0.036 H 
ATOM     80  N5  non d ame     -29.564   9.061  21.597  0.00  0.00    -0.049 N 
ATOM     81  H40 non d ame     -29.777  11.178  21.716  0.00  0.00     0.075 H 
ATOM     82  H41 non d ame     -28.804  10.354  23.109  0.00  0.00     0.075 H 
ATOM     83  C28 non d ame     -30.627   8.055  22.277  0.00  0.00     0.193 C 
ATOM     84  H42 non d ame     -29.885   9.288  20.667  0.00  0.00     0.280 HD
ATOM     85  H43 non d ame     -28.635   8.686  21.732  0.00  0.00     0.280 HD
ATOM     86  H44 non d ame     -30.289   7.240  22.915  0.00  0.00     0.129 H 
ATOM     87  H37 non d ame     -31.127   8.119  23.996  0.00  0.00     0.046 H 
BRANCH  83  88
ATOM     88  O6  non d ame     -31.440   7.444  21.273  0.00  0.00    -0.369 OA
ATOM     89  H45 non d ame     -32.298   7.874  21.250  0.00  0.00     0.212 HD
ENDBRANCH  83  88
ENDBRANCH  72  75
ENDBRANCH  47  72
ENDBRANCH  45  47
ENDBRANCH   1  43
BRANCH   1  90
ATOM     90  C16 non d ame     -33.782   8.599  28.646  0.00  0.00    -0.035 C 
ATOM     91  H21 non d ame     -34.492   7.972  28.108  0.00  0.00     0.037 H 
ATOM     92  H22 non d ame     -33.043   8.143  29.305  0.00  0.00     0.037 H 
BRANCH  90  93
ATOM     93  C17 non d ame     -34.631   9.562  29.534  0.00  0.00    -0.059 C 
ATOM     94  H23 non d ame     -34.280  10.578  29.351  0.00  0.00     0.038 H 
BRANCH  93  95
ATOM     95  C18 non d ame     -36.150   9.510  29.175  0.00  0.00    -0.073 C 
ATOM     96  H24 non d ame     -36.719   9.185  30.046  0.00  0.00     0.028 H 
ATOM     97  H25 non d ame     -36.486  10.501  28.872  0.00  0.00     0.028 H 
ATOM     98  H26 non d ame     -36.306   8.807  28.357  0.00  0.00     0.028 H 
ENDBRANCH  93  95
BRANCH  93  99
ATOM     99  C19 non d ame     -34.413   9.269  31.021  0.00  0.00    -0.073 C 
ATOM    100  H27 non d ame     -33.562   8.597  31.139  0.00  0.00     0.028 H 
ATOM    101  H28 non d ame     -34.214  10.201  31.551  0.00  0.00     0.028 H 
ATOM    102  H29 non d ame     -35.306   8.801  31.434  0.00  0.00     0.028 H 
ENDBRANCH  93  99
ENDBRANCH  90  93
ENDBRANCH   1  90
TORSDOF 26
ENDMDL
