MODEL 1
REMARK VINA RESULT:      -7.3      0.000      0.000
REMARK  26 active torsions:
REMARK  status: ('A' for Active; 'I' for Inactive)
REMARK    1  A    between atoms: C2_2  and  C3_3 
REMARK    2  A    between atoms: C4_6  and  C5_7 
REMARK       I    between atoms: C5_7  and  N2_9 
REMARK    3  A    between atoms: N2_9  and  C6_10 
REMARK    4  A    between atoms: C6_10  and  C7_11 
REMARK    5  A    between atoms: C6_10  and  C8_13 
REMARK       I    between atoms: C7_11  and  N3_14 
REMARK    6  A    between atoms: N3_14  and  C9_15 
REMARK    7  A    between atoms: C9_15  and  C10_16 
REMARK    8  A    between atoms: C9_15  and  C11_18 
REMARK       I    between atoms: C10_16  and  N4_21 
REMARK    9  A    between atoms: C11_18  and  C12_19 
REMARK   10  A    between atoms: C11_18  and  C13_20 
REMARK   11  A    between atoms: N4_21  and  C14_22 
REMARK   12  A    between atoms: C14_22  and  C15_23 
REMARK   13  A    between atoms: C14_22  and  C16_25 
REMARK       I    between atoms: C15_23  and  N6_40 
REMARK   14  A    between atoms: C16_25  and  C17_26 
REMARK   15  A    between atoms: C17_26  and  C18_27 
REMARK   16  A    between atoms: C17_26  and  C19_28 
REMARK   17  A    between atoms: C20_29  and  C21_30 
REMARK   18  A    between atoms: C20_29  and  C24_33 
REMARK   19  A    between atoms: C20_29  and  N6_40 
REMARK   20  A    between atoms: C21_30  and  C22_31 
REMARK   21  A    between atoms: C22_31  and  C23_32 
REMARK   22  A    between atoms: C23_32  and  O8_43 
REMARK   23  A    between atoms: C24_33  and  C25_34 
REMARK   24  A    between atoms: C28_38  and  O6_39 
REMARK   25  A    between atoms: C29_42  and  O8_43 
REMARK   26  A    between atoms: C29_42  and  C35_49 
ROOT
ATOM      1  C14 non d ame     -30.823  14.567  23.583  0.00  0.00     0.089 C 
ATOM      2  H20 non d ame     -29.737  14.619  23.501  0.00  0.00     0.087 H 
ENDROOT
BRANCH   1   3
ATOM      3  N4  non d ame     -31.171  13.190  23.902  0.00  0.00    -0.346 N 
ATOM      4  C10 non d ame     -30.473  12.047  23.208  0.00  0.00     0.241 C 
ATOM      5  O4  non d ame     -29.637  12.260  22.394  0.00  0.00    -0.271 OA
ATOM      6  H19 non d ame     -31.887  13.030  24.596  0.00  0.00     0.163 HD
BRANCH   4   7
ATOM      7  C9  non d ame     -30.842  10.629  23.555  0.00  0.00     0.092 C 
ATOM      8  H11 non d ame     -30.379  10.360  24.505  0.00  0.00     0.088 H 
BRANCH   7   9
ATOM      9  N3  non d ame     -32.293  10.531  23.737  0.00  0.00    -0.346 N 
ATOM     10  C7  non d ame     -32.833  10.064  24.990  0.00  0.00     0.240 C 
ATOM     11  O3  non d ame     -32.113   9.761  25.863  0.00  0.00    -0.271 OA
ATOM     12  H10 non d ame     -32.926  10.787  22.993  0.00  0.00     0.163 HD
BRANCH  10  13
ATOM     13  C6  non d ame     -34.378   9.959  25.177  0.00  0.00     0.086 C 
ATOM     14  H6  non d ame     -34.659   9.540  26.143  0.00  0.00     0.086 H 
BRANCH  13  15
ATOM     15  N2  non d ame     -34.951  11.294  25.121  0.00  0.00    -0.343 N 
ATOM     16  C5  non d ame     -36.045  11.648  26.029  0.00  0.00     0.273 C 
ATOM     17  O2  non d ame     -36.458  10.852  26.798  0.00  0.00    -0.266 OA
ATOM     18  H5  non d ame     -34.594  11.967  24.458  0.00  0.00     0.163 HD
BRANCH  16  19
ATOM     19  C4  non d ame     -36.658  13.056  25.981  0.00  0.00     0.154 A 
ATOM     20  C1  non d ame     -36.627  13.977  24.887  0.00  0.00    -0.017 A 
ATOM     21  C2  non d ame     -37.326  15.115  25.348  0.00  0.00     0.077 A 
ATOM     22  H1  non d ame     -36.167  13.841  23.908  0.00  0.00     0.091 H 
ATOM     23  O1  non d ame     -37.712  14.865  26.565  0.00  0.00    -0.218 OA
ATOM     24  N1  non d ame     -37.333  13.670  26.957  0.00  0.00    -0.123 NA
BRANCH  21  25
ATOM     25  C3  non d ame     -37.582  16.395  24.564  0.00  0.00    -0.029 C 
ATOM     26  H2  non d ame     -37.498  16.191  23.497  0.00  0.00     0.036 H 
ATOM     27  H3  non d ame     -38.584  16.762  24.785  0.00  0.00     0.036 H 
ATOM     28  H4  non d ame     -36.849  17.148  24.848  0.00  0.00     0.036 H 
ENDBRANCH  21  25
ENDBRANCH  16  19
ENDBRANCH  13  15
BRANCH  13  29
ATOM     29  C8  non d ame     -34.962   9.101  24.083  0.00  0.00    -0.049 C 
ATOM     30  H7  non d ame     -35.221   8.123  24.488  0.00  0.00     0.030 H 
ATOM     31  H8  non d ame     -35.859   9.578  23.687  0.00  0.00     0.030 H 
ATOM     32  H9  non d ame     -34.230   8.982  23.285  0.00  0.00     0.030 H 
ENDBRANCH  13  29
ENDBRANCH  10  13
ENDBRANCH   7   9
BRANCH   7  33
ATOM     33  C11 non d ame     -30.401   9.681  22.402  0.00  0.00    -0.033 C 
ATOM     34  H12 non d ame     -30.195  10.301  21.529  0.00  0.00     0.042 H 
BRANCH  33  35
ATOM     35  C12 non d ame     -29.085   8.922  22.760  0.00  0.00    -0.071 C 
ATOM     36  H13 non d ame     -28.879   8.172  21.996  0.00  0.00     0.028 H 
ATOM     37  H14 non d ame     -28.259   9.631  22.806  0.00  0.00     0.028 H 
ATOM     38  H15 non d ame     -29.199   8.433  23.727  0.00  0.00     0.028 H 
ENDBRANCH  33  35
BRANCH  33  39
ATOM     39  C13 non d ame     -31.545   8.686  22.027  0.00  0.00    -0.071 C 
ATOM     40  H16 non d ame     -32.198   9.145  21.285  0.00  0.00     0.028 H 
ATOM     41  H17 non d ame     -31.113   7.772  21.617  0.00  0.00     0.028 H 
ATOM     42  H18 non d ame     -32.122   8.443  22.919  0.00  0.00     0.028 H 
ENDBRANCH  33  39
ENDBRANCH   7  33
ENDBRANCH   4   7
ENDBRANCH   1   3
BRANCH   1  43
ATOM     43  C15 non d ame     -31.373  15.490  24.707  0.00  0.00     0.240 C 
ATOM     44  O5  non d ame     -30.635  16.219  25.287  0.00  0.00    -0.271 OA
ATOM     45  N6  non d ame     -32.823  15.473  25.054  0.00  0.00    -0.355 N 
ATOM     46  H46 non d ame     -33.460  14.861  24.564  0.00  0.00     0.162 HD
BRANCH  45  47
ATOM     47  C20 non d ame     -33.332  16.359  26.124  0.00  0.00     0.013 C 
ATOM     48  H30 non d ame     -32.477  16.862  26.577  0.00  0.00     0.072 H 
BRANCH  47  49
ATOM     49  C21 non d ame     -34.051  15.527  27.161  0.00  0.00    -0.038 C 
ATOM     50  H31 non d ame     -35.115  15.690  26.983  0.00  0.00     0.036 H 
ATOM     51  H32 non d ame     -33.632  14.525  27.077  0.00  0.00     0.036 H 
BRANCH  49  52
ATOM     52  C22 non d ame     -33.774  15.997  28.605  0.00  0.00     0.018 C 
ATOM     53  H33 non d ame     -34.002  17.062  28.618  0.00  0.00     0.048 H 
ATOM     54  H34 non d ame     -34.328  15.313  29.250  0.00  0.00     0.048 H 
BRANCH  52  55
ATOM     55  C23 non d ame     -32.285  15.872  29.030  0.00  0.00     0.259 C 
ATOM     56  O7  non d ame     -31.851  16.536  29.915  0.00  0.00    -0.265 OA
BRANCH  55  57
ATOM     57  O8  non d ame     -31.436  14.963  28.338  0.00  0.00    -0.317 OA
BRANCH  57  58
ATOM     58  C29 non d ame     -30.781  14.017  29.188  0.00  0.00     0.052 C 
ATOM     59  H47 non d ame     -29.934  13.642  28.614  0.00  0.00     0.082 H 
ATOM     60  H48 non d ame     -30.614  14.535  30.132  0.00  0.00     0.082 H 
BRANCH  58  61
ATOM     61  C35 non d ame     -31.762  12.841  29.441  0.00  0.00    -0.034 A 
ATOM     62  C30 non d ame     -32.501  12.312  28.387  0.00  0.00    -0.075 A 
ATOM     63  C31 non d ame     -33.382  11.255  28.614  0.00  0.00    -0.082 A 
ATOM     64  H49 non d ame     -32.391  12.725  27.385  0.00  0.00     0.084 H 
ATOM     65  C32 non d ame     -33.524  10.729  29.901  0.00  0.00    -0.083 A 
ATOM     66  H50 non d ame     -33.959  10.842  27.786  0.00  0.00     0.083 H 
ATOM     67  C33 non d ame     -32.787  11.262  30.949  0.00  0.00    -0.082 A 
ATOM     68  H51 non d ame     -34.210   9.902  30.086  0.00  0.00     0.083 H 
ATOM     69  C34 non d ame     -31.903  12.317  30.726  0.00  0.00    -0.075 A 
ATOM     70  H52 non d ame     -32.901  10.851  31.953  0.00  0.00     0.083 H 
ATOM     71  H53 non d ame     -31.327  12.729  31.555  0.00  0.00     0.084 H 
ENDBRANCH  58  61
ENDBRANCH  57  58
ENDBRANCH  55  57
ENDBRANCH  52  55
ENDBRANCH  49  52
ENDBRANCH  47  49
BRANCH  47  72
ATOM     72  C24 non d ame     -34.297  17.383  25.532  0.00  0.00    -0.039 C 
ATOM     73  H35 non d ame     -34.209  17.272  24.450  0.00  0.00     0.036 H 
ATOM     74  H36 non d ame     -35.252  17.198  26.022  0.00  0.00     0.036 H 
BRANCH  72  75
ATOM     75  C25 non d ame     -33.864  18.883  25.891  0.00  0.00    -0.001 C 
ATOM     76  C26 non d ame     -32.471  18.869  26.764  0.00  0.00    -0.035 C 
ATOM     77  C27 non d ame     -32.647  19.616  27.879  0.00  0.00     0.085 C 
ATOM     78  H38 non d ame     -32.284  17.868  27.154  0.00  0.00     0.036 H 
ATOM     79  H39 non d ame     -31.686  19.399  26.224  0.00  0.00     0.036 H 
ATOM     80  N5  non d ame     -34.129  19.868  28.012  0.00  0.00    -0.049 N 
ATOM     81  H40 non d ame     -32.318  18.987  28.707  0.00  0.00     0.075 H 
ATOM     82  H41 non d ame     -32.143  20.562  27.680  0.00  0.00     0.075 H 
ATOM     83  C28 non d ame     -34.776  19.480  26.585  0.00  0.00     0.193 C 
ATOM     84  H42 non d ame     -34.469  19.219  28.707  0.00  0.00     0.280 HD
ATOM     85  H43 non d ame     -34.238  20.863  28.155  0.00  0.00     0.280 HD
ATOM     86  H44 non d ame     -35.080  20.256  25.885  0.00  0.00     0.129 H 
ATOM     87  H37 non d ame     -33.900  19.542  25.024  0.00  0.00     0.046 H 
BRANCH  83  88
ATOM     88  O6  non d ame     -35.931  18.661  26.774  0.00  0.00    -0.369 OA
ATOM     89  H45 non d ame     -36.423  18.972  27.537  0.00  0.00     0.212 HD
ENDBRANCH  83  88
ENDBRANCH  72  75
ENDBRANCH  47  72
ENDBRANCH  45  47
ENDBRANCH   1  43
BRANCH   1  90
ATOM     90  C16 non d ame     -31.459  14.944  22.254  0.00  0.00    -0.035 C 
ATOM     91  H21 non d ame     -31.646  13.999  21.745  0.00  0.00     0.037 H 
ATOM     92  H22 non d ame     -32.291  15.600  22.508  0.00  0.00     0.037 H 
BRANCH  90  93
ATOM     93  C17 non d ame     -30.516  15.767  21.320  0.00  0.00    -0.059 C 
ATOM     94  H23 non d ame     -30.808  16.814  21.395  0.00  0.00     0.038 H 
BRANCH  93  95
ATOM     95  C18 non d ame     -29.018  15.656  21.748  0.00  0.00    -0.073 C 
ATOM     96  H24 non d ame     -28.381  16.014  20.940  0.00  0.00     0.028 H 
ATOM     97  H25 non d ame     -28.849  16.263  22.638  0.00  0.00     0.028 H 
ATOM     98  H26 non d ame     -28.778  14.616  21.967  0.00  0.00     0.028 H 
ENDBRANCH  93  95
BRANCH  93  99
ATOM     99  C19 non d ame     -30.696  15.349  19.858  0.00  0.00    -0.073 C 
ATOM    100  H27 non d ame     -31.616  15.785  19.465  0.00  0.00     0.028 H 
ATOM    101  H28 non d ame     -29.849  15.704  19.271  0.00  0.00     0.028 H 
ATOM    102  H29 non d ame     -30.752  14.263  19.794  0.00  0.00     0.028 H 
ENDBRANCH  93  99
ENDBRANCH  90  93
ENDBRANCH   1  90
TORSDOF 26
ENDMDL
MODEL 2
REMARK VINA RESULT:      -7.1      1.403      2.095
REMARK  26 active torsions:
REMARK  status: ('A' for Active; 'I' for Inactive)
REMARK    1  A    between atoms: C2_2  and  C3_3 
REMARK    2  A    between atoms: C4_6  and  C5_7 
REMARK       I    between atoms: C5_7  and  N2_9 
REMARK    3  A    between atoms: N2_9  and  C6_10 
REMARK    4  A    between atoms: C6_10  and  C7_11 
REMARK    5  A    between atoms: C6_10  and  C8_13 
REMARK       I    between atoms: C7_11  and  N3_14 
REMARK    6  A    between atoms: N3_14  and  C9_15 
REMARK    7  A    between atoms: C9_15  and  C10_16 
REMARK    8  A    between atoms: C9_15  and  C11_18 
REMARK       I    between atoms: C10_16  and  N4_21 
REMARK    9  A    between atoms: C11_18  and  C12_19 
REMARK   10  A    between atoms: C11_18  and  C13_20 
REMARK   11  A    between atoms: N4_21  and  C14_22 
REMARK   12  A    between atoms: C14_22  and  C15_23 
REMARK   13  A    between atoms: C14_22  and  C16_25 
REMARK       I    between atoms: C15_23  and  N6_40 
REMARK   14  A    between atoms: C16_25  and  C17_26 
REMARK   15  A    between atoms: C17_26  and  C18_27 
REMARK   16  A    between atoms: C17_26  and  C19_28 
REMARK   17  A    between atoms: C20_29  and  C21_30 
REMARK   18  A    between atoms: C20_29  and  C24_33 
REMARK   19  A    between atoms: C20_29  and  N6_40 
REMARK   20  A    between atoms: C21_30  and  C22_31 
REMARK   21  A    between atoms: C22_31  and  C23_32 
REMARK   22  A    between atoms: C23_32  and  O8_43 
REMARK   23  A    between atoms: C24_33  and  C25_34 
REMARK   24  A    between atoms: C28_38  and  O6_39 
REMARK   25  A    between atoms: C29_42  and  O8_43 
REMARK   26  A    between atoms: C29_42  and  C35_49 
ROOT
ATOM      1  C14 non d ame     -30.620  14.147  23.621  0.00  0.00     0.089 C 
ATOM      2  H20 non d ame     -29.532  14.095  23.567  0.00  0.00     0.087 H 
ENDROOT
BRANCH   1   3
ATOM      3  N4  non d ame     -31.108  12.810  23.920  0.00  0.00    -0.346 N 
ATOM      4  C10 non d ame     -30.531  11.611  23.211  0.00  0.00     0.241 C 
ATOM      5  O4  non d ame     -29.677  11.747  22.399  0.00  0.00    -0.271 OA
ATOM      6  H19 non d ame     -31.838  12.715  24.613  0.00  0.00     0.163 HD
BRANCH   4   7
ATOM      7  C9  non d ame     -31.045  10.233  23.538  0.00  0.00     0.092 C 
ATOM      8  H11 non d ame     -30.631   9.914  24.495  0.00  0.00     0.088 H 
BRANCH   7   9
ATOM      9  N3  non d ame     -32.502  10.278  23.689  0.00  0.00    -0.346 N 
ATOM     10  C7  non d ame     -33.101  10.033  24.978  0.00  0.00     0.240 C 
ATOM     11  O3  non d ame     -32.425   9.797  25.904  0.00  0.00    -0.271 OA
ATOM     12  H10 non d ame     -33.098  10.478  22.899  0.00  0.00     0.163 HD
BRANCH  10  13
ATOM     13  C6  non d ame     -34.653  10.078  25.132  0.00  0.00     0.086 C 
ATOM     14  H6  non d ame     -34.990   9.734  26.109  0.00  0.00     0.086 H 
BRANCH  13  15
ATOM     15  N2  non d ame     -35.099  11.455  25.000  0.00  0.00    -0.343 N 
ATOM     16  C5  non d ame     -35.978  12.030  26.022  0.00  0.00     0.273 C 
ATOM     17  O2  non d ame     -36.321  11.376  26.944  0.00  0.00    -0.266 OA
ATOM     18  H5  non d ame     -34.804  12.006  24.206  0.00  0.00     0.163 HD
BRANCH  16  19
ATOM     19  C4  non d ame     -36.456  13.485  25.896  0.00  0.00     0.154 A 
ATOM     20  C1  non d ame     -36.420  14.308  24.726  0.00  0.00    -0.017 A 
ATOM     21  C2  non d ame     -36.970  15.544  25.135  0.00  0.00     0.077 A 
ATOM     22  H1  non d ame     -36.051  14.050  23.734  0.00  0.00     0.091 H 
ATOM     23  O1  non d ame     -37.284  15.431  26.393  0.00  0.00    -0.218 OA
ATOM     24  N1  non d ame     -36.992  14.239  26.859  0.00  0.00    -0.123 NA
BRANCH  21  25
ATOM     25  C3  non d ame     -37.161  16.778  24.263  0.00  0.00    -0.029 C 
ATOM     26  H2  non d ame     -36.825  16.563  23.249  0.00  0.00     0.036 H 
ATOM     27  H3  non d ame     -38.217  17.050  24.245  0.00  0.00     0.036 H 
ATOM     28  H4  non d ame     -36.581  17.605  24.670  0.00  0.00     0.036 H 
ENDBRANCH  21  25
ENDBRANCH  16  19
ENDBRANCH  13  15
BRANCH  13  29
ATOM     29  C8  non d ame     -35.292   9.224  24.066  0.00  0.00    -0.049 C 
ATOM     30  H7  non d ame     -34.526   8.628  23.570  0.00  0.00     0.030 H 
ATOM     31  H8  non d ame     -36.028   8.562  24.524  0.00  0.00     0.030 H 
ATOM     32  H9  non d ame     -35.785   9.864  23.334  0.00  0.00     0.030 H 
ENDBRANCH  13  29
ENDBRANCH  10  13
ENDBRANCH   7   9
BRANCH   7  33
ATOM     33  C11 non d ame     -30.674   9.254  22.387  0.00  0.00    -0.033 C 
ATOM     34  H12 non d ame     -30.425   9.856  21.512  0.00  0.00     0.042 H 
BRANCH  33  35
ATOM     35  C12 non d ame     -29.416   8.404  22.745  0.00  0.00    -0.071 C 
ATOM     36  H13 non d ame     -29.260   8.422  23.823  0.00  0.00     0.028 H 
ATOM     37  H14 non d ame     -29.568   7.375  22.418  0.00  0.00     0.028 H 
ATOM     38  H15 non d ame     -28.542   8.819  22.244  0.00  0.00     0.028 H 
ENDBRANCH  33  35
BRANCH  33  39
ATOM     39  C13 non d ame     -31.888   8.343  22.015  0.00  0.00    -0.071 C 
ATOM     40  H16 non d ame     -31.614   7.694  21.183  0.00  0.00     0.028 H 
ATOM     41  H17 non d ame     -32.162   7.733  22.877  0.00  0.00     0.028 H 
ATOM     42  H18 non d ame     -32.735   8.964  21.728  0.00  0.00     0.028 H 
ENDBRANCH  33  39
ENDBRANCH   7  33
ENDBRANCH   4   7
ENDBRANCH   1   3
BRANCH   1  43
ATOM     43  C15 non d ame     -31.107  15.115  24.736  0.00  0.00     0.240 C 
ATOM     44  O5  non d ame     -31.044  16.290  24.569  0.00  0.00    -0.271 OA
ATOM     45  N6  non d ame     -31.662  14.577  26.011  0.00  0.00    -0.355 N 
ATOM     46  H46 non d ame     -31.726  13.580  26.162  0.00  0.00     0.162 HD
BRANCH  45  47
ATOM     47  C20 non d ame     -32.123  15.510  27.062  0.00  0.00     0.013 C 
ATOM     48  H30 non d ame     -31.564  16.439  26.954  0.00  0.00     0.072 H 
BRANCH  47  49
ATOM     49  C21 non d ame     -31.858  14.902  28.421  0.00  0.00    -0.038 C 
ATOM     50  H31 non d ame     -30.811  14.594  28.407  0.00  0.00     0.036 H 
ATOM     51  H32 non d ame     -32.199  15.641  29.145  0.00  0.00     0.036 H 
BRANCH  49  52
ATOM     52  C22 non d ame     -32.685  13.624  28.678  0.00  0.00     0.018 C 
ATOM     53  H33 non d ame     -33.123  13.750  29.667  0.00  0.00     0.048 H 
ATOM     54  H34 non d ame     -33.332  13.511  27.806  0.00  0.00     0.048 H 
BRANCH  52  55
ATOM     55  C23 non d ame     -31.831  12.329  28.748  0.00  0.00     0.259 C 
ATOM     56  O7  non d ame     -31.009  12.102  27.920  0.00  0.00    -0.265 OA
BRANCH  55  57
ATOM     57  O8  non d ame     -32.052  11.405  29.808  0.00  0.00    -0.317 OA
BRANCH  57  58
ATOM     58  C29 non d ame     -32.922  10.322  29.463  0.00  0.00     0.052 C 
ATOM     59  H47 non d ame     -33.518  10.679  28.624  0.00  0.00     0.082 H 
ATOM     60  H48 non d ame     -32.278   9.452  29.345  0.00  0.00     0.082 H 
BRANCH  58  61
ATOM     61  C35 non d ame     -33.871  10.070  30.666  0.00  0.00    -0.034 A 
ATOM     62  C30 non d ame     -34.466   8.823  30.833  0.00  0.00    -0.075 A 
ATOM     63  C31 non d ame     -35.319   8.596  31.913  0.00  0.00    -0.082 A 
ATOM     64  H49 non d ame     -34.264   8.024  30.120  0.00  0.00     0.084 H 
ATOM     65  C32 non d ame     -35.578   9.623  32.825  0.00  0.00    -0.083 A 
ATOM     66  H50 non d ame     -35.782   7.617  32.043  0.00  0.00     0.083 H 
ATOM     67  C33 non d ame     -34.985  10.866  32.652  0.00  0.00    -0.082 A 
ATOM     68  H51 non d ame     -36.243   9.453  33.672  0.00  0.00     0.083 H 
ATOM     69  C34 non d ame     -34.131  11.096  31.575  0.00  0.00    -0.075 A 
ATOM     70  H52 non d ame     -35.191  11.665  33.364  0.00  0.00     0.083 H 
ATOM     71  H53 non d ame     -33.668  12.075  31.447  0.00  0.00     0.084 H 
ENDBRANCH  58  61
ENDBRANCH  57  58
ENDBRANCH  55  57
ENDBRANCH  52  55
ENDBRANCH  49  52
ENDBRANCH  47  49
BRANCH  47  72
ATOM     72  C24 non d ame     -33.620  15.770  26.902  0.00  0.00    -0.039 C 
ATOM     73  H35 non d ame     -33.930  15.162  26.051  0.00  0.00     0.036 H 
ATOM     74  H36 non d ame     -34.052  15.589  27.886  0.00  0.00     0.036 H 
BRANCH  72  75
ATOM     75  C25 non d ame     -33.919  17.298  26.528  0.00  0.00    -0.001 C 
ATOM     76  C26 non d ame     -32.582  18.213  26.802  0.00  0.00    -0.035 C 
ATOM     77  C27 non d ame     -32.930  19.278  27.563  0.00  0.00     0.085 C 
ATOM     78  H38 non d ame     -31.878  17.669  27.430  0.00  0.00     0.036 H 
ATOM     79  H39 non d ame     -32.242  18.667  25.870  0.00  0.00     0.036 H 
ATOM     80  N5  non d ame     -34.310  18.999  28.107  0.00  0.00    -0.049 N 
ATOM     81  H40 non d ame     -32.218  19.290  28.390  0.00  0.00     0.075 H 
ATOM     82  H41 non d ame     -32.983  20.123  26.877  0.00  0.00     0.075 H 
ATOM     83  C28 non d ame     -34.891  17.771  27.235  0.00  0.00     0.193 C 
ATOM     84  H42 non d ame     -34.185  18.686  29.060  0.00  0.00     0.280 HD
ATOM     85  H43 non d ame     -34.864  19.821  27.915  0.00  0.00     0.280 HD
ATOM     86  H44 non d ame     -35.634  17.946  26.459  0.00  0.00     0.129 H 
ATOM     87  H37 non d ame     -34.399  17.399  25.554  0.00  0.00     0.046 H 
BRANCH  83  88
ATOM     88  O6  non d ame     -35.463  16.783  28.095  0.00  0.00    -0.369 OA
ATOM     89  H45 non d ame     -35.951  17.215  28.799  0.00  0.00     0.212 HD
ENDBRANCH  83  88
ENDBRANCH  72  75
ENDBRANCH  47  72
ENDBRANCH  45  47
ENDBRANCH   1  43
BRANCH   1  90
ATOM     90  C16 non d ame     -31.180  14.591  22.279  0.00  0.00    -0.035 C 
ATOM     91  H21 non d ame     -31.750  13.739  21.908  0.00  0.00     0.037 H 
ATOM     92  H22 non d ame     -31.682  15.538  22.474  0.00  0.00     0.037 H 
BRANCH  90  93
ATOM     93  C17 non d ame     -30.083  14.885  21.207  0.00  0.00    -0.059 C 
ATOM     94  H23 non d ame     -29.822  13.940  20.731  0.00  0.00     0.038 H 
BRANCH  93  95
ATOM     95  C18 non d ame     -30.592  15.855  20.094  0.00  0.00    -0.073 C 
ATOM     96  H24 non d ame     -30.074  16.810  20.178  0.00  0.00     0.028 H 
ATOM     97  H25 non d ame     -30.392  15.421  19.114  0.00  0.00     0.028 H 
ATOM     98  H26 non d ame     -31.664  16.012  20.210  0.00  0.00     0.028 H 
ENDBRANCH  93  95
BRANCH  93  99
ATOM     99  C19 non d ame     -28.811  15.429  21.863  0.00  0.00    -0.073 C 
ATOM    100  H27 non d ame     -28.707  15.005  22.862  0.00  0.00     0.028 H 
ATOM    101  H28 non d ame     -27.945  15.154  21.261  0.00  0.00     0.028 H 
ATOM    102  H29 non d ame     -28.874  16.515  21.933  0.00  0.00     0.028 H 
ENDBRANCH  93  99
ENDBRANCH  90  93
ENDBRANCH   1  90
TORSDOF 26
ENDMDL
MODEL 3
REMARK VINA RESULT:      -7.0      1.779      2.686
REMARK  26 active torsions:
REMARK  status: ('A' for Active; 'I' for Inactive)
REMARK    1  A    between atoms: C2_2  and  C3_3 
REMARK    2  A    between atoms: C4_6  and  C5_7 
REMARK       I    between atoms: C5_7  and  N2_9 
REMARK    3  A    between atoms: N2_9  and  C6_10 
REMARK    4  A    between atoms: C6_10  and  C7_11 
REMARK    5  A    between atoms: C6_10  and  C8_13 
REMARK       I    between atoms: C7_11  and  N3_14 
REMARK    6  A    between atoms: N3_14  and  C9_15 
REMARK    7  A    between atoms: C9_15  and  C10_16 
REMARK    8  A    between atoms: C9_15  and  C11_18 
REMARK       I    between atoms: C10_16  and  N4_21 
REMARK    9  A    between atoms: C11_18  and  C12_19 
REMARK   10  A    between atoms: C11_18  and  C13_20 
REMARK   11  A    between atoms: N4_21  and  C14_22 
REMARK   12  A    between atoms: C14_22  and  C15_23 
REMARK   13  A    between atoms: C14_22  and  C16_25 
REMARK       I    between atoms: C15_23  and  N6_40 
REMARK   14  A    between atoms: C16_25  and  C17_26 
REMARK   15  A    between atoms: C17_26  and  C18_27 
REMARK   16  A    between atoms: C17_26  and  C19_28 
REMARK   17  A    between atoms: C20_29  and  C21_30 
REMARK   18  A    between atoms: C20_29  and  C24_33 
REMARK   19  A    between atoms: C20_29  and  N6_40 
REMARK   20  A    between atoms: C21_30  and  C22_31 
REMARK   21  A    between atoms: C22_31  and  C23_32 
REMARK   22  A    between atoms: C23_32  and  O8_43 
REMARK   23  A    between atoms: C24_33  and  C25_34 
REMARK   24  A    between atoms: C28_38  and  O6_39 
REMARK   25  A    between atoms: C29_42  and  O8_43 
REMARK   26  A    between atoms: C29_42  and  C35_49 
ROOT
ATOM      1  C14 non d ame     -31.120  14.159  24.505  0.00  0.00     0.089 C 
ATOM      2  H20 non d ame     -30.121  13.744  24.645  0.00  0.00     0.087 H 
ENDROOT
BRANCH   1   3
ATOM      3  N4  non d ame     -32.073  13.072  24.676  0.00  0.00    -0.346 N 
ATOM      4  C10 non d ame     -31.855  12.028  25.741  0.00  0.00     0.241 C 
ATOM      5  O4  non d ame     -30.903  12.080  26.447  0.00  0.00    -0.271 OA
ATOM      6  H19 non d ame     -32.876  13.044  24.063  0.00  0.00     0.163 HD
BRANCH   4   7
ATOM      7  C9  non d ame     -32.855  10.914  25.908  0.00  0.00     0.092 C 
ATOM      8  H11 non d ame     -33.059  10.770  26.969  0.00  0.00     0.088 H 
BRANCH   7   9
ATOM      9  N3  non d ame     -34.118  11.292  25.270  0.00  0.00    -0.346 N 
ATOM     10  C7  non d ame     -35.368  11.058  25.952  0.00  0.00     0.240 C 
ATOM     11  O3  non d ame     -35.374  10.565  27.013  0.00  0.00    -0.271 OA
ATOM     12  H10 non d ame     -34.129  11.716  24.354  0.00  0.00     0.163 HD
BRANCH  10  13
ATOM     13  C6  non d ame     -36.711  11.460  25.266  0.00  0.00     0.086 C 
ATOM     14  H6  non d ame     -37.585  11.156  25.842  0.00  0.00     0.086 H 
BRANCH  13  15
ATOM     15  N2  non d ame     -36.769  12.909  25.157  0.00  0.00    -0.343 N 
ATOM     16  C5  non d ame     -37.352  13.692  26.249  0.00  0.00     0.273 C 
ATOM     17  O2  non d ame     -37.774  13.148  27.209  0.00  0.00    -0.266 OA
ATOM     18  H5  non d ame     -36.409  13.365  24.331  0.00  0.00     0.163 HD
BRANCH  16  19
ATOM     19  C4  non d ame     -37.418  15.223  26.146  0.00  0.00     0.154 A 
ATOM     20  C1  non d ame     -37.128  16.027  24.999  0.00  0.00    -0.017 A 
ATOM     21  C2  non d ame     -37.337  17.358  25.424  0.00  0.00     0.077 A 
ATOM     22  H1  non d ame     -36.812  15.696  24.010  0.00  0.00     0.091 H 
ATOM     23  O1  non d ame     -37.708  17.312  26.671  0.00  0.00    -0.218 OA
ATOM     24  N1  non d ame     -37.761  16.078  27.114  0.00  0.00    -0.123 NA
BRANCH  21  25
ATOM     25  C3  non d ame     -37.164  18.613  24.578  0.00  0.00    -0.029 C 
ATOM     26  H2  non d ame     -36.885  18.331  23.563  0.00  0.00     0.036 H 
ATOM     27  H3  non d ame     -38.102  19.168  24.555  0.00  0.00     0.036 H 
ATOM     28  H4  non d ame     -36.383  19.237  25.009  0.00  0.00     0.036 H 
ENDBRANCH  21  25
ENDBRANCH  16  19
ENDBRANCH  13  15
BRANCH  13  29
ATOM     29  C8  non d ame     -36.786  10.835  23.896  0.00  0.00    -0.049 C 
ATOM     30  H7  non d ame     -36.255  11.462  23.181  0.00  0.00     0.030 H 
ATOM     31  H8  non d ame     -36.328   9.846  23.923  0.00  0.00     0.030 H 
ATOM     32  H9  non d ame     -37.830  10.744  23.595  0.00  0.00     0.030 H 
ENDBRANCH  13  29
ENDBRANCH  10  13
ENDBRANCH   7   9
BRANCH   7  33
ATOM     33  C11 non d ame     -32.305   9.620  25.238  0.00  0.00    -0.033 C 
ATOM     34  H12 non d ame     -31.216   9.677  25.259  0.00  0.00     0.042 H 
BRANCH  33  35
ATOM     35  C12 non d ame     -32.724   8.345  26.035  0.00  0.00    -0.071 C 
ATOM     36  H13 non d ame     -32.398   7.456  25.495  0.00  0.00     0.028 H 
ATOM     37  H14 non d ame     -32.259   8.363  27.019  0.00  0.00     0.028 H 
ATOM     38  H15 non d ame     -33.808   8.325  26.145  0.00  0.00     0.028 H 
ENDBRANCH  33  35
BRANCH  33  39
ATOM     39  C13 non d ame     -32.755   9.529  23.745  0.00  0.00    -0.071 C 
ATOM     40  H16 non d ame     -32.750   8.486  23.426  0.00  0.00     0.028 H 
ATOM     41  H17 non d ame     -33.762   9.935  23.643  0.00  0.00     0.028 H 
ATOM     42  H18 non d ame     -32.069  10.102  23.123  0.00  0.00     0.028 H 
ENDBRANCH  33  39
ENDBRANCH   7  33
ENDBRANCH   4   7
ENDBRANCH   1   3
BRANCH   1  43
ATOM     43  C15 non d ame     -31.445  15.271  25.542  0.00  0.00     0.240 C 
ATOM     44  O5  non d ame     -31.056  16.379  25.361  0.00  0.00    -0.271 OA
ATOM     45  N6  non d ame     -32.251  14.957  26.755  0.00  0.00    -0.355 N 
ATOM     46  H46 non d ame     -32.593  14.020  26.916  0.00  0.00     0.162 HD
BRANCH  45  47
ATOM     47  C20 non d ame     -32.555  16.027  27.732  0.00  0.00     0.013 C 
ATOM     48  H30 non d ame     -31.852  16.843  27.563  0.00  0.00     0.072 H 
BRANCH  47  49
ATOM     49  C21 non d ame     -32.391  15.484  29.133  0.00  0.00    -0.038 C 
ATOM     50  H31 non d ame     -32.071  16.332  29.742  0.00  0.00     0.036 H 
ATOM     51  H32 non d ame     -33.325  14.972  29.361  0.00  0.00     0.036 H 
BRANCH  49  52
ATOM     52  C22 non d ame     -31.274  14.425  29.240  0.00  0.00     0.018 C 
ATOM     53  H33 non d ame     -31.089  14.087  28.221  0.00  0.00     0.048 H 
ATOM     54  H34 non d ame     -30.473  14.898  29.811  0.00  0.00     0.048 H 
BRANCH  52  55
ATOM     55  C23 non d ame     -31.683  13.160  30.044  0.00  0.00     0.259 C 
ATOM     56  O7  non d ame     -31.041  12.805  30.979  0.00  0.00    -0.265 OA
BRANCH  55  57
ATOM     57  O8  non d ame     -32.830  12.420  29.641  0.00  0.00    -0.317 OA
BRANCH  57  58
ATOM     58  C29 non d ame     -32.664  11.001  29.725  0.00  0.00     0.052 C 
ATOM     59  H47 non d ame     -32.886  10.619  28.729  0.00  0.00     0.082 H 
ATOM     60  H48 non d ame     -31.678  10.844  30.162  0.00  0.00     0.082 H 
BRANCH  58  61
ATOM     61  C35 non d ame     -33.730  10.451  30.711  0.00  0.00    -0.034 A 
ATOM     62  C30 non d ame     -34.134  11.219  31.798  0.00  0.00    -0.075 A 
ATOM     63  C31 non d ame     -35.092  10.726  32.683  0.00  0.00    -0.082 A 
ATOM     64  H49 non d ame     -33.702  12.207  31.957  0.00  0.00     0.084 H 
ATOM     65  C32 non d ame     -35.643   9.458  32.479  0.00  0.00    -0.083 A 
ATOM     66  H50 non d ame     -35.408  11.331  33.534  0.00  0.00     0.083 H 
ATOM     67  C33 non d ame     -35.234   8.694  31.395  0.00  0.00    -0.082 A 
ATOM     68  H51 non d ame     -36.393   9.065  33.167  0.00  0.00     0.083 H 
ATOM     69  C34 non d ame     -34.279   9.184  30.506  0.00  0.00    -0.075 A 
ATOM     70  H52 non d ame     -35.664   7.704  31.239  0.00  0.00     0.083 H 
ATOM     71  H53 non d ame     -33.964   8.579  29.656  0.00  0.00     0.084 H 
ENDBRANCH  58  61
ENDBRANCH  57  58
ENDBRANCH  55  57
ENDBRANCH  52  55
ENDBRANCH  49  52
ENDBRANCH  47  49
BRANCH  47  72
ATOM     72  C24 non d ame     -33.989  16.513  27.537  0.00  0.00    -0.039 C 
ATOM     73  H35 non d ame     -34.405  15.880  26.752  0.00  0.00     0.036 H 
ATOM     74  H36 non d ame     -34.434  16.511  28.531  0.00  0.00     0.036 H 
BRANCH  72  75
ATOM     75  C25 non d ame     -34.035  18.023  27.002  0.00  0.00    -0.001 C 
ATOM     76  C26 non d ame     -32.555  18.719  27.165  0.00  0.00    -0.035 C 
ATOM     77  C27 non d ame     -32.698  19.902  27.811  0.00  0.00     0.085 C 
ATOM     78  H38 non d ame     -31.937  18.131  27.843  0.00  0.00     0.036 H 
ATOM     79  H39 non d ame     -32.169  19.009  26.188  0.00  0.00     0.036 H 
ATOM     80  N5  non d ame     -34.091  19.921  28.393  0.00  0.00    -0.049 N 
ATOM     81  H40 non d ame     -31.973  19.878  28.626  0.00  0.00     0.075 H 
ATOM     82  H41 non d ame     -32.625  20.667  27.039  0.00  0.00     0.075 H 
ATOM     83  C28 non d ame     -34.894  18.727  27.663  0.00  0.00     0.193 C 
ATOM     84  H42 non d ame     -33.996  19.693  29.372  0.00  0.00     0.280 HD
ATOM     85  H43 non d ame     -34.503  20.802  28.118  0.00  0.00     0.280 HD
ATOM     86  H44 non d ame     -35.617  18.944  26.878  0.00  0.00     0.129 H 
ATOM     87  H37 non d ame     -34.516  18.101  26.027  0.00  0.00     0.046 H 
BRANCH  83  88
ATOM     88  O6  non d ame     -35.602  17.946  28.628  0.00  0.00    -0.369 OA
ATOM     89  H45 non d ame     -35.682  18.443  29.445  0.00  0.00     0.212 HD
ENDBRANCH  83  88
ENDBRANCH  72  75
ENDBRANCH  47  72
ENDBRANCH  45  47
ENDBRANCH   1  43
BRANCH   1  90
ATOM     90  C16 non d ame     -31.252  14.717  23.097  0.00  0.00    -0.035 C 
ATOM     91  H21 non d ame     -31.811  13.966  22.539  0.00  0.00     0.037 H 
ATOM     92  H22 non d ame     -31.662  15.719  23.221  0.00  0.00     0.037 H 
BRANCH  90  93
ATOM     93  C17 non d ame     -29.886  14.887  22.359  0.00  0.00    -0.059 C 
ATOM     94  H23 non d ame     -29.204  15.397  23.038  0.00  0.00     0.038 H 
BRANCH  93  95
ATOM     95  C18 non d ame     -29.246  13.514  21.981  0.00  0.00    -0.073 C 
ATOM     96  H24 non d ame     -28.160  13.604  21.989  0.00  0.00     0.028 H 
ATOM     97  H25 non d ame     -29.551  12.759  22.706  0.00  0.00     0.028 H 
ATOM     98  H26 non d ame     -29.579  13.218  20.987  0.00  0.00     0.028 H 
ENDBRANCH  93  95
BRANCH  93  99
ATOM     99  C19 non d ame     -30.041  15.774  21.120  0.00  0.00    -0.073 C 
ATOM    100  H27 non d ame     -30.584  16.682  21.388  0.00  0.00     0.028 H 
ATOM    101  H28 non d ame     -29.055  16.042  20.739  0.00  0.00     0.028 H 
ATOM    102  H29 non d ame     -30.593  15.234  20.352  0.00  0.00     0.028 H 
ENDBRANCH  93  99
ENDBRANCH  90  93
ENDBRANCH   1  90
TORSDOF 26
ENDMDL
MODEL 4
REMARK VINA RESULT:      -6.9      2.171      4.976
REMARK  26 active torsions:
REMARK  status: ('A' for Active; 'I' for Inactive)
REMARK    1  A    between atoms: C2_2  and  C3_3 
REMARK    2  A    between atoms: C4_6  and  C5_7 
REMARK       I    between atoms: C5_7  and  N2_9 
REMARK    3  A    between atoms: N2_9  and  C6_10 
REMARK    4  A    between atoms: C6_10  and  C7_11 
REMARK    5  A    between atoms: C6_10  and  C8_13 
REMARK       I    between atoms: C7_11  and  N3_14 
REMARK    6  A    between atoms: N3_14  and  C9_15 
REMARK    7  A    between atoms: C9_15  and  C10_16 
REMARK    8  A    between atoms: C9_15  and  C11_18 
REMARK       I    between atoms: C10_16  and  N4_21 
REMARK    9  A    between atoms: C11_18  and  C12_19 
REMARK   10  A    between atoms: C11_18  and  C13_20 
REMARK   11  A    between atoms: N4_21  and  C14_22 
REMARK   12  A    between atoms: C14_22  and  C15_23 
REMARK   13  A    between atoms: C14_22  and  C16_25 
REMARK       I    between atoms: C15_23  and  N6_40 
REMARK   14  A    between atoms: C16_25  and  C17_26 
REMARK   15  A    between atoms: C17_26  and  C18_27 
REMARK   16  A    between atoms: C17_26  and  C19_28 
REMARK   17  A    between atoms: C20_29  and  C21_30 
REMARK   18  A    between atoms: C20_29  and  C24_33 
REMARK   19  A    between atoms: C20_29  and  N6_40 
REMARK   20  A    between atoms: C21_30  and  C22_31 
REMARK   21  A    between atoms: C22_31  and  C23_32 
REMARK   22  A    between atoms: C23_32  and  O8_43 
REMARK   23  A    between atoms: C24_33  and  C25_34 
REMARK   24  A    between atoms: C28_38  and  O6_39 
REMARK   25  A    between atoms: C29_42  and  O8_43 
REMARK   26  A    between atoms: C29_42  and  C35_49 
ROOT
ATOM      1  C14 non d ame     -30.956  14.292  23.898  0.00  0.00     0.089 C 
ATOM      2  H20 non d ame     -29.927  14.542  24.160  0.00  0.00     0.087 H 
ENDROOT
BRANCH   1   3
ATOM      3  N4  non d ame     -31.154  12.883  24.200  0.00  0.00    -0.346 N 
ATOM      4  C10 non d ame     -30.466  11.823  23.376  0.00  0.00     0.241 C 
ATOM      5  O4  non d ame     -29.761  12.129  22.473  0.00  0.00    -0.271 OA
ATOM      6  H19 non d ame     -31.760  12.643  24.972  0.00  0.00     0.163 HD
BRANCH   4   7
ATOM      7  C9  non d ame     -30.678  10.369  23.707  0.00  0.00     0.092 C 
ATOM      8  H11 non d ame     -30.022  10.089  24.532  0.00  0.00     0.088 H 
BRANCH   7   9
ATOM      9  N3  non d ame     -32.057  10.166  24.161  0.00  0.00    -0.346 N 
ATOM     10  C7  non d ame     -32.365  10.207  25.570  0.00  0.00     0.240 C 
ATOM     11  O3  non d ame     -31.515  10.401  26.351  0.00  0.00    -0.271 OA
ATOM     12  H10 non d ame     -32.800   9.997  23.500  0.00  0.00     0.163 HD
BRANCH  10  13
ATOM     13  C6  non d ame     -33.834   9.988  26.048  0.00  0.00     0.086 C 
ATOM     14  H6  non d ame     -34.232   9.016  25.755  0.00  0.00     0.086 H 
BRANCH  13  15
ATOM     15  N2  non d ame     -33.868  10.030  27.500  0.00  0.00    -0.343 N 
ATOM     16  C5  non d ame     -34.733   9.099  28.229  0.00  0.00     0.273 C 
ATOM     17  O2  non d ame     -35.399   8.323  27.637  0.00  0.00    -0.266 OA
ATOM     18  H5  non d ame     -33.298  10.699  27.998  0.00  0.00     0.163 HD
BRANCH  16  19
ATOM     19  C4  non d ame     -34.777   9.131  29.764  0.00  0.00     0.154 A 
ATOM     20  C1  non d ame     -35.084  10.253  30.597  0.00  0.00    -0.017 A 
ATOM     21  C2  non d ame     -34.990   9.762  31.919  0.00  0.00     0.077 A 
ATOM     22  H1  non d ame     -35.336  11.268  30.291  0.00  0.00     0.091 H 
ATOM     23  O1  non d ame     -34.668   8.503  31.842  0.00  0.00    -0.218 OA
ATOM     24  N1  non d ame     -34.538   8.113  30.595  0.00  0.00    -0.123 NA
BRANCH  21  25
ATOM     25  C3  non d ame     -35.223  10.558  33.196  0.00  0.00    -0.029 C 
ATOM     26  H2  non d ame     -36.271  10.852  33.255  0.00  0.00     0.036 H 
ATOM     27  H3  non d ame     -34.970   9.943  34.059  0.00  0.00     0.036 H 
ATOM     28  H4  non d ame     -34.596  11.449  33.188  0.00  0.00     0.036 H 
ENDBRANCH  21  25
ENDBRANCH  16  19
ENDBRANCH  13  15
BRANCH  13  29
ATOM     29  C8  non d ame     -34.717  11.070  25.479  0.00  0.00    -0.049 C 
ATOM     30  H7  non d ame     -35.464  10.623  24.824  0.00  0.00     0.030 H 
ATOM     31  H8  non d ame     -35.218  11.594  26.294  0.00  0.00     0.030 H 
ATOM     32  H9  non d ame     -34.110  11.774  24.912  0.00  0.00     0.030 H 
ENDBRANCH  13  29
ENDBRANCH  10  13
ENDBRANCH   7   9
BRANCH   7  33
ATOM     33  C11 non d ame     -30.420   9.506  22.438  0.00  0.00    -0.033 C 
ATOM     34  H12 non d ame     -30.301  10.188  21.596  0.00  0.00     0.042 H 
BRANCH  33  35
ATOM     35  C12 non d ame     -29.101   8.683  22.567  0.00  0.00    -0.071 C 
ATOM     36  H13 non d ame     -29.060   7.935  21.775  0.00  0.00     0.028 H 
ATOM     37  H14 non d ame     -28.246   9.353  22.479  0.00  0.00     0.028 H 
ATOM     38  H15 non d ame     -29.075   8.186  23.537  0.00  0.00     0.028 H 
ENDBRANCH  33  35
BRANCH  33  39
ATOM     39  C13 non d ame     -31.640   8.576  22.137  0.00  0.00    -0.071 C 
ATOM     40  H16 non d ame     -32.360   8.644  22.953  0.00  0.00     0.028 H 
ATOM     41  H17 non d ame     -32.115   8.889  21.206  0.00  0.00     0.028 H 
ATOM     42  H18 non d ame     -31.297   7.547  22.039  0.00  0.00     0.028 H 
ENDBRANCH  33  39
ENDBRANCH   7  33
ENDBRANCH   4   7
ENDBRANCH   1   3
BRANCH   1  43
ATOM     43  C15 non d ame     -31.988  15.123  24.712  0.00  0.00     0.240 C 
ATOM     44  O5  non d ame     -32.986  15.502  24.189  0.00  0.00    -0.271 OA
ATOM     45  N6  non d ame     -31.738  15.439  26.147  0.00  0.00    -0.355 N 
ATOM     46  H46 non d ame     -30.896  15.118  26.603  0.00  0.00     0.162 HD
BRANCH  45  47
ATOM     47  C20 non d ame     -32.731  16.229  26.908  0.00  0.00     0.013 C 
ATOM     48  H30 non d ame     -33.716  16.017  26.494  0.00  0.00     0.072 H 
BRANCH  47  49
ATOM     49  C21 non d ame     -32.415  17.701  26.764  0.00  0.00    -0.038 C 
ATOM     50  H31 non d ame     -31.341  17.755  26.578  0.00  0.00     0.036 H 
ATOM     51  H32 non d ame     -33.116  18.081  26.022  0.00  0.00     0.036 H 
BRANCH  49  52
ATOM     52  C22 non d ame     -32.674  18.499  28.060  0.00  0.00     0.018 C 
ATOM     53  H33 non d ame     -33.152  17.802  28.746  0.00  0.00     0.048 H 
ATOM     54  H34 non d ame     -31.716  18.952  28.323  0.00  0.00     0.048 H 
BRANCH  52  55
ATOM     55  C23 non d ame     -33.670  19.678  27.881  0.00  0.00     0.259 C 
ATOM     56  O7  non d ame     -33.390  20.606  27.194  0.00  0.00    -0.265 OA
BRANCH  55  57
ATOM     57  O8  non d ame     -34.919  19.644  28.561  0.00  0.00    -0.317 OA
BRANCH  57  58
ATOM     58  C29 non d ame     -36.055  19.657  27.691  0.00  0.00     0.052 C 
ATOM     59  H47 non d ame     -36.923  19.767  28.341  0.00  0.00     0.082 H 
ATOM     60  H48 non d ame     -35.840  20.412  26.935  0.00  0.00     0.082 H 
BRANCH  58  61
ATOM     61  C35 non d ame     -36.139  18.273  26.992  0.00  0.00    -0.034 A 
ATOM     62  C30 non d ame     -36.275  17.116  27.752  0.00  0.00    -0.075 A 
ATOM     63  C31 non d ame     -36.349  15.873  27.124  0.00  0.00    -0.082 A 
ATOM     64  H49 non d ame     -36.322  17.182  28.839  0.00  0.00     0.084 H 
ATOM     65  C32 non d ame     -36.285  15.790  25.730  0.00  0.00    -0.083 A 
ATOM     66  H50 non d ame     -36.457  14.968  27.722  0.00  0.00     0.083 H 
ATOM     67  C33 non d ame     -36.146  16.948  24.976  0.00  0.00    -0.082 A 
ATOM     68  H51 non d ame     -36.344  14.823  25.232  0.00  0.00     0.083 H 
ATOM     69  C34 non d ame     -36.073  18.192  25.600  0.00  0.00    -0.075 A 
ATOM     70  H52 non d ame     -36.095  16.880  23.889  0.00  0.00     0.083 H 
ATOM     71  H53 non d ame     -35.966  19.096  25.000  0.00  0.00     0.084 H 
ENDBRANCH  58  61
ENDBRANCH  57  58
ENDBRANCH  55  57
ENDBRANCH  52  55
ENDBRANCH  49  52
ENDBRANCH  47  49
BRANCH  47  72
ATOM     72  C24 non d ame     -32.680  15.838  28.384  0.00  0.00    -0.039 C 
ATOM     73  H35 non d ame     -32.403  16.750  28.915  0.00  0.00     0.036 H 
ATOM     74  H36 non d ame     -33.636  15.358  28.589  0.00  0.00     0.036 H 
BRANCH  72  75
ATOM     75  C25 non d ame     -31.536  14.755  28.671  0.00  0.00    -0.001 C 
ATOM     76  C26 non d ame     -32.204  13.260  28.814  0.00  0.00    -0.035 C 
ATOM     77  C27 non d ame     -31.765  12.694  29.964  0.00  0.00     0.085 C 
ATOM     78  H38 non d ame     -33.280  13.344  28.965  0.00  0.00     0.036 H 
ATOM     79  H39 non d ame     -31.811  12.600  28.040  0.00  0.00     0.036 H 
ATOM     80  N5  non d ame     -31.123  13.790  30.778  0.00  0.00    -0.049 N 
ATOM     81  H40 non d ame     -32.663  12.348  30.479  0.00  0.00     0.075 H 
ATOM     82  H41 non d ame     -31.000  11.979  29.663  0.00  0.00     0.075 H 
ATOM     83  C28 non d ame     -30.900  15.025  29.763  0.00  0.00     0.193 C 
ATOM     84  H42 non d ame     -31.800  14.064  31.475  0.00  0.00     0.280 HD
ATOM     85  H43 non d ame     -30.218  13.441  31.063  0.00  0.00     0.280 HD
ATOM     86  H44 non d ame     -29.910  15.245  29.366  0.00  0.00     0.129 H 
ATOM     87  H37 non d ame     -30.689  14.858  27.993  0.00  0.00     0.046 H 
BRANCH  83  88
ATOM     88  O6  non d ame     -31.350  16.242  30.362  0.00  0.00    -0.369 OA
ATOM     89  H45 non d ame     -32.059  16.052  30.980  0.00  0.00     0.212 HD
ENDBRANCH  83  88
ENDBRANCH  72  75
ENDBRANCH  47  72
ENDBRANCH  45  47
ENDBRANCH   1  43
BRANCH   1  90
ATOM     90  C16 non d ame     -31.177  14.517  22.411  0.00  0.00    -0.035 C 
ATOM     91  H21 non d ame     -30.890  13.581  21.932  0.00  0.00     0.037 H 
ATOM     92  H22 non d ame     -32.200  14.881  22.323  0.00  0.00     0.037 H 
BRANCH  90  93
ATOM     93  C17 non d ame     -30.260  15.623  21.800  0.00  0.00    -0.059 C 
ATOM     94  H23 non d ame     -30.561  16.578  22.231  0.00  0.00     0.038 H 
BRANCH  93  95
ATOM     95  C18 non d ame     -28.754  15.397  22.146  0.00  0.00    -0.073 C 
ATOM     96  H24 non d ame     -28.592  15.581  23.208  0.00  0.00     0.028 H 
ATOM     97  H25 non d ame     -28.478  14.368  21.912  0.00  0.00     0.028 H 
ATOM     98  H26 non d ame     -28.139  16.079  21.561  0.00  0.00     0.028 H 
ENDBRANCH  93  95
BRANCH  93  99
ATOM     99  C19 non d ame     -30.461  15.725  20.286  0.00  0.00    -0.073 C 
ATOM    100  H27 non d ame     -31.395  15.235  20.009  0.00  0.00     0.028 H 
ATOM    101  H28 non d ame     -30.502  16.775  19.994  0.00  0.00     0.028 H 
ATOM    102  H29 non d ame     -29.630  15.239  19.775  0.00  0.00     0.028 H 
ENDBRANCH  93  99
ENDBRANCH  90  93
ENDBRANCH   1  90
TORSDOF 26
ENDMDL
MODEL 5
REMARK VINA RESULT:      -6.9      3.666      6.372
REMARK  26 active torsions:
REMARK  status: ('A' for Active; 'I' for Inactive)
REMARK    1  A    between atoms: C2_2  and  C3_3 
REMARK    2  A    between atoms: C4_6  and  C5_7 
REMARK       I    between atoms: C5_7  and  N2_9 
REMARK    3  A    between atoms: N2_9  and  C6_10 
REMARK    4  A    between atoms: C6_10  and  C7_11 
REMARK    5  A    between atoms: C6_10  and  C8_13 
REMARK       I    between atoms: C7_11  and  N3_14 
REMARK    6  A    between atoms: N3_14  and  C9_15 
REMARK    7  A    between atoms: C9_15  and  C10_16 
REMARK    8  A    between atoms: C9_15  and  C11_18 
REMARK       I    between atoms: C10_16  and  N4_21 
REMARK    9  A    between atoms: C11_18  and  C12_19 
REMARK   10  A    between atoms: C11_18  and  C13_20 
REMARK   11  A    between atoms: N4_21  and  C14_22 
REMARK   12  A    between atoms: C14_22  and  C15_23 
REMARK   13  A    between atoms: C14_22  and  C16_25 
REMARK       I    between atoms: C15_23  and  N6_40 
REMARK   14  A    between atoms: C16_25  and  C17_26 
REMARK   15  A    between atoms: C17_26  and  C18_27 
REMARK   16  A    between atoms: C17_26  and  C19_28 
REMARK   17  A    between atoms: C20_29  and  C21_30 
REMARK   18  A    between atoms: C20_29  and  C24_33 
REMARK   19  A    between atoms: C20_29  and  N6_40 
REMARK   20  A    between atoms: C21_30  and  C22_31 
REMARK   21  A    between atoms: C22_31  and  C23_32 
REMARK   22  A    between atoms: C23_32  and  O8_43 
REMARK   23  A    between atoms: C24_33  and  C25_34 
REMARK   24  A    between atoms: C28_38  and  O6_39 
REMARK   25  A    between atoms: C29_42  and  O8_43 
REMARK   26  A    between atoms: C29_42  and  C35_49 
ROOT
ATOM      1  C14 non d ame     -32.967  10.390  25.607  0.00  0.00     0.089 C 
ATOM      2  H20 non d ame     -33.663  10.470  24.771  0.00  0.00     0.087 H 
ENDROOT
BRANCH   1   3
ATOM      3  N4  non d ame     -32.391   9.054  25.571  0.00  0.00    -0.346 N 
ATOM      4  C10 non d ame     -33.083   7.945  24.818  0.00  0.00     0.241 C 
ATOM      5  O4  non d ame     -34.105   8.151  24.253  0.00  0.00    -0.271 OA
ATOM      6  H19 non d ame     -31.521   8.900  26.060  0.00  0.00     0.163 HD
BRANCH   4   7
ATOM      7  C9  non d ame     -32.468   6.571  24.787  0.00  0.00     0.092 C 
ATOM      8  H11 non d ame     -31.407   6.647  25.027  0.00  0.00     0.088 H 
BRANCH   7   9
ATOM      9  N3  non d ame     -33.088   5.734  25.817  0.00  0.00    -0.346 N 
ATOM     10  C7  non d ame     -32.659   5.845  27.190  0.00  0.00     0.240 C 
ATOM     11  O3  non d ame     -31.816   6.602  27.482  0.00  0.00    -0.271 OA
ATOM     12  H10 non d ame     -33.815   5.075  25.581  0.00  0.00     0.163 HD
BRANCH  10  13
ATOM     13  C6  non d ame     -33.321   4.949  28.283  0.00  0.00     0.086 C 
ATOM     14  H6  non d ame     -32.692   4.826  29.165  0.00  0.00     0.086 H 
BRANCH  13  15
ATOM     15  N2  non d ame     -34.548   5.584  28.733  0.00  0.00    -0.343 N 
ATOM     16  C5  non d ame     -34.913   5.525  30.151  0.00  0.00     0.273 C 
ATOM     17  O2  non d ame     -34.214   4.962  30.919  0.00  0.00    -0.266 OA
ATOM     18  H5  non d ame     -35.142   6.059  28.069  0.00  0.00     0.163 HD
BRANCH  16  19
ATOM     19  C4  non d ame     -36.207   6.193  30.641  0.00  0.00     0.154 A 
ATOM     20  C1  non d ame     -36.483   7.596  30.710  0.00  0.00    -0.017 A 
ATOM     21  C2  non d ame     -37.797   7.683  31.224  0.00  0.00     0.077 A 
ATOM     22  H1  non d ame     -35.831   8.423  30.431  0.00  0.00     0.091 H 
ATOM     23  O1  non d ame     -38.217   6.467  31.421  0.00  0.00    -0.218 OA
ATOM     24  N1  non d ame     -37.306   5.581  31.089  0.00  0.00    -0.123 NA
BRANCH  21  25
ATOM     25  C3  non d ame     -38.576   8.963  31.495  0.00  0.00    -0.029 C 
ATOM     26  H2  non d ame     -37.896   9.814  31.470  0.00  0.00     0.036 H 
ATOM     27  H3  non d ame     -39.343   9.090  30.731  0.00  0.00     0.036 H 
ATOM     28  H4  non d ame     -39.045   8.902  32.476  0.00  0.00     0.036 H 
ENDBRANCH  21  25
ENDBRANCH  16  19
ENDBRANCH  13  15
BRANCH  13  29
ATOM     29  C8  non d ame     -33.625   3.589  27.706  0.00  0.00    -0.049 C 
ATOM     30  H7  non d ame     -32.822   3.292  27.032  0.00  0.00     0.030 H 
ATOM     31  H8  non d ame     -33.707   2.862  28.514  0.00  0.00     0.030 H 
ATOM     32  H9  non d ame     -34.565   3.630  27.156  0.00  0.00     0.030 H 
ENDBRANCH  13  29
ENDBRANCH  10  13
ENDBRANCH   7   9
BRANCH   7  33
ATOM     33  C11 non d ame     -32.705   5.929  23.389  0.00  0.00    -0.033 C 
ATOM     34  H12 non d ame     -33.555   6.439  22.933  0.00  0.00     0.042 H 
BRANCH  33  35
ATOM     35  C12 non d ame     -31.476   6.137  22.450  0.00  0.00    -0.071 C 
ATOM     36  H13 non d ame     -30.877   5.227  22.428  0.00  0.00     0.028 H 
ATOM     37  H14 non d ame     -31.823   6.368  21.444  0.00  0.00     0.028 H 
ATOM     38  H15 non d ame     -30.868   6.961  22.824  0.00  0.00     0.028 H 
ENDBRANCH  33  35
BRANCH  33  39
ATOM     39  C13 non d ame     -33.066   4.415  23.522  0.00  0.00    -0.071 C 
ATOM     40  H16 non d ame     -32.604   4.008  24.422  0.00  0.00     0.028 H 
ATOM     41  H17 non d ame     -34.149   4.303  23.588  0.00  0.00     0.028 H 
ATOM     42  H18 non d ame     -32.699   3.876  22.649  0.00  0.00     0.028 H 
ENDBRANCH  33  39
ENDBRANCH   7  33
ENDBRANCH   4   7
ENDBRANCH   1   3
BRANCH   1  43
ATOM     43  C15 non d ame     -31.815  11.430  25.514  0.00  0.00     0.240 C 
ATOM     44  O5  non d ame     -30.761  11.190  26.009  0.00  0.00    -0.271 OA
ATOM     45  N6  non d ame     -32.021  12.722  24.799  0.00  0.00    -0.355 N 
ATOM     46  H46 non d ame     -32.910  12.934  24.370  0.00  0.00     0.162 HD
BRANCH  45  47
ATOM     47  C20 non d ame     -30.915  13.700  24.718  0.00  0.00     0.013 C 
ATOM     48  H30 non d ame     -30.119  13.362  25.382  0.00  0.00     0.072 H 
BRANCH  47  49
ATOM     49  C21 non d ame     -31.414  15.057  25.160  0.00  0.00    -0.038 C 
ATOM     50  H31 non d ame     -30.913  15.261  26.108  0.00  0.00     0.036 H 
ATOM     51  H32 non d ame     -31.260  15.719  24.309  0.00  0.00     0.036 H 
BRANCH  49  52
ATOM     52  C22 non d ame     -32.929  15.071  25.457  0.00  0.00     0.018 C 
ATOM     53  H33 non d ame     -33.417  15.219  24.494  0.00  0.00     0.048 H 
ATOM     54  H34 non d ame     -33.125  14.166  26.033  0.00  0.00     0.048 H 
BRANCH  52  55
ATOM     55  C23 non d ame     -33.381  16.256  26.354  0.00  0.00     0.259 C 
ATOM     56  O7  non d ame     -33.493  17.348  25.900  0.00  0.00    -0.265 OA
BRANCH  55  57
ATOM     57  O8  non d ame     -33.646  16.025  27.733  0.00  0.00    -0.317 OA
BRANCH  57  58
ATOM     58  C29 non d ame     -32.488  16.104  28.569  0.00  0.00     0.052 C 
ATOM     59  H47 non d ame     -31.703  16.531  27.945  0.00  0.00     0.082 H 
ATOM     60  H48 non d ame     -32.811  16.622  29.472  0.00  0.00     0.082 H 
BRANCH  58  61
ATOM     61  C35 non d ame     -32.076  14.658  28.955  0.00  0.00    -0.034 A 
ATOM     62  C30 non d ame     -30.787  14.207  28.688  0.00  0.00    -0.075 A 
ATOM     63  C31 non d ame     -30.416  12.908  29.034  0.00  0.00    -0.082 A 
ATOM     64  H49 non d ame     -30.068  14.870  28.208  0.00  0.00     0.084 H 
ATOM     65  C32 non d ame     -31.342  12.058  29.647  0.00  0.00    -0.083 A 
ATOM     66  H50 non d ame     -29.405  12.558  28.825  0.00  0.00     0.083 H 
ATOM     67  C33 non d ame     -32.627  12.512  29.908  0.00  0.00    -0.082 A 
ATOM     68  H51 non d ame     -31.059  11.042  29.921  0.00  0.00     0.083 H 
ATOM     69  C34 non d ame     -33.001  13.810  29.565  0.00  0.00    -0.075 A 
ATOM     70  H52 non d ame     -33.348  11.846  30.384  0.00  0.00     0.083 H 
ATOM     71  H53 non d ame     -34.013  14.159  29.775  0.00  0.00     0.084 H 
ENDBRANCH  58  61
ENDBRANCH  57  58
ENDBRANCH  55  57
ENDBRANCH  52  55
ENDBRANCH  49  52
ENDBRANCH  47  49
BRANCH  47  72
ATOM     72  C24 non d ame     -30.406  13.787  23.281  0.00  0.00    -0.039 C 
ATOM     73  H35 non d ame     -29.418  13.324  23.295  0.00  0.00     0.036 H 
ATOM     74  H36 non d ame     -31.198  13.360  22.667  0.00  0.00     0.036 H 
BRANCH  72  75
ATOM     75  C25 non d ame     -30.210  15.306  22.812  0.00  0.00    -0.001 C 
ATOM     76  C26 non d ame     -31.285  15.666  21.621  0.00  0.00    -0.035 C 
ATOM     77  C27 non d ame     -30.613  16.209  20.577  0.00  0.00     0.085 C 
ATOM     78  H38 non d ame     -31.704  14.750  21.205  0.00  0.00     0.036 H 
ATOM     79  H39 non d ame     -31.946  16.470  21.944  0.00  0.00     0.036 H 
ATOM     80  N5  non d ame     -29.145  15.950  20.814  0.00  0.00    -0.049 N 
ATOM     81  H40 non d ame     -30.936  15.647  19.699  0.00  0.00     0.075 H 
ATOM     82  H41 non d ame     -30.799  17.281  20.636  0.00  0.00     0.075 H 
ATOM     83  C28 non d ame     -29.016  15.506  22.361  0.00  0.00     0.193 C 
ATOM     84  H42 non d ame     -28.894  15.165  20.231  0.00  0.00     0.280 HD
ATOM     85  H43 non d ame     -28.676  16.837  20.694  0.00  0.00     0.280 HD
ATOM     86  H44 non d ame     -28.637  16.202  23.107  0.00  0.00     0.129 H 
ATOM     87  H37 non d ame     -30.154  15.995  23.654  0.00  0.00     0.046 H 
BRANCH  83  88
ATOM     88  O6  non d ame     -28.196  14.342  22.472  0.00  0.00    -0.369 OA
ATOM     89  H45 non d ame     -28.234  13.843  21.653  0.00  0.00     0.212 HD
ENDBRANCH  83  88
ENDBRANCH  72  75
ENDBRANCH  47  72
ENDBRANCH  45  47
ENDBRANCH   1  43
BRANCH   1  90
ATOM     90  C16 non d ame     -33.716  10.571  26.918  0.00  0.00    -0.035 C 
ATOM     91  H21 non d ame     -33.006  11.049  27.592  0.00  0.00     0.037 H 
ATOM     92  H22 non d ame     -34.642  11.080  26.653  0.00  0.00     0.037 H 
BRANCH  90  93
ATOM     93  C17 non d ame     -34.129   9.226  27.595  0.00  0.00    -0.059 C 
ATOM     94  H23 non d ame     -33.620   8.420  27.068  0.00  0.00     0.038 H 
BRANCH  93  95
ATOM     95  C18 non d ame     -33.695   9.164  29.094  0.00  0.00    -0.073 C 
ATOM     96  H24 non d ame     -32.619   9.324  29.168  0.00  0.00     0.028 H 
ATOM     97  H25 non d ame     -34.215   9.940  29.656  0.00  0.00     0.028 H 
ATOM     98  H26 non d ame     -33.947   8.187  29.506  0.00  0.00     0.028 H 
ENDBRANCH  93  95
BRANCH  93  99
ATOM     99  C19 non d ame     -35.634   8.983  27.454  0.00  0.00    -0.073 C 
ATOM    100  H27 non d ame     -36.167   9.929  27.556  0.00  0.00     0.028 H 
ATOM    101  H28 non d ame     -35.843   8.553  26.474  0.00  0.00     0.028 H 
ATOM    102  H29 non d ame     -35.965   8.294  28.230  0.00  0.00     0.028 H 
ENDBRANCH  93  99
ENDBRANCH  90  93
ENDBRANCH   1  90
TORSDOF 26
ENDMDL
MODEL 6
REMARK VINA RESULT:      -6.8      2.542      6.847
REMARK  26 active torsions:
REMARK  status: ('A' for Active; 'I' for Inactive)
REMARK    1  A    between atoms: C2_2  and  C3_3 
REMARK    2  A    between atoms: C4_6  and  C5_7 
REMARK       I    between atoms: C5_7  and  N2_9 
REMARK    3  A    between atoms: N2_9  and  C6_10 
REMARK    4  A    between atoms: C6_10  and  C7_11 
REMARK    5  A    between atoms: C6_10  and  C8_13 
REMARK       I    between atoms: C7_11  and  N3_14 
REMARK    6  A    between atoms: N3_14  and  C9_15 
REMARK    7  A    between atoms: C9_15  and  C10_16 
REMARK    8  A    between atoms: C9_15  and  C11_18 
REMARK       I    between atoms: C10_16  and  N4_21 
REMARK    9  A    between atoms: C11_18  and  C12_19 
REMARK   10  A    between atoms: C11_18  and  C13_20 
REMARK   11  A    between atoms: N4_21  and  C14_22 
REMARK   12  A    between atoms: C14_22  and  C15_23 
REMARK   13  A    between atoms: C14_22  and  C16_25 
REMARK       I    between atoms: C15_23  and  N6_40 
REMARK   14  A    between atoms: C16_25  and  C17_26 
REMARK   15  A    between atoms: C17_26  and  C18_27 
REMARK   16  A    between atoms: C17_26  and  C19_28 
REMARK   17  A    between atoms: C20_29  and  C21_30 
REMARK   18  A    between atoms: C20_29  and  C24_33 
REMARK   19  A    between atoms: C20_29  and  N6_40 
REMARK   20  A    between atoms: C21_30  and  C22_31 
REMARK   21  A    between atoms: C22_31  and  C23_32 
REMARK   22  A    between atoms: C23_32  and  O8_43 
REMARK   23  A    between atoms: C24_33  and  C25_34 
REMARK   24  A    between atoms: C28_38  and  O6_39 
REMARK   25  A    between atoms: C29_42  and  O8_43 
REMARK   26  A    between atoms: C29_42  and  C35_49 
ROOT
ATOM      1  C14 non d ame     -32.307   9.555  25.383  0.00  0.00     0.089 C 
ATOM      2  H20 non d ame     -31.616   8.720  25.502  0.00  0.00     0.087 H 
ENDROOT
BRANCH   1   3
ATOM      3  N4  non d ame     -33.271   9.484  26.471  0.00  0.00    -0.346 N 
ATOM      4  C10 non d ame     -33.171   8.392  27.507  0.00  0.00     0.241 C 
ATOM      5  O4  non d ame     -32.309   7.580  27.441  0.00  0.00    -0.271 OA
ATOM      6  H19 non d ame     -33.999  10.183  26.507  0.00  0.00     0.163 HD
BRANCH   4   7
ATOM      7  C9  non d ame     -34.174   8.337  28.629  0.00  0.00     0.092 C 
ATOM      8  H11 non d ame     -33.953   7.481  29.267  0.00  0.00     0.088 H 
BRANCH   7   9
ATOM      9  N3  non d ame     -34.047   9.539  29.458  0.00  0.00    -0.346 N 
ATOM     10  C7  non d ame     -34.144   9.439  30.893  0.00  0.00     0.240 C 
ATOM     11  O3  non d ame     -34.327   8.399  31.398  0.00  0.00    -0.271 OA
ATOM     12  H10 non d ame     -33.891  10.444  29.037  0.00  0.00     0.163 HD
BRANCH  10  13
ATOM     13  C6  non d ame     -34.011  10.723  31.770  0.00  0.00     0.086 C 
ATOM     14  H6  non d ame     -33.212  10.649  32.508  0.00  0.00     0.086 H 
BRANCH  13  15
ATOM     15  N2  non d ame     -33.680  11.848  30.911  0.00  0.00    -0.343 N 
ATOM     16  C5  non d ame     -32.278  12.122  30.589  0.00  0.00     0.273 C 
ATOM     17  O2  non d ame     -31.424  11.433  31.029  0.00  0.00    -0.266 OA
ATOM     18  H5  non d ame     -34.416  12.433  30.543  0.00  0.00     0.163 HD
BRANCH  16  19
ATOM     19  C4  non d ame     -31.914  13.306  29.681  0.00  0.00     0.154 A 
ATOM     20  C1  non d ame     -32.649  14.521  29.508  0.00  0.00    -0.017 A 
ATOM     21  C2  non d ame     -31.898  15.272  28.576  0.00  0.00     0.077 A 
ATOM     22  H1  non d ame     -33.586  14.813  29.983  0.00  0.00     0.091 H 
ATOM     23  O1  non d ame     -30.853  14.563  28.261  0.00  0.00    -0.218 OA
ATOM     24  N1  non d ame     -30.841  13.412  28.892  0.00  0.00    -0.123 NA
BRANCH  21  25
ATOM     25  C3  non d ame     -32.246  16.655  28.043  0.00  0.00    -0.029 C 
ATOM     26  H2  non d ame     -32.770  16.557  27.092  0.00  0.00     0.036 H 
ATOM     27  H3  non d ame     -32.887  17.170  28.759  0.00  0.00     0.036 H 
ATOM     28  H4  non d ame     -31.332  17.229  27.896  0.00  0.00     0.036 H 
ENDBRANCH  21  25
ENDBRANCH  16  19
ENDBRANCH  13  15
BRANCH  13  29
ATOM     29  C8  non d ame     -35.313  10.984  32.484  0.00  0.00    -0.049 C 
ATOM     30  H7  non d ame     -35.615  12.019  32.324  0.00  0.00     0.030 H 
ATOM     31  H8  non d ame     -36.082  10.318  32.092  0.00  0.00     0.030 H 
ATOM     32  H9  non d ame     -35.185  10.803  33.552  0.00  0.00     0.030 H 
ENDBRANCH  13  29
ENDBRANCH  10  13
ENDBRANCH   7   9
BRANCH   7  33
ATOM     33  C11 non d ame     -35.612   8.268  28.037  0.00  0.00    -0.033 C 
ATOM     34  H12 non d ame     -35.517   8.083  26.966  0.00  0.00     0.042 H 
BRANCH  33  35
ATOM     35  C12 non d ame     -36.423   7.083  28.648  0.00  0.00    -0.071 C 
ATOM     36  H13 non d ame     -35.745   6.414  29.178  0.00  0.00     0.028 H 
ATOM     37  H14 non d ame     -37.166   7.473  29.344  0.00  0.00     0.028 H 
ATOM     38  H15 non d ame     -36.924   6.535  27.850  0.00  0.00     0.028 H 
ENDBRANCH  33  35
BRANCH  33  39
ATOM     39  C13 non d ame     -36.361   9.626  28.227  0.00  0.00    -0.071 C 
ATOM     40  H16 non d ame     -35.639  10.412  28.446  0.00  0.00     0.028 H 
ATOM     41  H17 non d ame     -36.903   9.873  27.314  0.00  0.00     0.028 H 
ATOM     42  H18 non d ame     -37.066   9.539  29.053  0.00  0.00     0.028 H 
ENDBRANCH  33  39
ENDBRANCH   7  33
ENDBRANCH   4   7
ENDBRANCH   1   3
BRANCH   1  43
ATOM     43  C15 non d ame     -31.585  10.931  25.450  0.00  0.00     0.240 C 
ATOM     44  O5  non d ame     -30.849  11.168  26.352  0.00  0.00    -0.271 OA
ATOM     45  N6  non d ame     -31.804  11.949  24.384  0.00  0.00    -0.355 N 
ATOM     46  H46 non d ame     -32.423  11.756  23.610  0.00  0.00     0.162 HD
BRANCH  45  47
ATOM     47  C20 non d ame     -31.108  13.253  24.460  0.00  0.00     0.013 C 
ATOM     48  H30 non d ame     -30.375  13.194  25.265  0.00  0.00     0.072 H 
BRANCH  47  49
ATOM     49  C21 non d ame     -32.116  14.340  24.756  0.00  0.00    -0.038 C 
ATOM     50  H31 non d ame     -31.562  15.119  25.283  0.00  0.00     0.036 H 
ATOM     51  H32 non d ame     -32.597  14.562  23.804  0.00  0.00     0.036 H 
BRANCH  49  52
ATOM     52  C22 non d ame     -33.234  13.877  25.714  0.00  0.00     0.018 C 
ATOM     53  H33 non d ame     -33.662  12.985  25.259  0.00  0.00     0.048 H 
ATOM     54  H34 non d ame     -32.772  13.817  26.700  0.00  0.00     0.048 H 
BRANCH  52  55
ATOM     55  C23 non d ame     -34.402  14.892  25.850  0.00  0.00     0.259 C 
ATOM     56  O7  non d ame     -35.240  14.740  26.679  0.00  0.00    -0.265 OA
BRANCH  55  57
ATOM     57  O8  non d ame     -34.469  16.001  24.962  0.00  0.00    -0.317 OA
BRANCH  57  58
ATOM     58  C29 non d ame     -35.462  16.970  25.315  0.00  0.00     0.052 C 
ATOM     59  H47 non d ame     -35.879  17.322  24.372  0.00  0.00     0.082 H 
ATOM     60  H48 non d ame     -36.104  16.481  26.048  0.00  0.00     0.082 H 
BRANCH  58  61
ATOM     61  C35 non d ame     -34.744  18.160  26.009  0.00  0.00    -0.034 A 
ATOM     62  C30 non d ame     -33.615  18.727  25.426  0.00  0.00    -0.075 A 
ATOM     63  C31 non d ame     -32.970  19.795  26.050  0.00  0.00    -0.082 A 
ATOM     64  H49 non d ame     -33.235  18.335  24.484  0.00  0.00     0.084 H 
ATOM     65  C32 non d ame     -33.458  20.294  27.260  0.00  0.00    -0.083 A 
ATOM     66  H50 non d ame     -32.086  20.238  25.590  0.00  0.00     0.083 H 
ATOM     67  C33 non d ame     -34.583  19.722  27.839  0.00  0.00    -0.082 A 
ATOM     68  H51 non d ame     -32.960  21.129  27.753  0.00  0.00     0.083 H 
ATOM     69  C34 non d ame     -35.231  18.656  27.219  0.00  0.00    -0.075 A 
ATOM     70  H52 non d ame     -34.960  20.112  28.785  0.00  0.00     0.083 H 
ATOM     71  H53 non d ame     -36.115  18.214  27.679  0.00  0.00     0.084 H 
ENDBRANCH  58  61
ENDBRANCH  57  58
ENDBRANCH  55  57
ENDBRANCH  52  55
ENDBRANCH  49  52
ENDBRANCH  47  49
BRANCH  47  72
ATOM     72  C24 non d ame     -30.414  13.547  23.132  0.00  0.00    -0.039 C 
ATOM     73  H35 non d ame     -29.396  13.174  23.249  0.00  0.00     0.036 H 
ATOM     74  H36 non d ame     -31.064  13.125  22.366  0.00  0.00     0.036 H 
BRANCH  72  75
ATOM     75  C25 non d ame     -30.313  15.121  22.852  0.00  0.00    -0.001 C 
ATOM     76  C26 non d ame     -31.265  15.524  21.574  0.00  0.00    -0.035 C 
ATOM     77  C27 non d ame     -30.529  16.237  20.689  0.00  0.00     0.085 C 
ATOM     78  H38 non d ame     -31.540  14.629  21.015  0.00  0.00     0.036 H 
ATOM     79  H39 non d ame     -32.036  16.227  21.890  0.00  0.00     0.036 H 
ATOM     80  N5  non d ame     -29.082  16.078  21.088  0.00  0.00    -0.049 N 
ATOM     81  H40 non d ame     -30.687  15.755  19.724  0.00  0.00     0.075 H 
ATOM     82  H41 non d ame     -30.825  17.276  20.834  0.00  0.00     0.075 H 
ATOM     83  C28 non d ame     -29.099  15.471  22.584  0.00  0.00     0.193 C 
ATOM     84  H42 non d ame     -28.687  15.388  20.466  0.00  0.00     0.280 HD
ATOM     85  H43 non d ame     -28.691  17.009  21.123  0.00  0.00     0.280 HD
ATOM     86  H44 non d ame     -28.882  16.106  23.442  0.00  0.00     0.129 H 
ATOM     87  H37 non d ame     -30.427  15.710  23.761  0.00  0.00     0.046 H 
BRANCH  83  88
ATOM     88  O6  non d ame     -28.187  14.374  22.681  0.00  0.00    -0.369 OA
ATOM     89  H45 non d ame     -27.372  14.671  23.092  0.00  0.00     0.212 HD
ENDBRANCH  83  88
ENDBRANCH  72  75
ENDBRANCH  47  72
ENDBRANCH  45  47
ENDBRANCH   1  43
BRANCH   1  90
ATOM     90  C16 non d ame     -33.044   9.428  24.059  0.00  0.00    -0.035 C 
ATOM     91  H21 non d ame     -34.034   9.052  24.314  0.00  0.00     0.037 H 
ATOM     92  H22 non d ame     -32.939  10.399  23.576  0.00  0.00     0.037 H 
BRANCH  90  93
ATOM     93  C17 non d ame     -32.413   8.381  23.088  0.00  0.00    -0.059 C 
ATOM     94  H23 non d ame     -33.163   8.129  22.339  0.00  0.00     0.038 H 
BRANCH  93  95
ATOM     95  C18 non d ame     -31.164   8.949  22.340  0.00  0.00    -0.073 C 
ATOM     96  H24 non d ame     -30.784   8.199  21.646  0.00  0.00     0.028 H 
ATOM     97  H25 non d ame     -31.449   9.843  21.785  0.00  0.00     0.028 H 
ATOM     98  H26 non d ame     -30.390   9.201  23.063  0.00  0.00     0.028 H 
ENDBRANCH  93  95
BRANCH  93  99
ATOM     99  C19 non d ame     -32.061   7.089  23.831  0.00  0.00    -0.073 C 
ATOM    100  H27 non d ame     -30.982   6.931  23.794  0.00  0.00     0.028 H 
ATOM    101  H28 non d ame     -32.380   7.169  24.870  0.00  0.00     0.028 H 
ATOM    102  H29 non d ame     -32.568   6.248  23.359  0.00  0.00     0.028 H 
ENDBRANCH  93  99
ENDBRANCH  90  93
ENDBRANCH   1  90
TORSDOF 26
ENDMDL
MODEL 7
REMARK VINA RESULT:      -6.8      3.688      6.865
REMARK  26 active torsions:
REMARK  status: ('A' for Active; 'I' for Inactive)
REMARK    1  A    between atoms: C2_2  and  C3_3 
REMARK    2  A    between atoms: C4_6  and  C5_7 
REMARK       I    between atoms: C5_7  and  N2_9 
REMARK    3  A    between atoms: N2_9  and  C6_10 
REMARK    4  A    between atoms: C6_10  and  C7_11 
REMARK    5  A    between atoms: C6_10  and  C8_13 
REMARK       I    between atoms: C7_11  and  N3_14 
REMARK    6  A    between atoms: N3_14  and  C9_15 
REMARK    7  A    between atoms: C9_15  and  C10_16 
REMARK    8  A    between atoms: C9_15  and  C11_18 
REMARK       I    between atoms: C10_16  and  N4_21 
REMARK    9  A    between atoms: C11_18  and  C12_19 
REMARK   10  A    between atoms: C11_18  and  C13_20 
REMARK   11  A    between atoms: N4_21  and  C14_22 
REMARK   12  A    between atoms: C14_22  and  C15_23 
REMARK   13  A    between atoms: C14_22  and  C16_25 
REMARK       I    between atoms: C15_23  and  N6_40 
REMARK   14  A    between atoms: C16_25  and  C17_26 
REMARK   15  A    between atoms: C17_26  and  C18_27 
REMARK   16  A    between atoms: C17_26  and  C19_28 
REMARK   17  A    between atoms: C20_29  and  C21_30 
REMARK   18  A    between atoms: C20_29  and  C24_33 
REMARK   19  A    between atoms: C20_29  and  N6_40 
REMARK   20  A    between atoms: C21_30  and  C22_31 
REMARK   21  A    between atoms: C22_31  and  C23_32 
REMARK   22  A    between atoms: C23_32  and  O8_43 
REMARK   23  A    between atoms: C24_33  and  C25_34 
REMARK   24  A    between atoms: C28_38  and  O6_39 
REMARK   25  A    between atoms: C29_42  and  O8_43 
REMARK   26  A    between atoms: C29_42  and  C35_49 
ROOT
ATOM      1  C14 non d ame     -32.943  10.125  25.256  0.00  0.00     0.089 C 
ATOM      2  H20 non d ame     -33.622  10.193  24.406  0.00  0.00     0.087 H 
ENDROOT
BRANCH   1   3
ATOM      3  N4  non d ame     -32.406   8.772  25.280  0.00  0.00    -0.346 N 
ATOM      4  C10 non d ame     -33.213   7.622  24.731  0.00  0.00     0.241 C 
ATOM      5  O4  non d ame     -34.293   7.809  24.279  0.00  0.00    -0.271 OA
ATOM      6  H19 non d ame     -31.485   8.634  25.671  0.00  0.00     0.163 HD
BRANCH   4   7
ATOM      7  C9  non d ame     -32.638   6.230  24.759  0.00  0.00     0.092 C 
ATOM      8  H11 non d ame     -31.561   6.290  24.918  0.00  0.00     0.088 H 
BRANCH   7   9
ATOM      9  N3  non d ame     -33.204   5.490  25.890  0.00  0.00    -0.346 N 
ATOM     10  C7  non d ame     -32.677   5.689  27.218  0.00  0.00     0.240 C 
ATOM     11  O3  non d ame     -31.796   6.440  27.393  0.00  0.00    -0.271 OA
ATOM     12  H10 non d ame     -33.962   4.837  25.754  0.00  0.00     0.163 HD
BRANCH  10  13
ATOM     13  C6  non d ame     -33.281   4.895  28.418  0.00  0.00     0.086 C 
ATOM     14  H6  non d ame     -32.622   4.877  29.286  0.00  0.00     0.086 H 
BRANCH  13  15
ATOM     15  N2  non d ame     -34.509   5.547  28.843  0.00  0.00    -0.343 N 
ATOM     16  C5  non d ame     -34.893   5.510  30.256  0.00  0.00     0.273 C 
ATOM     17  O2  non d ame     -34.210   4.952  31.042  0.00  0.00    -0.266 OA
ATOM     18  H5  non d ame     -35.089   6.019  28.164  0.00  0.00     0.163 HD
BRANCH  16  19
ATOM     19  C4  non d ame     -36.188   6.196  30.719  0.00  0.00     0.154 A 
ATOM     20  C1  non d ame     -36.458   7.601  30.753  0.00  0.00    -0.017 A 
ATOM     21  C2  non d ame     -37.775   7.706  31.254  0.00  0.00     0.077 A 
ATOM     22  H1  non d ame     -35.799   8.419  30.461  0.00  0.00     0.091 H 
ATOM     23  O1  non d ame     -38.203   6.497  31.476  0.00  0.00    -0.218 OA
ATOM     24  N1  non d ame     -37.294   5.600  31.172  0.00  0.00    -0.123 NA
BRANCH  21  25
ATOM     25  C3  non d ame     -38.550   8.996  31.489  0.00  0.00    -0.029 C 
ATOM     26  H2  non d ame     -39.559   8.758  31.825  0.00  0.00     0.036 H 
ATOM     27  H3  non d ame     -38.044   9.590  32.250  0.00  0.00     0.036 H 
ATOM     28  H4  non d ame     -38.601   9.563  30.560  0.00  0.00     0.036 H 
ENDBRANCH  21  25
ENDBRANCH  16  19
ENDBRANCH  13  15
BRANCH  13  29
ATOM     29  C8  non d ame     -33.569   3.478  27.993  0.00  0.00    -0.049 C 
ATOM     30  H7  non d ame     -33.623   2.838  28.873  0.00  0.00     0.030 H 
ATOM     31  H8  non d ame     -34.521   3.445  27.461  0.00  0.00     0.030 H 
ATOM     32  H9  non d ame     -32.774   3.127  27.335  0.00  0.00     0.030 H 
ENDBRANCH  13  29
ENDBRANCH  10  13
ENDBRANCH   7   9
BRANCH   7  33
ATOM     33  C11 non d ame     -32.993   5.497  23.433  0.00  0.00    -0.033 C 
ATOM     34  H12 non d ame     -33.915   5.937  23.051  0.00  0.00     0.042 H 
BRANCH  33  35
ATOM     35  C12 non d ame     -31.888   5.710  22.351  0.00  0.00    -0.071 C 
ATOM     36  H13 non d ame     -31.782   4.803  21.756  0.00  0.00     0.028 H 
ATOM     37  H14 non d ame     -32.170   6.539  21.703  0.00  0.00     0.028 H 
ATOM     38  H15 non d ame     -30.940   5.936  22.839  0.00  0.00     0.028 H 
ENDBRANCH  33  35
BRANCH  33  39
ATOM     39  C13 non d ame     -33.252   3.977  23.686  0.00  0.00    -0.071 C 
ATOM     40  H16 non d ame     -33.947   3.597  22.937  0.00  0.00     0.028 H 
ATOM     41  H17 non d ame     -32.310   3.431  23.618  0.00  0.00     0.028 H 
ATOM     42  H18 non d ame     -33.678   3.842  24.679  0.00  0.00     0.028 H 
ENDBRANCH  33  39
ENDBRANCH   7  33
ENDBRANCH   4   7
ENDBRANCH   1   3
BRANCH   1  43
ATOM     43  C15 non d ame     -31.759  11.126  25.144  0.00  0.00     0.240 C 
ATOM     44  O5  non d ame     -30.649  10.754  25.348  0.00  0.00    -0.271 OA
ATOM     45  N6  non d ame     -32.007  12.548  24.772  0.00  0.00    -0.355 N 
ATOM     46  H46 non d ame     -32.945  12.875  24.591  0.00  0.00     0.162 HD
BRANCH  45  47
ATOM     47  C20 non d ame     -30.870  13.489  24.668  0.00  0.00     0.013 C 
ATOM     48  H30 non d ame     -30.031  13.063  25.220  0.00  0.00     0.072 H 
BRANCH  47  49
ATOM     49  C21 non d ame     -31.264  14.818  25.270  0.00  0.00    -0.038 C 
ATOM     50  H31 non d ame     -30.363  15.201  25.753  0.00  0.00     0.036 H 
ATOM     51  H32 non d ame     -31.730  15.381  24.462  0.00  0.00     0.036 H 
BRANCH  49  52
ATOM     52  C22 non d ame     -32.329  14.682  26.380  0.00  0.00     0.018 C 
ATOM     53  H33 non d ame     -33.041  15.487  26.206  0.00  0.00     0.048 H 
ATOM     54  H34 non d ame     -32.661  13.643  26.342  0.00  0.00     0.048 H 
BRANCH  52  55
ATOM     55  C23 non d ame     -31.772  14.902  27.813  0.00  0.00     0.259 C 
ATOM     56  O7  non d ame     -30.805  14.318  28.182  0.00  0.00    -0.265 OA
BRANCH  55  57
ATOM     57  O8  non d ame     -32.441  15.801  28.690  0.00  0.00    -0.317 OA
BRANCH  57  58
ATOM     58  C29 non d ame     -33.711  16.249  28.206  0.00  0.00     0.052 C 
ATOM     59  H47 non d ame     -33.976  15.565  27.400  0.00  0.00     0.082 H 
ATOM     60  H48 non d ame     -34.349  16.332  29.085  0.00  0.00     0.082 H 
BRANCH  58  61
ATOM     61  C35 non d ame     -33.520  17.667  27.603  0.00  0.00    -0.034 A 
ATOM     62  C30 non d ame     -34.170  18.015  26.423  0.00  0.00    -0.075 A 
ATOM     63  C31 non d ame     -33.999  19.289  25.881  0.00  0.00    -0.082 A 
ATOM     64  H49 non d ame     -34.813  17.291  25.922  0.00  0.00     0.084 H 
ATOM     65  C32 non d ame     -33.172  20.214  26.522  0.00  0.00    -0.083 A 
ATOM     66  H50 non d ame     -34.511  19.558  24.957  0.00  0.00     0.083 H 
ATOM     67  C33 non d ame     -32.523  19.861  27.698  0.00  0.00    -0.082 A 
ATOM     68  H51 non d ame     -33.034  21.212  26.106  0.00  0.00     0.083 H 
ATOM     69  C34 non d ame     -32.693  18.591  28.244  0.00  0.00    -0.075 A 
ATOM     70  H52 non d ame     -31.877  20.585  28.195  0.00  0.00     0.083 H 
ATOM     71  H53 non d ame     -32.181  18.322  29.168  0.00  0.00     0.084 H 
ENDBRANCH  58  61
ENDBRANCH  57  58
ENDBRANCH  55  57
ENDBRANCH  52  55
ENDBRANCH  49  52
ENDBRANCH  47  49
BRANCH  47  72
ATOM     72  C24 non d ame     -30.494  13.685  23.201  0.00  0.00    -0.039 C 
ATOM     73  H35 non d ame     -29.569  13.123  23.061  0.00  0.00     0.036 H 
ATOM     74  H36 non d ame     -31.385  13.414  22.635  0.00  0.00     0.036 H 
BRANCH  72  75
ATOM     75  C25 non d ame     -30.171  15.219  22.871  0.00  0.00    -0.001 C 
ATOM     76  C26 non d ame     -31.299  15.817  21.835  0.00  0.00    -0.035 C 
ATOM     77  C27 non d ame     -30.666  16.402  20.790  0.00  0.00     0.085 C 
ATOM     78  H38 non d ame     -31.854  15.001  21.373  0.00  0.00     0.036 H 
ATOM     79  H39 non d ame     -31.835  16.644  22.303  0.00  0.00     0.036 H 
ATOM     80  N5  non d ame     -29.221  15.970  20.852  0.00  0.00    -0.049 N 
ATOM     81  H40 non d ame     -31.126  15.977  19.897  0.00  0.00     0.075 H 
ATOM     82  H41 non d ame     -30.725  17.474  20.977  0.00  0.00     0.075 H 
ATOM     83  C28 non d ame     -29.007  15.345  22.325  0.00  0.00     0.193 C 
ATOM     84  H42 non d ame     -29.113  15.232  20.171  0.00  0.00     0.280 HD
ATOM     85  H43 non d ame     -28.668  16.812  20.777  0.00  0.00     0.280 HD
ATOM     86  H44 non d ame     -28.487  15.911  23.097  0.00  0.00     0.129 H 
ATOM     87  H37 non d ame     -29.964  15.800  23.769  0.00  0.00     0.046 H 
BRANCH  83  88
ATOM     88  O6  non d ame     -28.316  14.097  22.236  0.00  0.00    -0.369 OA
ATOM     89  H45 non d ame     -27.760  13.983  23.010  0.00  0.00     0.212 HD
ENDBRANCH  83  88
ENDBRANCH  72  75
ENDBRANCH  47  72
ENDBRANCH  45  47
ENDBRANCH   1  43
BRANCH   1  90
ATOM     90  C16 non d ame     -33.707  10.378  26.546  0.00  0.00    -0.035 C 
ATOM     91  H21 non d ame     -33.863  11.456  26.583  0.00  0.00     0.037 H 
ATOM     92  H22 non d ame     -34.562   9.705  26.511  0.00  0.00     0.037 H 
BRANCH  90  93
ATOM     93  C17 non d ame     -32.904  10.006  27.833  0.00  0.00    -0.059 C 
ATOM     94  H23 non d ame     -31.974   9.532  27.519  0.00  0.00     0.038 H 
BRANCH  93  95
ATOM     95  C18 non d ame     -32.534  11.265  28.681  0.00  0.00    -0.073 C 
ATOM     96  H24 non d ame     -32.388  10.973  29.721  0.00  0.00     0.028 H 
ATOM     97  H25 non d ame     -31.614  11.705  28.296  0.00  0.00     0.028 H 
ATOM     98  H26 non d ame     -33.340  11.995  28.618  0.00  0.00     0.028 H 
ENDBRANCH  93  95
BRANCH  93  99
ATOM     99  C19 non d ame     -33.670   8.986  28.679  0.00  0.00    -0.073 C 
ATOM    100  H27 non d ame     -34.671   9.366  28.890  0.00  0.00     0.028 H 
ATOM    101  H28 non d ame     -33.748   8.046  28.134  0.00  0.00     0.028 H 
ATOM    102  H29 non d ame     -33.140   8.819  29.616  0.00  0.00     0.028 H 
ENDBRANCH  93  99
ENDBRANCH  90  93
ENDBRANCH   1  90
TORSDOF 26
ENDMDL
MODEL 8
REMARK VINA RESULT:      -6.8      2.529      7.781
REMARK  26 active torsions:
REMARK  status: ('A' for Active; 'I' for Inactive)
REMARK    1  A    between atoms: C2_2  and  C3_3 
REMARK    2  A    between atoms: C4_6  and  C5_7 
REMARK       I    between atoms: C5_7  and  N2_9 
REMARK    3  A    between atoms: N2_9  and  C6_10 
REMARK    4  A    between atoms: C6_10  and  C7_11 
REMARK    5  A    between atoms: C6_10  and  C8_13 
REMARK       I    between atoms: C7_11  and  N3_14 
REMARK    6  A    between atoms: N3_14  and  C9_15 
REMARK    7  A    between atoms: C9_15  and  C10_16 
REMARK    8  A    between atoms: C9_15  and  C11_18 
REMARK       I    between atoms: C10_16  and  N4_21 
REMARK    9  A    between atoms: C11_18  and  C12_19 
REMARK   10  A    between atoms: C11_18  and  C13_20 
REMARK   11  A    between atoms: N4_21  and  C14_22 
REMARK   12  A    between atoms: C14_22  and  C15_23 
REMARK   13  A    between atoms: C14_22  and  C16_25 
REMARK       I    between atoms: C15_23  and  N6_40 
REMARK   14  A    between atoms: C16_25  and  C17_26 
REMARK   15  A    between atoms: C17_26  and  C18_27 
REMARK   16  A    between atoms: C17_26  and  C19_28 
REMARK   17  A    between atoms: C20_29  and  C21_30 
REMARK   18  A    between atoms: C20_29  and  C24_33 
REMARK   19  A    between atoms: C20_29  and  N6_40 
REMARK   20  A    between atoms: C21_30  and  C22_31 
REMARK   21  A    between atoms: C22_31  and  C23_32 
REMARK   22  A    between atoms: C23_32  and  O8_43 
REMARK   23  A    between atoms: C24_33  and  C25_34 
REMARK   24  A    between atoms: C28_38  and  O6_39 
REMARK   25  A    between atoms: C29_42  and  O8_43 
REMARK   26  A    between atoms: C29_42  and  C35_49 
ROOT
ATOM      1  C14 non d ame     -36.540  16.080  26.498  0.00  0.00     0.089 C 
ATOM      2  H20 non d ame     -37.116  16.640  27.235  0.00  0.00     0.087 H 
ENDROOT
BRANCH   1   3
ATOM      3  N4  non d ame     -35.131  16.256  26.819  0.00  0.00    -0.346 N 
ATOM      4  C10 non d ame     -34.711  17.210  27.909  0.00  0.00     0.241 C 
ATOM      5  O4  non d ame     -35.525  17.828  28.512  0.00  0.00    -0.271 OA
ATOM      6  H19 non d ame     -34.454  15.723  26.292  0.00  0.00     0.163 HD
BRANCH   4   7
ATOM      7  C9  non d ame     -33.249  17.376  28.231  0.00  0.00     0.092 C 
ATOM      8  H11 non d ame     -33.148  17.918  29.171  0.00  0.00     0.088 H 
BRANCH   7   9
ATOM      9  N3  non d ame     -32.639  16.058  28.421  0.00  0.00    -0.346 N 
ATOM     10  C7  non d ame     -31.746  15.831  29.531  0.00  0.00     0.240 C 
ATOM     11  O3  non d ame     -31.507  16.699  30.280  0.00  0.00    -0.271 OA
ATOM     12  H10 non d ame     -32.833  15.300  27.784  0.00  0.00     0.163 HD
BRANCH  10  13
ATOM     13  C6  non d ame     -31.096  14.426  29.728  0.00  0.00     0.086 C 
ATOM     14  H6  non d ame     -30.470  14.372  30.619  0.00  0.00     0.086 H 
BRANCH  13  15
ATOM     15  N2  non d ame     -32.150  13.439  29.900  0.00  0.00    -0.343 N 
ATOM     16  C5  non d ame     -31.864  12.197  30.622  0.00  0.00     0.273 C 
ATOM     17  O2  non d ame     -30.784  12.000  31.058  0.00  0.00    -0.266 OA
ATOM     18  H5  non d ame     -33.069  13.614  29.520  0.00  0.00     0.163 HD
BRANCH  16  19
ATOM     19  C4  non d ame     -32.969  11.146  30.812  0.00  0.00     0.154 A 
ATOM     20  C1  non d ame     -33.357  10.123  29.890  0.00  0.00    -0.017 A 
ATOM     21  C2  non d ame     -34.407   9.432  30.534  0.00  0.00     0.077 A 
ATOM     22  H1  non d ame     -32.943   9.915  28.903  0.00  0.00     0.091 H 
ATOM     23  O1  non d ame     -34.590   9.998  31.692  0.00  0.00    -0.218 OA
ATOM     24  N1  non d ame     -33.763  11.001  31.876  0.00  0.00    -0.123 NA
BRANCH  21  25
ATOM     25  C3  non d ame     -35.179   8.243  29.978  0.00  0.00    -0.029 C 
ATOM     26  H2  non d ame     -36.017   8.013  30.637  0.00  0.00     0.036 H 
ATOM     27  H3  non d ame     -35.557   8.488  28.985  0.00  0.00     0.036 H 
ATOM     28  H4  non d ame     -34.520   7.379  29.913  0.00  0.00     0.036 H 
ENDBRANCH  21  25
ENDBRANCH  16  19
ENDBRANCH  13  15
BRANCH  13  29
ATOM     29  C8  non d ame     -30.259  14.083  28.522  0.00  0.00    -0.049 C 
ATOM     30  H7  non d ame     -30.453  14.803  27.728  0.00  0.00     0.030 H 
ATOM     31  H8  non d ame     -29.203  14.117  28.792  0.00  0.00     0.030 H 
ATOM     32  H9  non d ame     -30.514  13.081  28.175  0.00  0.00     0.030 H 
ENDBRANCH  13  29
ENDBRANCH  10  13
ENDBRANCH   7   9
BRANCH   7  33
ATOM     33  C11 non d ame     -32.540  18.108  27.055  0.00  0.00    -0.033 C 
ATOM     34  H12 non d ame     -31.492  18.233  27.330  0.00  0.00     0.042 H 
BRANCH  33  35
ATOM     35  C12 non d ame     -32.583  17.260  25.746  0.00  0.00    -0.071 C 
ATOM     36  H13 non d ame     -33.280  16.432  25.872  0.00  0.00     0.028 H 
ATOM     37  H14 non d ame     -32.911  17.888  24.918  0.00  0.00     0.028 H 
ATOM     38  H15 non d ame     -31.589  16.868  25.533  0.00  0.00     0.028 H 
ENDBRANCH  33  35
BRANCH  33  39
ATOM     39  C13 non d ame     -33.151  19.529  26.830  0.00  0.00    -0.071 C 
ATOM     40  H16 non d ame     -32.444  20.287  27.167  0.00  0.00     0.028 H 
ATOM     41  H17 non d ame     -33.360  19.671  25.769  0.00  0.00     0.028 H 
ATOM     42  H18 non d ame     -34.078  19.619  27.396  0.00  0.00     0.028 H 
ENDBRANCH  33  39
ENDBRANCH   7  33
ENDBRANCH   4   7
ENDBRANCH   1   3
BRANCH   1  43
ATOM     43  C15 non d ame     -36.868  14.560  26.527  0.00  0.00     0.240 C 
ATOM     44  O5  non d ame     -37.930  14.192  26.914  0.00  0.00    -0.271 OA
ATOM     45  N6  non d ame     -35.862  13.563  26.063  0.00  0.00    -0.355 N 
ATOM     46  H46 non d ame     -34.959  13.865  25.727  0.00  0.00     0.162 HD
BRANCH  45  47
ATOM     47  C20 non d ame     -36.190  12.121  26.094  0.00  0.00     0.013 C 
ATOM     48  H30 non d ame     -37.093  11.995  26.691  0.00  0.00     0.072 H 
BRANCH  47  49
ATOM     49  C21 non d ame     -35.044  11.362  26.724  0.00  0.00    -0.038 C 
ATOM     50  H31 non d ame     -34.806  11.898  27.644  0.00  0.00     0.036 H 
ATOM     51  H32 non d ame     -35.368  10.323  26.768  0.00  0.00     0.036 H 
BRANCH  49  52
ATOM     52  C22 non d ame     -33.763  11.385  25.863  0.00  0.00     0.018 C 
ATOM     53  H33 non d ame     -33.248  10.449  26.075  0.00  0.00     0.048 H 
ATOM     54  H34 non d ame     -34.096  11.605  24.847  0.00  0.00     0.048 H 
BRANCH  52  55
ATOM     55  C23 non d ame     -32.772  12.518  26.244  0.00  0.00     0.259 C 
ATOM     56  O7  non d ame     -33.141  13.457  26.871  0.00  0.00    -0.265 OA
BRANCH  55  57
ATOM     57  O8  non d ame     -31.415  12.428  25.823  0.00  0.00    -0.317 OA
BRANCH  57  58
ATOM     58  C29 non d ame     -31.254  11.980  24.474  0.00  0.00     0.052 C 
ATOM     59  H47 non d ame     -30.540  11.158  24.519  0.00  0.00     0.082 H 
ATOM     60  H48 non d ame     -32.263  11.805  24.098  0.00  0.00     0.082 H 
BRANCH  58  61
ATOM     61  C35 non d ame     -30.620  13.137  23.656  0.00  0.00    -0.034 A 
ATOM     62  C30 non d ame     -29.941  12.863  22.473  0.00  0.00    -0.075 A 
ATOM     63  C31 non d ame     -29.371  13.903  21.739  0.00  0.00    -0.082 A 
ATOM     64  H49 non d ame     -29.855  11.836  22.121  0.00  0.00     0.084 H 
ATOM     65  C32 non d ame     -29.480  15.220  22.194  0.00  0.00    -0.083 A 
ATOM     66  H50 non d ame     -28.841  13.686  20.811  0.00  0.00     0.083 H 
ATOM     67  C33 non d ame     -30.155  15.487  23.377  0.00  0.00    -0.082 A 
ATOM     68  H51 non d ame     -29.038  16.038  21.626  0.00  0.00     0.083 H 
ATOM     69  C34 non d ame     -30.728  14.452  24.112  0.00  0.00    -0.075 A 
ATOM     70  H52 non d ame     -30.237  16.516  23.731  0.00  0.00     0.083 H 
ATOM     71  H53 non d ame     -31.258  14.670  25.040  0.00  0.00     0.084 H 
ENDBRANCH  58  61
ENDBRANCH  57  58
ENDBRANCH  55  57
ENDBRANCH  52  55
ENDBRANCH  49  52
ENDBRANCH  47  49
BRANCH  47  72
ATOM     72  C24 non d ame     -36.419  11.612  24.673  0.00  0.00    -0.039 C 
ATOM     73  H35 non d ame     -35.799  12.244  24.035  0.00  0.00     0.036 H 
ATOM     74  H36 non d ame     -36.237  10.538  24.717  0.00  0.00     0.036 H 
BRANCH  72  75
ATOM     75  C25 non d ame     -37.938  11.815  24.208  0.00  0.00    -0.001 C 
ATOM     76  C26 non d ame     -38.502  10.432  23.520  0.00  0.00    -0.035 C 
ATOM     77  C27 non d ame     -39.045  10.733  22.316  0.00  0.00     0.085 C 
ATOM     78  H38 non d ame     -37.671   9.774  23.268  0.00  0.00     0.036 H 
ATOM     79  H39 non d ame     -39.348  10.049  24.092  0.00  0.00     0.036 H 
ATOM     80  N5  non d ame     -38.610  12.138  21.975  0.00  0.00    -0.049 N 
ATOM     81  H40 non d ame     -38.590  10.039  21.609  0.00  0.00     0.075 H 
ATOM     82  H41 non d ame     -40.124  10.724  22.472  0.00  0.00     0.075 H 
ATOM     83  C28 non d ame     -38.040  12.772  23.346  0.00  0.00     0.193 C 
ATOM     84  H42 non d ame     -37.848  12.051  21.319  0.00  0.00     0.280 HD
ATOM     85  H43 non d ame     -39.447  12.640  21.713  0.00  0.00     0.280 HD
ATOM     86  H44 non d ame     -38.632  13.488  23.914  0.00  0.00     0.129 H 
ATOM     87  H37 non d ame     -38.552  12.268  24.987  0.00  0.00     0.046 H 
BRANCH  83  88
ATOM     88  O6  non d ame     -36.787  13.417  23.107  0.00  0.00    -0.369 OA
ATOM     89  H45 non d ame     -36.551  13.324  22.182  0.00  0.00     0.212 HD
ENDBRANCH  83  88
ENDBRANCH  72  75
ENDBRANCH  47  72
ENDBRANCH  45  47
ENDBRANCH   1  43
BRANCH   1  90
ATOM     90  C16 non d ame     -36.805  16.634  25.108  0.00  0.00    -0.035 C 
ATOM     91  H21 non d ame     -35.824  16.740  24.647  0.00  0.00     0.037 H 
ATOM     92  H22 non d ame     -37.544  15.966  24.667  0.00  0.00     0.037 H 
BRANCH  90  93
ATOM     93  C17 non d ame     -37.445  18.059  25.112  0.00  0.00    -0.059 C 
ATOM     94  H23 non d ame     -38.080  18.140  24.230  0.00  0.00     0.038 H 
BRANCH  93  95
ATOM     95  C18 non d ame     -38.341  18.298  26.369  0.00  0.00    -0.073 C 
ATOM     96  H24 non d ame     -38.917  17.398  26.582  0.00  0.00     0.028 H 
ATOM     97  H25 non d ame     -37.709  18.535  27.226  0.00  0.00     0.028 H 
ATOM     98  H26 non d ame     -39.020  19.129  26.179  0.00  0.00     0.028 H 
ENDBRANCH  93  95
BRANCH  93  99
ATOM     99  C19 non d ame     -36.369  19.142  24.997  0.00  0.00    -0.073 C 
ATOM    100  H27 non d ame     -35.632  19.008  25.790  0.00  0.00     0.028 H 
ATOM    101  H28 non d ame     -35.875  19.063  24.028  0.00  0.00     0.028 H 
ATOM    102  H29 non d ame     -36.830  20.124  25.090  0.00  0.00     0.028 H 
ENDBRANCH  93  99
ENDBRANCH  90  93
ENDBRANCH   1  90
TORSDOF 26
ENDMDL
MODEL 9
REMARK VINA RESULT:      -6.7      2.786      6.029
REMARK  26 active torsions:
REMARK  status: ('A' for Active; 'I' for Inactive)
REMARK    1  A    between atoms: C2_2  and  C3_3 
REMARK    2  A    between atoms: C4_6  and  C5_7 
REMARK       I    between atoms: C5_7  and  N2_9 
REMARK    3  A    between atoms: N2_9  and  C6_10 
REMARK    4  A    between atoms: C6_10  and  C7_11 
REMARK    5  A    between atoms: C6_10  and  C8_13 
REMARK       I    between atoms: C7_11  and  N3_14 
REMARK    6  A    between atoms: N3_14  and  C9_15 
REMARK    7  A    between atoms: C9_15  and  C10_16 
REMARK    8  A    between atoms: C9_15  and  C11_18 
REMARK       I    between atoms: C10_16  and  N4_21 
REMARK    9  A    between atoms: C11_18  and  C12_19 
REMARK   10  A    between atoms: C11_18  and  C13_20 
REMARK   11  A    between atoms: N4_21  and  C14_22 
REMARK   12  A    between atoms: C14_22  and  C15_23 
REMARK   13  A    between atoms: C14_22  and  C16_25 
REMARK       I    between atoms: C15_23  and  N6_40 
REMARK   14  A    between atoms: C16_25  and  C17_26 
REMARK   15  A    between atoms: C17_26  and  C18_27 
REMARK   16  A    between atoms: C17_26  and  C19_28 
REMARK   17  A    between atoms: C20_29  and  C21_30 
REMARK   18  A    between atoms: C20_29  and  C24_33 
REMARK   19  A    between atoms: C20_29  and  N6_40 
REMARK   20  A    between atoms: C21_30  and  C22_31 
REMARK   21  A    between atoms: C22_31  and  C23_32 
REMARK   22  A    between atoms: C23_32  and  O8_43 
REMARK   23  A    between atoms: C24_33  and  C25_34 
REMARK   24  A    between atoms: C28_38  and  O6_39 
REMARK   25  A    between atoms: C29_42  and  O8_43 
REMARK   26  A    between atoms: C29_42  and  C35_49 
ROOT
ATOM      1  C14 non d ame     -33.065   9.581  26.683  0.00  0.00     0.089 C 
ATOM      2  H20 non d ame     -34.070   9.763  26.301  0.00  0.00     0.087 H 
ENDROOT
BRANCH   1   3
ATOM      3  N4  non d ame     -32.381   8.725  25.725  0.00  0.00    -0.346 N 
ATOM      4  C10 non d ame     -33.172   7.881  24.757  0.00  0.00     0.241 C 
ATOM      5  O4  non d ame     -34.358   7.904  24.771  0.00  0.00    -0.271 OA
ATOM      6  H19 non d ame     -31.371   8.718  25.732  0.00  0.00     0.163 HD
BRANCH   4   7
ATOM      7  C9  non d ame     -32.447   7.006  23.769  0.00  0.00     0.092 C 
ATOM      8  H11 non d ame     -32.985   7.014  22.821  0.00  0.00     0.088 H 
BRANCH   7   9
ATOM      9  N3  non d ame     -31.113   7.556  23.515  0.00  0.00    -0.346 N 
ATOM     10  C7  non d ame     -30.763   8.018  22.195  0.00  0.00     0.240 C 
ATOM     11  O3  non d ame     -31.543   7.954  21.324  0.00  0.00    -0.271 OA
ATOM     12  H10 non d ame     -30.429   7.616  24.255  0.00  0.00     0.163 HD
BRANCH  10  13
ATOM     13  C6  non d ame     -29.339   8.600  21.930  0.00  0.00     0.086 C 
ATOM     14  H6  non d ame     -28.906   8.245  20.995  0.00  0.00     0.086 H 
BRANCH  13  15
ATOM     15  N2  non d ame     -29.434  10.047  21.821  0.00  0.00    -0.343 N 
ATOM     16  C5  non d ame     -30.040  10.814  22.912  0.00  0.00     0.273 C 
ATOM     17  O2  non d ame     -30.450  10.258  23.871  0.00  0.00    -0.266 OA
ATOM     18  H5  non d ame     -29.085  10.513  20.995  0.00  0.00     0.163 HD
BRANCH  16  19
ATOM     19  C4  non d ame     -30.146  12.343  22.810  0.00  0.00     0.154 A 
ATOM     20  C1  non d ame     -29.491  13.195  21.865  0.00  0.00    -0.017 A 
ATOM     21  C2  non d ame     -29.916  14.501  22.195  0.00  0.00     0.077 A 
ATOM     22  H1  non d ame     -28.810  12.909  21.063  0.00  0.00     0.091 H 
ATOM     23  O1  non d ame     -30.724  14.399  23.211  0.00  0.00    -0.218 OA
ATOM     24  N1  non d ame     -30.872  13.151  23.588  0.00  0.00    -0.123 NA
BRANCH  21  25
ATOM     25  C3  non d ame     -29.508  15.788  21.491  0.00  0.00    -0.029 C 
ATOM     26  H2  non d ame     -28.990  16.439  22.195  0.00  0.00     0.036 H 
ATOM     27  H3  non d ame     -28.843  15.552  20.660  0.00  0.00     0.036 H 
ATOM     28  H4  non d ame     -30.395  16.294  21.114  0.00  0.00     0.036 H 
ENDBRANCH  21  25
ENDBRANCH  16  19
ENDBRANCH  13  15
BRANCH  13  29
ATOM     29  C8  non d ame     -28.421   8.227  23.067  0.00  0.00    -0.049 C 
ATOM     30  H7  non d ame     -28.193   9.115  23.656  0.00  0.00     0.030 H 
ATOM     31  H8  non d ame     -28.911   7.487  23.700  0.00  0.00     0.030 H 
ATOM     32  H9  non d ame     -27.498   7.809  22.666  0.00  0.00     0.030 H 
ENDBRANCH  13  29
ENDBRANCH  10  13
ENDBRANCH   7   9
BRANCH   7  33
ATOM     33  C11 non d ame     -32.311   5.569  24.351  0.00  0.00    -0.033 C 
ATOM     34  H12 non d ame     -31.350   5.172  24.025  0.00  0.00     0.042 H 
BRANCH  33  35
ATOM     35  C12 non d ame     -32.307   5.585  25.912  0.00  0.00    -0.071 C 
ATOM     36  H13 non d ame     -33.257   5.198  26.282  0.00  0.00     0.028 H 
ATOM     37  H14 non d ame     -31.493   4.961  26.279  0.00  0.00     0.028 H 
ATOM     38  H15 non d ame     -32.170   6.607  26.265  0.00  0.00     0.028 H 
ENDBRANCH  33  35
BRANCH  33  39
ATOM     39  C13 non d ame     -33.433   4.633  23.798  0.00  0.00    -0.071 C 
ATOM     40  H16 non d ame     -33.015   3.975  23.035  0.00  0.00     0.028 H 
ATOM     41  H17 non d ame     -33.840   4.032  24.612  0.00  0.00     0.028 H 
ATOM     42  H18 non d ame     -34.228   5.237  23.361  0.00  0.00     0.028 H 
ENDBRANCH  33  39
ENDBRANCH   7  33
ENDBRANCH   4   7
ENDBRANCH   1   3
BRANCH   1  43
ATOM     43  C15 non d ame     -32.251  10.896  26.843  0.00  0.00     0.240 C 
ATOM     44  O5  non d ame     -31.092  10.910  26.578  0.00  0.00    -0.271 OA
ATOM     45  N6  non d ame     -32.917  12.143  27.316  0.00  0.00    -0.355 N 
ATOM     46  H46 non d ame     -33.903  12.145  27.538  0.00  0.00     0.162 HD
BRANCH  45  47
ATOM     47  C20 non d ame     -32.130  13.387  27.460  0.00  0.00     0.013 C 
ATOM     48  H30 non d ame     -31.244  13.297  26.831  0.00  0.00     0.072 H 
BRANCH  47  49
ATOM     49  C21 non d ame     -31.721  13.554  28.906  0.00  0.00    -0.038 C 
ATOM     50  H31 non d ame     -30.778  13.015  29.010  0.00  0.00     0.036 H 
ATOM     51  H32 non d ame     -31.760  14.625  29.101  0.00  0.00     0.036 H 
BRANCH  49  52
ATOM     52  C22 non d ame     -32.711  12.894  29.890  0.00  0.00     0.018 C 
ATOM     53  H33 non d ame     -32.954  13.661  30.623  0.00  0.00     0.048 H 
ATOM     54  H34 non d ame     -33.499  12.464  29.270  0.00  0.00     0.048 H 
BRANCH  52  55
ATOM     55  C23 non d ame     -32.103  11.711  30.691  0.00  0.00     0.259 C 
ATOM     56  O7  non d ame     -30.938  11.672  30.921  0.00  0.00    -0.265 OA
BRANCH  55  57
ATOM     57  O8  non d ame     -32.954  10.661  31.138  0.00  0.00    -0.317 OA
BRANCH  57  58
ATOM     58  C29 non d ame     -34.150  11.115  31.778  0.00  0.00     0.052 C 
ATOM     59  H47 non d ame     -33.902  11.206  32.836  0.00  0.00     0.082 H 
ATOM     60  H48 non d ame     -34.472  11.991  31.216  0.00  0.00     0.082 H 
BRANCH  58  61
ATOM     61  C35 non d ame     -35.228  10.009  31.621  0.00  0.00    -0.034 A 
ATOM     62  C30 non d ame     -36.534  10.351  31.287  0.00  0.00    -0.075 A 
ATOM     63  C31 non d ame     -37.502   9.357  31.145  0.00  0.00    -0.082 A 
ATOM     64  H49 non d ame     -36.800  11.397  31.136  0.00  0.00     0.084 H 
ATOM     65  C32 non d ame     -37.160   8.017  31.342  0.00  0.00    -0.083 A 
ATOM     66  H50 non d ame     -38.525   9.629  30.882  0.00  0.00     0.083 H 
ATOM     67  C33 non d ame     -35.856   7.680  31.678  0.00  0.00    -0.082 A 
ATOM     68  H51 non d ame     -37.910   7.234  31.232  0.00  0.00     0.083 H 
ATOM     69  C34 non d ame     -34.885   8.670  31.819  0.00  0.00    -0.075 A 
ATOM     70  H52 non d ame     -35.592   6.634  31.833  0.00  0.00     0.083 H 
ATOM     71  H53 non d ame     -33.862   8.397  32.082  0.00  0.00     0.084 H 
ENDBRANCH  58  61
ENDBRANCH  57  58
ENDBRANCH  55  57
ENDBRANCH  52  55
ENDBRANCH  49  52
ENDBRANCH  47  49
BRANCH  47  72
ATOM     72  C24 non d ame     -32.971  14.585  27.026  0.00  0.00    -0.039 C 
ATOM     73  H35 non d ame     -33.278  14.367  26.002  0.00  0.00     0.036 H 
ATOM     74  H36 non d ame     -33.723  14.709  27.805  0.00  0.00     0.036 H 
BRANCH  72  75
ATOM     75  C25 non d ame     -32.106  15.933  26.984  0.00  0.00    -0.001 C 
ATOM     76  C26 non d ame     -32.788  17.065  27.961  0.00  0.00    -0.035 C 
ATOM     77  C27 non d ame     -32.940  18.213  27.259  0.00  0.00     0.085 C 
ATOM     78  H38 non d ame     -33.811  16.780  28.208  0.00  0.00     0.036 H 
ATOM     79  H39 non d ame     -32.093  17.342  28.754  0.00  0.00     0.036 H 
ATOM     80  N5  non d ame     -32.729  17.872  25.804  0.00  0.00    -0.049 N 
ATOM     81  H40 non d ame     -33.979  18.510  27.407  0.00  0.00     0.075 H 
ATOM     82  H41 non d ame     -32.134  18.867  27.591  0.00  0.00     0.075 H 
ATOM     83  C28 non d ame     -32.043  16.411  25.785  0.00  0.00     0.193 C 
ATOM     84  H42 non d ame     -33.647  17.801  25.389  0.00  0.00     0.280 HD
ATOM     85  H43 non d ame     -32.064  18.544  25.446  0.00  0.00     0.280 HD
ATOM     86  H44 non d ame     -30.978  16.301  25.585  0.00  0.00     0.129 H 
ATOM     87  H37 non d ame     -31.041  15.744  27.112  0.00  0.00     0.046 H 
BRANCH  83  88
ATOM     88  O6  non d ame     -32.699  15.570  24.834  0.00  0.00    -0.369 OA
ATOM     89  H45 non d ame     -32.063  15.267  24.183  0.00  0.00     0.212 HD
ENDBRANCH  83  88
ENDBRANCH  72  75
ENDBRANCH  47  72
ENDBRANCH  45  47
ENDBRANCH   1  43
BRANCH   1  90
ATOM     90  C16 non d ame     -33.145   8.863  28.021  0.00  0.00    -0.035 C 
ATOM     91  H21 non d ame     -32.594   7.934  27.883  0.00  0.00     0.037 H 
ATOM     92  H22 non d ame     -32.808   9.591  28.759  0.00  0.00     0.037 H 
BRANCH  90  93
ATOM     93  C17 non d ame     -34.596   8.458  28.430  0.00  0.00    -0.059 C 
ATOM     94  H23 non d ame     -34.685   8.588  29.508  0.00  0.00     0.038 H 
BRANCH  93  95
ATOM     95  C18 non d ame     -35.674   9.362  27.750  0.00  0.00    -0.073 C 
ATOM     96  H24 non d ame     -35.306  10.386  27.694  0.00  0.00     0.028 H 
ATOM     97  H25 non d ame     -35.875   8.994  26.744  0.00  0.00     0.028 H 
ATOM     98  H26 non d ame     -36.592   9.336  28.336  0.00  0.00     0.028 H 
ENDBRANCH  93  95
BRANCH  93  99
ATOM     99  C19 non d ame     -34.857   6.980  28.128  0.00  0.00    -0.073 C 
ATOM    100  H27 non d ame     -33.905   6.457  28.023  0.00  0.00     0.028 H 
ATOM    101  H28 non d ame     -35.425   6.536  28.945  0.00  0.00     0.028 H 
ATOM    102  H29 non d ame     -35.424   6.893  27.202  0.00  0.00     0.028 H 
ENDBRANCH  93  99
ENDBRANCH  90  93
ENDBRANCH   1  90
TORSDOF 26
ENDMDL
MODEL 10
REMARK VINA RESULT:      -6.7      2.132      8.413
REMARK  26 active torsions:
REMARK  status: ('A' for Active; 'I' for Inactive)
REMARK    1  A    between atoms: C2_2  and  C3_3 
REMARK    2  A    between atoms: C4_6  and  C5_7 
REMARK       I    between atoms: C5_7  and  N2_9 
REMARK    3  A    between atoms: N2_9  and  C6_10 
REMARK    4  A    between atoms: C6_10  and  C7_11 
REMARK    5  A    between atoms: C6_10  and  C8_13 
REMARK       I    between atoms: C7_11  and  N3_14 
REMARK    6  A    between atoms: N3_14  and  C9_15 
REMARK    7  A    between atoms: C9_15  and  C10_16 
REMARK    8  A    between atoms: C9_15  and  C11_18 
REMARK       I    between atoms: C10_16  and  N4_21 
REMARK    9  A    between atoms: C11_18  and  C12_19 
REMARK   10  A    between atoms: C11_18  and  C13_20 
REMARK   11  A    between atoms: N4_21  and  C14_22 
REMARK   12  A    between atoms: C14_22  and  C15_23 
REMARK   13  A    between atoms: C14_22  and  C16_25 
REMARK       I    between atoms: C15_23  and  N6_40 
REMARK   14  A    between atoms: C16_25  and  C17_26 
REMARK   15  A    between atoms: C17_26  and  C18_27 
REMARK   16  A    between atoms: C17_26  and  C19_28 
REMARK   17  A    between atoms: C20_29  and  C21_30 
REMARK   18  A    between atoms: C20_29  and  C24_33 
REMARK   19  A    between atoms: C20_29  and  N6_40 
REMARK   20  A    between atoms: C21_30  and  C22_31 
REMARK   21  A    between atoms: C22_31  and  C23_32 
REMARK   22  A    between atoms: C23_32  and  O8_43 
REMARK   23  A    between atoms: C24_33  and  C25_34 
REMARK   24  A    between atoms: C28_38  and  O6_39 
REMARK   25  A    between atoms: C29_42  and  O8_43 
REMARK   26  A    between atoms: C29_42  and  C35_49 
ROOT
ATOM      1  C14 non d ame     -37.694  13.695  25.053  0.00  0.00     0.089 C 
ATOM      2  H20 non d ame     -38.692  13.761  25.487  0.00  0.00     0.087 H 
ENDROOT
BRANCH   1   3
ATOM      3  N4  non d ame     -37.105  15.025  25.105  0.00  0.00    -0.346 N 
ATOM      4  C10 non d ame     -37.509  15.996  26.186  0.00  0.00     0.241 C 
ATOM      5  O4  non d ame     -38.313  15.685  27.002  0.00  0.00    -0.271 OA
ATOM      6  H19 non d ame     -36.425  15.270  24.400  0.00  0.00     0.163 HD
BRANCH   4   7
ATOM      7  C9  non d ame     -36.885  17.365  26.227  0.00  0.00     0.092 C 
ATOM      8  H11 non d ame     -37.284  17.917  27.079  0.00  0.00     0.088 H 
BRANCH   7   9
ATOM      9  N3  non d ame     -35.440  17.239  26.431  0.00  0.00    -0.346 N 
ATOM     10  C7  non d ame     -34.826  17.804  27.608  0.00  0.00     0.240 C 
ATOM     11  O3  non d ame     -35.480  18.366  28.399  0.00  0.00    -0.271 OA
ATOM     12  H10 non d ame     -34.862  16.759  25.757  0.00  0.00     0.163 HD
BRANCH  10  13
ATOM     13  C6  non d ame     -33.286  17.669  27.819  0.00  0.00     0.086 C 
ATOM     14  H6  non d ame     -32.930  18.215  28.692  0.00  0.00     0.086 H 
BRANCH  13  15
ATOM     15  N2  non d ame     -32.962  16.269  28.044  0.00  0.00    -0.343 N 
ATOM     16  C5  non d ame     -32.156  15.893  29.208  0.00  0.00     0.273 C 
ATOM     17  O2  non d ame     -31.770  16.724  29.954  0.00  0.00    -0.266 OA
ATOM     18  H5  non d ame     -33.293  15.567  27.398  0.00  0.00     0.163 HD
BRANCH  16  19
ATOM     19  C4  non d ame     -31.808  14.418  29.458  0.00  0.00     0.154 A 
ATOM     20  C1  non d ame     -32.713  13.360  29.787  0.00  0.00    -0.017 A 
ATOM     21  C2  non d ame     -31.900  12.211  29.912  0.00  0.00     0.077 A 
ATOM     22  H1  non d ame     -33.794  13.416  29.916  0.00  0.00     0.091 H 
ATOM     23  O1  non d ame     -30.674  12.578  29.678  0.00  0.00    -0.218 OA
ATOM     24  N1  non d ame     -30.595  13.861  29.412  0.00  0.00    -0.123 NA
BRANCH  21  25
ATOM     25  C3  non d ame     -32.373  10.805  30.256  0.00  0.00    -0.029 C 
ATOM     26  H2  non d ame     -33.462  10.771  30.229  0.00  0.00     0.036 H 
ATOM     27  H3  non d ame     -31.970  10.099  29.530  0.00  0.00     0.036 H 
ATOM     28  H4  non d ame     -32.026  10.538  31.253  0.00  0.00     0.036 H 
ENDBRANCH  21  25
ENDBRANCH  16  19
ENDBRANCH  13  15
BRANCH  13  29
ATOM     29  C8  non d ame     -32.562  18.176  26.597  0.00  0.00    -0.049 C 
ATOM     30  H7  non d ame     -31.494  17.986  26.702  0.00  0.00     0.030 H 
ATOM     31  H8  non d ame     -32.937  17.660  25.713  0.00  0.00     0.030 H 
ATOM     32  H9  non d ame     -32.732  19.247  26.493  0.00  0.00     0.030 H 
ENDBRANCH  13  29
ENDBRANCH  10  13
ENDBRANCH   7   9
BRANCH   7  33
ATOM     33  C11 non d ame     -37.154  18.098  24.880  0.00  0.00    -0.033 C 
ATOM     34  H12 non d ame     -36.654  17.532  24.093  0.00  0.00     0.042 H 
BRANCH  33  35
ATOM     35  C12 non d ame     -38.677  18.127  24.541  0.00  0.00    -0.071 C 
ATOM     36  H13 non d ame     -38.987  19.154  24.349  0.00  0.00     0.028 H 
ATOM     37  H14 non d ame     -38.864  17.519  23.657  0.00  0.00     0.028 H 
ATOM     38  H15 non d ame     -39.244  17.729  25.383  0.00  0.00     0.028 H 
ENDBRANCH  33  35
BRANCH  33  39
ATOM     39  C13 non d ame     -36.549  19.538  24.896  0.00  0.00    -0.071 C 
ATOM     40  H16 non d ame     -36.391  19.878  23.872  0.00  0.00     0.028 H 
ATOM     41  H17 non d ame     -37.238  20.216  25.402  0.00  0.00     0.028 H 
ATOM     42  H18 non d ame     -35.598  19.527  25.426  0.00  0.00     0.028 H 
ENDBRANCH  33  39
ENDBRANCH   7  33
ENDBRANCH   4   7
ENDBRANCH   1   3
BRANCH   1  43
ATOM     43  C15 non d ame     -36.775  12.715  25.838  0.00  0.00     0.240 C 
ATOM     44  O5  non d ame     -36.979  12.510  26.991  0.00  0.00    -0.271 OA
ATOM     45  N6  non d ame     -35.647  12.025  25.150  0.00  0.00    -0.355 N 
ATOM     46  H46 non d ame     -35.468  12.188  24.169  0.00  0.00     0.162 HD
BRANCH  45  47
ATOM     47  C20 non d ame     -34.784  11.095  25.910  0.00  0.00     0.013 C 
ATOM     48  H30 non d ame     -35.426  10.481  26.541  0.00  0.00     0.072 H 
BRANCH  47  49
ATOM     49  C21 non d ame     -33.825  11.890  26.767  0.00  0.00    -0.038 C 
ATOM     50  H31 non d ame     -34.448  12.438  27.475  0.00  0.00     0.036 H 
ATOM     51  H32 non d ame     -33.090  11.173  27.129  0.00  0.00     0.036 H 
BRANCH  49  52
ATOM     52  C22 non d ame     -33.042  12.951  25.964  0.00  0.00     0.018 C 
ATOM     53  H33 non d ame     -33.304  12.785  24.921  0.00  0.00     0.048 H 
ATOM     54  H34 non d ame     -33.271  13.907  26.438  0.00  0.00     0.048 H 
BRANCH  52  55
ATOM     55  C23 non d ame     -31.499  12.790  26.051  0.00  0.00     0.259 C 
ATOM     56  O7  non d ame     -31.020  11.786  26.468  0.00  0.00    -0.265 OA
BRANCH  55  57
ATOM     57  O8  non d ame     -30.662  13.864  25.639  0.00  0.00    -0.317 OA
BRANCH  57  58
ATOM     58  C29 non d ame     -31.363  14.938  25.006  0.00  0.00     0.052 C 
ATOM     59  H47 non d ame     -32.416  14.657  25.029  0.00  0.00     0.082 H 
ATOM     60  H48 non d ame     -31.029  15.846  25.508  0.00  0.00     0.082 H 
BRANCH  58  61
ATOM     61  C35 non d ame     -30.906  15.001  23.523  0.00  0.00    -0.034 A 
ATOM     62  C30 non d ame     -30.110  13.989  22.997  0.00  0.00    -0.075 A 
ATOM     63  C31 non d ame     -29.698  14.046  21.665  0.00  0.00    -0.082 A 
ATOM     64  H49 non d ame     -29.807  13.152  23.626  0.00  0.00     0.084 H 
ATOM     65  C32 non d ame     -30.084  15.121  20.861  0.00  0.00    -0.083 A 
ATOM     66  H50 non d ame     -29.076  13.250  21.255  0.00  0.00     0.083 H 
ATOM     67  C33 non d ame     -30.876  16.130  21.392  0.00  0.00    -0.082 A 
ATOM     68  H51 non d ame     -29.768  15.172  19.819  0.00  0.00     0.083 H 
ATOM     69  C34 non d ame     -31.291  16.077  22.721  0.00  0.00    -0.075 A 
ATOM     70  H52 non d ame     -31.174  16.969  20.763  0.00  0.00     0.083 H 
ATOM     71  H53 non d ame     -31.914  16.873  23.130  0.00  0.00     0.084 H 
ENDBRANCH  58  61
ENDBRANCH  57  58
ENDBRANCH  55  57
ENDBRANCH  52  55
ENDBRANCH  49  52
ENDBRANCH  47  49
BRANCH  47  72
ATOM     72  C24 non d ame     -33.994  10.216  24.942  0.00  0.00    -0.039 C 
ATOM     73  H35 non d ame     -34.604  10.160  24.039  0.00  0.00     0.036 H 
ATOM     74  H36 non d ame     -32.997  10.654  24.900  0.00  0.00     0.036 H 
BRANCH  72  75
ATOM     75  C25 non d ame     -33.831   8.722  25.497  0.00  0.00    -0.001 C 
ATOM     76  C26 non d ame     -34.454   8.618  27.014  0.00  0.00    -0.035 C 
ATOM     77  C27 non d ame     -33.529   8.053  27.828  0.00  0.00     0.085 C 
ATOM     78  H38 non d ame     -34.587   9.615  27.434  0.00  0.00     0.036 H 
ATOM     79  H39 non d ame     -35.278   7.905  27.032  0.00  0.00     0.036 H 
ATOM     80  N5  non d ame     -32.218   8.064  27.080  0.00  0.00    -0.049 N 
ATOM     81  H40 non d ame     -33.453   8.719  28.688  0.00  0.00     0.075 H 
ATOM     82  H41 non d ame     -33.852   7.021  27.964  0.00  0.00     0.075 H 
ATOM     83  C28 non d ame     -32.588   8.372  25.539  0.00  0.00     0.193 C 
ATOM     84  H42 non d ame     -31.686   8.841  27.444  0.00  0.00     0.280 HD
ATOM     85  H43 non d ame     -31.848   7.126  27.140  0.00  0.00     0.280 HD
ATOM     86  H44 non d ame     -32.582   7.575  24.797  0.00  0.00     0.129 H 
ATOM     87  H37 non d ame     -34.158   7.975  24.774  0.00  0.00     0.046 H 
BRANCH  83  88
ATOM     88  O6  non d ame     -31.725   9.385  25.018  0.00  0.00    -0.369 OA
ATOM     89  H45 non d ame     -32.074   9.704  24.182  0.00  0.00     0.212 HD
ENDBRANCH  83  88
ENDBRANCH  72  75
ENDBRANCH  47  72
ENDBRANCH  45  47
ENDBRANCH   1  43
BRANCH   1  90
ATOM     90  C16 non d ame     -37.792  13.252  23.602  0.00  0.00    -0.035 C 
ATOM     91  H21 non d ame     -36.766  13.065  23.287  0.00  0.00     0.037 H 
ATOM     92  H22 non d ame     -38.519  12.440  23.597  0.00  0.00     0.037 H 
BRANCH  90  93
ATOM     93  C17 non d ame     -38.353  14.353  22.647  0.00  0.00    -0.059 C 
ATOM     94  H23 non d ame     -38.001  15.318  23.011  0.00  0.00     0.038 H 
BRANCH  93  95
ATOM     95  C18 non d ame     -37.839  14.179  21.182  0.00  0.00    -0.073 C 
ATOM     96  H24 non d ame     -37.708  15.160  20.724  0.00  0.00     0.028 H 
ATOM     97  H25 non d ame     -36.884  13.654  21.192  0.00  0.00     0.028 H 
ATOM     98  H26 non d ame     -38.564  13.604  20.608  0.00  0.00     0.028 H 
ENDBRANCH  93  95
BRANCH  93  99
ATOM     99  C19 non d ame     -39.883  14.383  22.687  0.00  0.00    -0.073 C 
ATOM    100  H27 non d ame     -40.279  13.548  22.107  0.00  0.00     0.028 H 
ATOM    101  H28 non d ame     -40.222  14.300  23.719  0.00  0.00     0.028 H 
ATOM    102  H29 non d ame     -40.239  15.322  22.263  0.00  0.00     0.028 H 
ENDBRANCH  93  99
ENDBRANCH  90  93
ENDBRANCH   1  90
TORSDOF 26
ENDMDL
MODEL 11
REMARK VINA RESULT:      -6.7      4.118      8.830
REMARK  26 active torsions:
REMARK  status: ('A' for Active; 'I' for Inactive)
REMARK    1  A    between atoms: C2_2  and  C3_3 
REMARK    2  A    between atoms: C4_6  and  C5_7 
REMARK       I    between atoms: C5_7  and  N2_9 
REMARK    3  A    between atoms: N2_9  and  C6_10 
REMARK    4  A    between atoms: C6_10  and  C7_11 
REMARK    5  A    between atoms: C6_10  and  C8_13 
REMARK       I    between atoms: C7_11  and  N3_14 
REMARK    6  A    between atoms: N3_14  and  C9_15 
REMARK    7  A    between atoms: C9_15  and  C10_16 
REMARK    8  A    between atoms: C9_15  and  C11_18 
REMARK       I    between atoms: C10_16  and  N4_21 
REMARK    9  A    between atoms: C11_18  and  C12_19 
REMARK   10  A    between atoms: C11_18  and  C13_20 
REMARK   11  A    between atoms: N4_21  and  C14_22 
REMARK   12  A    between atoms: C14_22  and  C15_23 
REMARK   13  A    between atoms: C14_22  and  C16_25 
REMARK       I    between atoms: C15_23  and  N6_40 
REMARK   14  A    between atoms: C16_25  and  C17_26 
REMARK   15  A    between atoms: C17_26  and  C18_27 
REMARK   16  A    between atoms: C17_26  and  C19_28 
REMARK   17  A    between atoms: C20_29  and  C21_30 
REMARK   18  A    between atoms: C20_29  and  C24_33 
REMARK   19  A    between atoms: C20_29  and  N6_40 
REMARK   20  A    between atoms: C21_30  and  C22_31 
REMARK   21  A    between atoms: C22_31  and  C23_32 
REMARK   22  A    between atoms: C23_32  and  O8_43 
REMARK   23  A    between atoms: C24_33  and  C25_34 
REMARK   24  A    between atoms: C28_38  and  O6_39 
REMARK   25  A    between atoms: C29_42  and  O8_43 
REMARK   26  A    between atoms: C29_42  and  C35_49 
ROOT
ATOM      1  C14 non d ame     -36.030   8.894  25.805  0.00  0.00     0.089 C 
ATOM      2  H20 non d ame     -37.096   8.704  25.675  0.00  0.00     0.087 H 
ENDROOT
BRANCH   1   3
ATOM      3  N4  non d ame     -35.701   8.607  27.193  0.00  0.00    -0.346 N 
ATOM      4  C10 non d ame     -36.796   8.428  28.215  0.00  0.00     0.241 C 
ATOM      5  O4  non d ame     -37.935   8.524  27.897  0.00  0.00    -0.271 OA
ATOM      6  H19 non d ame     -34.725   8.531  27.444  0.00  0.00     0.163 HD
BRANCH   4   7
ATOM      7  C9  non d ame     -36.437   8.125  29.646  0.00  0.00     0.092 C 
ATOM      8  H11 non d ame     -35.592   7.435  29.665  0.00  0.00     0.088 H 
BRANCH   7   9
ATOM      9  N3  non d ame     -36.007   9.356  30.314  0.00  0.00    -0.346 N 
ATOM     10  C7  non d ame     -34.830   9.351  31.148  0.00  0.00     0.240 C 
ATOM     11  O3  non d ame     -34.218   8.364  31.293  0.00  0.00    -0.271 OA
ATOM     12  H10 non d ame     -36.526  10.215  30.200  0.00  0.00     0.163 HD
BRANCH  10  13
ATOM     13  C6  non d ame     -34.379  10.664  31.859  0.00  0.00     0.086 C 
ATOM     14  H6  non d ame     -33.519  10.516  32.512  0.00  0.00     0.086 H 
BRANCH  13  15
ATOM     15  N2  non d ame     -33.975  11.631  30.851  0.00  0.00    -0.343 N 
ATOM     16  C5  non d ame     -32.558  11.757  30.501  0.00  0.00     0.273 C 
ATOM     17  O2  non d ame     -31.752  11.079  31.037  0.00  0.00    -0.266 OA
ATOM     18  H5  non d ame     -34.670  12.209  30.401  0.00  0.00     0.163 HD
BRANCH  16  19
ATOM     19  C4  non d ame     -32.117  12.774  29.437  0.00  0.00     0.154 A 
ATOM     20  C1  non d ame     -32.843  13.919  28.980  0.00  0.00    -0.017 A 
ATOM     21  C2  non d ame     -32.010  14.515  28.007  0.00  0.00     0.077 A 
ATOM     22  H1  non d ame     -33.824  14.265  29.304  0.00  0.00     0.091 H 
ATOM     23  O1  non d ame     -30.932  13.790  27.924  0.00  0.00    -0.218 OA
ATOM     24  N1  non d ame     -30.972  12.768  28.748  0.00  0.00    -0.123 NA
BRANCH  21  25
ATOM     25  C3  non d ame     -32.316  15.773  27.206  0.00  0.00    -0.029 C 
ATOM     26  H2  non d ame     -31.404  16.129  26.726  0.00  0.00     0.036 H 
ATOM     27  H3  non d ame     -33.062  15.546  26.445  0.00  0.00     0.036 H 
ATOM     28  H4  non d ame     -32.699  16.544  27.873  0.00  0.00     0.036 H 
ENDBRANCH  21  25
ENDBRANCH  16  19
ENDBRANCH  13  15
BRANCH  13  29
ATOM     29  C8  non d ame     -35.522  11.216  32.674  0.00  0.00    -0.049 C 
ATOM     30  H7  non d ame     -35.226  11.275  33.721  0.00  0.00     0.030 H 
ATOM     31  H8  non d ame     -35.778  12.212  32.312  0.00  0.00     0.030 H 
ATOM     32  H9  non d ame     -36.387  10.560  32.577  0.00  0.00     0.030 H 
ENDBRANCH  13  29
ENDBRANCH  10  13
ENDBRANCH   7   9
BRANCH   7  33
ATOM     33  C11 non d ame     -37.680   7.545  30.381  0.00  0.00    -0.033 C 
ATOM     34  H12 non d ame     -38.457   7.381  29.633  0.00  0.00     0.042 H 
BRANCH  33  35
ATOM     35  C12 non d ame     -37.362   6.165  31.037  0.00  0.00    -0.071 C 
ATOM     36  H13 non d ame     -37.664   5.364  30.363  0.00  0.00     0.028 H 
ATOM     37  H14 non d ame     -36.293   6.094  31.231  0.00  0.00     0.028 H 
ATOM     38  H15 non d ame     -37.909   6.075  31.976  0.00  0.00     0.028 H 
ENDBRANCH  33  35
BRANCH  33  39
ATOM     39  C13 non d ame     -38.231   8.560  31.434  0.00  0.00    -0.071 C 
ATOM     40  H16 non d ame     -39.030   8.091  32.008  0.00  0.00     0.028 H 
ATOM     41  H17 non d ame     -37.426   8.858  32.107  0.00  0.00     0.028 H 
ATOM     42  H18 non d ame     -38.619   9.440  30.922  0.00  0.00     0.028 H 
ENDBRANCH  33  39
ENDBRANCH   7  33
ENDBRANCH   4   7
ENDBRANCH   1   3
BRANCH   1  43
ATOM     43  C15 non d ame     -35.156   7.990  24.891  0.00  0.00     0.240 C 
ATOM     44  O5  non d ame     -35.643   7.050  24.351  0.00  0.00    -0.271 OA
ATOM     45  N6  non d ame     -33.714   8.301  24.681  0.00  0.00    -0.355 N 
ATOM     46  H46 non d ame     -33.291   9.101  25.130  0.00  0.00     0.162 HD
BRANCH  45  47
ATOM     47  C20 non d ame     -32.896   7.433  23.806  0.00  0.00     0.013 C 
ATOM     48  H30 non d ame     -33.557   6.692  23.356  0.00  0.00     0.072 H 
BRANCH  47  49
ATOM     49  C21 non d ame     -31.837   6.743  24.637  0.00  0.00    -0.038 C 
ATOM     50  H31 non d ame     -31.221   6.188  23.927  0.00  0.00     0.036 H 
ATOM     51  H32 non d ame     -31.390   7.524  25.251  0.00  0.00     0.036 H 
BRANCH  49  52
ATOM     52  C22 non d ame     -32.424   5.701  25.613  0.00  0.00     0.018 C 
ATOM     53  H33 non d ame     -33.482   5.627  25.364  0.00  0.00     0.048 H 
ATOM     54  H34 non d ame     -31.781   4.824  25.528  0.00  0.00     0.048 H 
BRANCH  52  55
ATOM     55  C23 non d ame     -32.364   6.135  27.103  0.00  0.00     0.259 C 
ATOM     56  O7  non d ame     -32.306   7.285  27.395  0.00  0.00    -0.265 OA
BRANCH  55  57
ATOM     57  O8  non d ame     -32.362   5.139  28.119  0.00  0.00    -0.317 OA
BRANCH  57  58
ATOM     58  C29 non d ame     -33.629   4.962  28.762  0.00  0.00     0.052 C 
ATOM     59  H47 non d ame     -34.043   5.964  28.876  0.00  0.00     0.082 H 
ATOM     60  H48 non d ame     -34.159   4.217  28.169  0.00  0.00     0.082 H 
BRANCH  58  61
ATOM     61  C35 non d ame     -33.371   4.373  30.175  0.00  0.00    -0.034 A 
ATOM     62  C30 non d ame     -34.178   4.750  31.244  0.00  0.00    -0.075 A 
ATOM     63  C31 non d ame     -33.946   4.221  32.513  0.00  0.00    -0.082 A 
ATOM     64  H49 non d ame     -34.990   5.460  31.088  0.00  0.00     0.084 H 
ATOM     65  C32 non d ame     -32.902   3.314  32.711  0.00  0.00    -0.083 A 
ATOM     66  H50 non d ame     -34.581   4.518  33.349  0.00  0.00     0.083 H 
ATOM     67  C33 non d ame     -32.098   2.944  31.642  0.00  0.00    -0.082 A 
ATOM     68  H51 non d ame     -32.715   2.896  33.700  0.00  0.00     0.083 H 
ATOM     69  C34 non d ame     -32.327   3.468  30.372  0.00  0.00    -0.075 A 
ATOM     70  H52 non d ame     -31.282   2.237  31.800  0.00  0.00     0.083 H 
ATOM     71  H53 non d ame     -31.691   3.171  29.537  0.00  0.00     0.084 H 
ENDBRANCH  58  61
ENDBRANCH  57  58
ENDBRANCH  55  57
ENDBRANCH  52  55
ENDBRANCH  49  52
ENDBRANCH  47  49
BRANCH  47  72
ATOM     72  C24 non d ame     -32.226   8.274  22.722  0.00  0.00    -0.039 C 
ATOM     73  H35 non d ame     -31.911   7.563  21.957  0.00  0.00     0.036 H 
ATOM     74  H36 non d ame     -32.946   9.055  22.476  0.00  0.00     0.036 H 
BRANCH  72  75
ATOM     75  C25 non d ame     -30.907   9.001  23.266  0.00  0.00    -0.001 C 
ATOM     76  C26 non d ame     -31.231  10.580  23.590  0.00  0.00    -0.035 C 
ATOM     77  C27 non d ame     -30.306  11.352  22.971  0.00  0.00     0.085 C 
ATOM     78  H38 non d ame     -32.167  10.874  23.116  0.00  0.00     0.036 H 
ATOM     79  H39 non d ame     -31.067  10.785  24.648  0.00  0.00     0.036 H 
ATOM     80  N5  non d ame     -29.578  10.466  21.989  0.00  0.00    -0.049 N 
ATOM     81  H40 non d ame     -30.874  12.102  22.420  0.00  0.00     0.075 H 
ATOM     82  H41 non d ame     -29.613  11.660  23.753  0.00  0.00     0.075 H 
ATOM     83  C28 non d ame     -29.952   8.950  22.396  0.00  0.00     0.193 C 
ATOM     84  H42 non d ame     -29.971  10.662  21.080  0.00  0.00     0.280 HD
ATOM     85  H43 non d ame     -28.591  10.609  22.153  0.00  0.00     0.280 HD
ATOM     86  H44 non d ame     -29.235   8.325  22.927  0.00  0.00     0.129 H 
ATOM     87  H37 non d ame     -30.410   8.426  24.047  0.00  0.00     0.046 H 
BRANCH  83  88
ATOM     88  O6  non d ame     -30.321   8.204  21.234  0.00  0.00    -0.369 OA
ATOM     89  H45 non d ame     -31.127   8.570  20.862  0.00  0.00     0.212 HD
ENDBRANCH  83  88
ENDBRANCH  72  75
ENDBRANCH  47  72
ENDBRANCH  45  47
ENDBRANCH   1  43
BRANCH   1  90
ATOM     90  C16 non d ame     -35.729  10.356  25.517  0.00  0.00    -0.035 C 
ATOM     91  H21 non d ame     -35.063  10.350  24.655  0.00  0.00     0.037 H 
ATOM     92  H22 non d ame     -36.702  10.843  25.450  0.00  0.00     0.037 H 
BRANCH  90  93
ATOM     93  C17 non d ame     -34.954  11.075  26.667  0.00  0.00    -0.059 C 
ATOM     94  H23 non d ame     -34.792  10.348  27.462  0.00  0.00     0.038 H 
BRANCH  93  95
ATOM     95  C18 non d ame     -33.555  11.592  26.200  0.00  0.00    -0.073 C 
ATOM     96  H24 non d ame     -33.374  12.581  26.621  0.00  0.00     0.028 H 
ATOM     97  H25 non d ame     -32.781  10.905  26.544  0.00  0.00     0.028 H 
ATOM     98  H26 non d ame     -33.533  11.650  25.113  0.00  0.00     0.028 H 
ENDBRANCH  93  95
BRANCH  93  99
ATOM     99  C19 non d ame     -35.786  12.217  27.257  0.00  0.00    -0.073 C 
ATOM    100  H27 non d ame     -35.706  13.095  26.615  0.00  0.00     0.028 H 
ATOM    101  H28 non d ame     -36.830  11.910  27.322  0.00  0.00     0.028 H 
ATOM    102  H29 non d ame     -35.417  12.459  28.253  0.00  0.00     0.028 H 
ENDBRANCH  93  99
ENDBRANCH  90  93
ENDBRANCH   1  90
TORSDOF 26
ENDMDL
MODEL 12
REMARK VINA RESULT:      -6.7      3.250      9.144
REMARK  26 active torsions:
REMARK  status: ('A' for Active; 'I' for Inactive)
REMARK    1  A    between atoms: C2_2  and  C3_3 
REMARK    2  A    between atoms: C4_6  and  C5_7 
REMARK       I    between atoms: C5_7  and  N2_9 
REMARK    3  A    between atoms: N2_9  and  C6_10 
REMARK    4  A    between atoms: C6_10  and  C7_11 
REMARK    5  A    between atoms: C6_10  and  C8_13 
REMARK       I    between atoms: C7_11  and  N3_14 
REMARK    6  A    between atoms: N3_14  and  C9_15 
REMARK    7  A    between atoms: C9_15  and  C10_16 
REMARK    8  A    between atoms: C9_15  and  C11_18 
REMARK       I    between atoms: C10_16  and  N4_21 
REMARK    9  A    between atoms: C11_18  and  C12_19 
REMARK   10  A    between atoms: C11_18  and  C13_20 
REMARK   11  A    between atoms: N4_21  and  C14_22 
REMARK   12  A    between atoms: C14_22  and  C15_23 
REMARK   13  A    between atoms: C14_22  and  C16_25 
REMARK       I    between atoms: C15_23  and  N6_40 
REMARK   14  A    between atoms: C16_25  and  C17_26 
REMARK   15  A    between atoms: C17_26  and  C18_27 
REMARK   16  A    between atoms: C17_26  and  C19_28 
REMARK   17  A    between atoms: C20_29  and  C21_30 
REMARK   18  A    between atoms: C20_29  and  C24_33 
REMARK   19  A    between atoms: C20_29  and  N6_40 
REMARK   20  A    between atoms: C21_30  and  C22_31 
REMARK   21  A    between atoms: C22_31  and  C23_32 
REMARK   22  A    between atoms: C23_32  and  O8_43 
REMARK   23  A    between atoms: C24_33  and  C25_34 
REMARK   24  A    between atoms: C28_38  and  O6_39 
REMARK   25  A    between atoms: C29_42  and  O8_43 
REMARK   26  A    between atoms: C29_42  and  C35_49 
ROOT
ATOM      1  C14 non d ame     -33.961   6.669  27.482  0.00  0.00     0.089 C 
ATOM      2  H20 non d ame     -33.596   6.213  28.402  0.00  0.00     0.087 H 
ENDROOT
BRANCH   1   3
ATOM      3  N4  non d ame     -34.336   8.040  27.792  0.00  0.00    -0.346 N 
ATOM      4  C10 non d ame     -34.785   8.411  29.184  0.00  0.00     0.241 C 
ATOM      5  O4  non d ame     -34.840   7.588  30.036  0.00  0.00    -0.271 OA
ATOM      6  H19 non d ame     -34.284   8.726  27.052  0.00  0.00     0.163 HD
BRANCH   4   7
ATOM      7  C9  non d ame     -35.164   9.837  29.488  0.00  0.00     0.092 C 
ATOM      8  H11 non d ame     -35.355   9.937  30.557  0.00  0.00     0.088 H 
BRANCH   7   9
ATOM      9  N3  non d ame     -34.041  10.721  29.164  0.00  0.00    -0.346 N 
ATOM     10  C7  non d ame     -33.027  10.991  30.153  0.00  0.00     0.240 C 
ATOM     11  O3  non d ame     -33.100  10.507  31.216  0.00  0.00    -0.271 OA
ATOM     12  H10 non d ame     -33.966  11.148  28.252  0.00  0.00     0.163 HD
BRANCH  10  13
ATOM     13  C6  non d ame     -31.836  11.937  29.803  0.00  0.00     0.086 C 
ATOM     14  H6  non d ame     -31.298  11.623  28.908  0.00  0.00     0.086 H 
BRANCH  13  15
ATOM     15  N2  non d ame     -32.355  13.267  29.531  0.00  0.00    -0.343 N 
ATOM     16  C5  non d ame     -31.551  14.208  28.747  0.00  0.00     0.273 C 
ATOM     17  O2  non d ame     -30.488  13.886  28.342  0.00  0.00    -0.266 OA
ATOM     18  H5  non d ame     -33.262  13.535  29.884  0.00  0.00     0.163 HD
BRANCH  16  19
ATOM     19  C4  non d ame     -32.088  15.617  28.451  0.00  0.00     0.154 A 
ATOM     20  C1  non d ame     -32.519  16.130  27.187  0.00  0.00    -0.017 A 
ATOM     21  C2  non d ame     -32.915  17.461  27.450  0.00  0.00     0.077 A 
ATOM     22  H1  non d ame     -32.540  15.618  26.225  0.00  0.00     0.091 H 
ATOM     23  O1  non d ame     -32.731  17.675  28.721  0.00  0.00    -0.218 OA
ATOM     24  N1  non d ame     -32.249  16.614  29.325  0.00  0.00    -0.123 NA
BRANCH  21  25
ATOM     25  C3  non d ame     -33.458  18.458  26.435  0.00  0.00    -0.029 C 
ATOM     26  H2  non d ame     -32.896  19.390  26.504  0.00  0.00     0.036 H 
ATOM     27  H3  non d ame     -33.355  18.046  25.431  0.00  0.00     0.036 H 
ATOM     28  H4  non d ame     -34.509  18.652  26.643  0.00  0.00     0.036 H 
ENDBRANCH  21  25
ENDBRANCH  16  19
ENDBRANCH  13  15
BRANCH  13  29
ATOM     29  C8  non d ame     -30.872  11.985  30.961  0.00  0.00    -0.049 C 
ATOM     30  H7  non d ame     -31.332  12.513  31.795  0.00  0.00     0.030 H 
ATOM     31  H8  non d ame     -30.622  10.969  31.267  0.00  0.00     0.030 H 
ATOM     32  H9  non d ame     -29.964  12.506  30.656  0.00  0.00     0.030 H 
ENDBRANCH  13  29
ENDBRANCH  10  13
ENDBRANCH   7   9
BRANCH   7  33
ATOM     33  C11 non d ame     -36.401  10.238  28.634  0.00  0.00    -0.033 C 
ATOM     34  H12 non d ame     -36.690   9.367  28.044  0.00  0.00     0.042 H 
BRANCH  33  35
ATOM     35  C12 non d ame     -37.617  10.617  29.536  0.00  0.00    -0.071 C 
ATOM     36  H13 non d ame     -37.421  10.303  30.561  0.00  0.00     0.028 H 
ATOM     37  H14 non d ame     -37.766  11.696  29.509  0.00  0.00     0.028 H 
ATOM     38  H15 non d ame     -38.513  10.117  29.168  0.00  0.00     0.028 H 
ENDBRANCH  33  35
BRANCH  33  39
ATOM     39  C13 non d ame     -36.047  11.394  27.645  0.00  0.00    -0.071 C 
ATOM     40  H16 non d ame     -35.678  10.973  26.709  0.00  0.00     0.028 H 
ATOM     41  H17 non d ame     -36.939  11.991  27.448  0.00  0.00     0.028 H 
ATOM     42  H18 non d ame     -35.279  12.028  28.087  0.00  0.00     0.028 H 
ENDBRANCH  33  39
ENDBRANCH   7  33
ENDBRANCH   4   7
ENDBRANCH   1   3
BRANCH   1  43
ATOM     43  C15 non d ame     -32.877   6.692  26.367  0.00  0.00     0.240 C 
ATOM     44  O5  non d ame     -31.861   6.095  26.519  0.00  0.00    -0.271 OA
ATOM     45  N6  non d ame     -33.109   7.452  25.106  0.00  0.00    -0.355 N 
ATOM     46  H46 non d ame     -33.971   7.959  24.964  0.00  0.00     0.162 HD
BRANCH  45  47
ATOM     47  C20 non d ame     -32.069   7.463  24.054  0.00  0.00     0.013 C 
ATOM     48  H30 non d ame     -31.179   6.979  24.457  0.00  0.00     0.072 H 
BRANCH  47  49
ATOM     49  C21 non d ame     -31.754   8.893  23.677  0.00  0.00    -0.038 C 
ATOM     50  H31 non d ame     -30.728   9.065  24.005  0.00  0.00     0.036 H 
ATOM     51  H32 non d ame     -32.012   8.982  22.622  0.00  0.00     0.036 H 
BRANCH  49  52
ATOM     52  C22 non d ame     -32.630   9.918  24.429  0.00  0.00     0.018 C 
ATOM     53  H33 non d ame     -32.770  10.749  23.739  0.00  0.00     0.048 H 
ATOM     54  H34 non d ame     -33.494   9.358  24.790  0.00  0.00     0.048 H 
BRANCH  52  55
ATOM     55  C23 non d ame     -31.950  10.517  25.690  0.00  0.00     0.259 C 
ATOM     56  O7  non d ame     -32.226  10.115  26.774  0.00  0.00    -0.265 OA
BRANCH  55  57
ATOM     57  O8  non d ame     -31.000  11.565  25.539  0.00  0.00    -0.317 OA
BRANCH  57  58
ATOM     58  C29 non d ame     -31.580  12.834  25.223  0.00  0.00     0.052 C 
ATOM     59  H47 non d ame     -32.592  12.618  24.880  0.00  0.00     0.082 H 
ATOM     60  H48 non d ame     -31.424  13.458  26.103  0.00  0.00     0.082 H 
BRANCH  58  61
ATOM     61  C35 non d ame     -30.781  13.445  24.040  0.00  0.00    -0.034 A 
ATOM     62  C30 non d ame     -30.655  14.826  23.925  0.00  0.00    -0.075 A 
ATOM     63  C31 non d ame     -29.937  15.375  22.863  0.00  0.00    -0.082 A 
ATOM     64  H49 non d ame     -31.118  15.478  24.666  0.00  0.00     0.084 H 
ATOM     65  C32 non d ame     -29.347  14.538  21.912  0.00  0.00    -0.083 A 
ATOM     66  H50 non d ame     -29.839  16.458  22.776  0.00  0.00     0.083 H 
ATOM     67  C33 non d ame     -29.479  13.161  22.030  0.00  0.00    -0.082 A 
ATOM     68  H51 non d ame     -28.784  14.959  21.080  0.00  0.00     0.083 H 
ATOM     69  C34 non d ame     -30.193  12.608  23.091  0.00  0.00    -0.075 A 
ATOM     70  H52 non d ame     -29.020  12.510  21.285  0.00  0.00     0.083 H 
ATOM     71  H53 non d ame     -30.291  11.525  23.176  0.00  0.00     0.084 H 
ENDBRANCH  58  61
ENDBRANCH  57  58
ENDBRANCH  55  57
ENDBRANCH  52  55
ENDBRANCH  49  52
ENDBRANCH  47  49
BRANCH  47  72
ATOM     72  C24 non d ame     -32.570   6.709  22.824  0.00  0.00    -0.039 C 
ATOM     73  H35 non d ame     -31.763   6.025  22.555  0.00  0.00     0.036 H 
ATOM     74  H36 non d ame     -33.547   6.316  23.103  0.00  0.00     0.036 H 
BRANCH  72  75
ATOM     75  C25 non d ame     -32.793   7.690  21.577  0.00  0.00    -0.001 C 
ATOM     76  C26 non d ame     -34.374   8.131  21.490  0.00  0.00    -0.035 C 
ATOM     77  C27 non d ame     -34.822   7.904  20.231  0.00  0.00     0.085 C 
ATOM     78  H38 non d ame     -34.983   7.466  22.101  0.00  0.00     0.036 H 
ATOM     79  H39 non d ame     -34.467   9.212  21.602  0.00  0.00     0.036 H 
ATOM     80  N5  non d ame     -33.788   7.045  19.544  0.00  0.00    -0.049 N 
ATOM     81  H40 non d ame     -35.741   7.329  20.348  0.00  0.00     0.075 H 
ATOM     82  H41 non d ame     -34.847   8.882  19.750  0.00  0.00     0.075 H 
ATOM     83  C28 non d ame     -32.466   7.117  20.467  0.00  0.00     0.193 C 
ATOM     84  H42 non d ame     -34.143   6.099  19.563  0.00  0.00     0.280 HD
ATOM     85  H43 non d ame     -33.588   7.491  18.660  0.00  0.00     0.280 HD
ATOM     86  H44 non d ame     -31.616   7.730  20.170  0.00  0.00     0.129 H 
ATOM     87  H37 non d ame     -32.052   8.488  21.542  0.00  0.00     0.046 H 
BRANCH  83  88
ATOM     88  O6  non d ame     -31.937   5.805  20.672  0.00  0.00    -0.369 OA
ATOM     89  H45 non d ame     -32.658   5.186  20.804  0.00  0.00     0.212 HD
ENDBRANCH  83  88
ENDBRANCH  72  75
ENDBRANCH  47  72
ENDBRANCH  45  47
ENDBRANCH   1  43
BRANCH   1  90
ATOM     90  C16 non d ame     -35.188   5.920  26.987  0.00  0.00    -0.035 C 
ATOM     91  H21 non d ame     -35.999   6.646  27.009  0.00  0.00     0.037 H 
ATOM     92  H22 non d ame     -34.888   5.468  26.042  0.00  0.00     0.037 H 
BRANCH  90  93
ATOM     93  C17 non d ame     -35.624   4.745  27.919  0.00  0.00    -0.059 C 
ATOM     94  H23 non d ame     -34.825   4.582  28.642  0.00  0.00     0.038 H 
BRANCH  93  95
ATOM     95  C18 non d ame     -36.927   5.077  28.715  0.00  0.00    -0.073 C 
ATOM     96  H24 non d ame     -37.634   5.584  28.058  0.00  0.00     0.028 H 
ATOM     97  H25 non d ame     -37.373   4.153  29.083  0.00  0.00     0.028 H 
ATOM     98  H26 non d ame     -36.684   5.724  29.557  0.00  0.00     0.028 H 
ENDBRANCH  93  95
BRANCH  93  99
ATOM     99  C19 non d ame     -35.788   3.448  27.124  0.00  0.00    -0.073 C 
ATOM    100  H27 non d ame     -36.838   3.152  27.121  0.00  0.00     0.028 H 
ATOM    101  H28 non d ame     -35.454   3.605  26.098  0.00  0.00     0.028 H 
ATOM    102  H29 non d ame     -35.190   2.661  27.583  0.00  0.00     0.028 H 
ENDBRANCH  93  99
ENDBRANCH  90  93
ENDBRANCH   1  90
TORSDOF 26
ENDMDL
MODEL 13
REMARK VINA RESULT:      -6.7      1.880      5.021
REMARK  26 active torsions:
REMARK  status: ('A' for Active; 'I' for Inactive)
REMARK    1  A    between atoms: C2_2  and  C3_3 
REMARK    2  A    between atoms: C4_6  and  C5_7 
REMARK       I    between atoms: C5_7  and  N2_9 
REMARK    3  A    between atoms: N2_9  and  C6_10 
REMARK    4  A    between atoms: C6_10  and  C7_11 
REMARK    5  A    between atoms: C6_10  and  C8_13 
REMARK       I    between atoms: C7_11  and  N3_14 
REMARK    6  A    between atoms: N3_14  and  C9_15 
REMARK    7  A    between atoms: C9_15  and  C10_16 
REMARK    8  A    between atoms: C9_15  and  C11_18 
REMARK       I    between atoms: C10_16  and  N4_21 
REMARK    9  A    between atoms: C11_18  and  C12_19 
REMARK   10  A    between atoms: C11_18  and  C13_20 
REMARK   11  A    between atoms: N4_21  and  C14_22 
REMARK   12  A    between atoms: C14_22  and  C15_23 
REMARK   13  A    between atoms: C14_22  and  C16_25 
REMARK       I    between atoms: C15_23  and  N6_40 
REMARK   14  A    between atoms: C16_25  and  C17_26 
REMARK   15  A    between atoms: C17_26  and  C18_27 
REMARK   16  A    between atoms: C17_26  and  C19_28 
REMARK   17  A    between atoms: C20_29  and  C21_30 
REMARK   18  A    between atoms: C20_29  and  C24_33 
REMARK   19  A    between atoms: C20_29  and  N6_40 
REMARK   20  A    between atoms: C21_30  and  C22_31 
REMARK   21  A    between atoms: C22_31  and  C23_32 
REMARK   22  A    between atoms: C23_32  and  O8_43 
REMARK   23  A    between atoms: C24_33  and  C25_34 
REMARK   24  A    between atoms: C28_38  and  O6_39 
REMARK   25  A    between atoms: C29_42  and  O8_43 
REMARK   26  A    between atoms: C29_42  and  C35_49 
ROOT
ATOM      1  C14 non d ame     -30.972  13.631  24.659  0.00  0.00     0.089 C 
ATOM      2  H20 non d ame     -29.952  13.452  25.001  0.00  0.00     0.087 H 
ENDROOT
BRANCH   1   3
ATOM      3  N4  non d ame     -31.446  12.404  24.037  0.00  0.00    -0.346 N 
ATOM      4  C10 non d ame     -31.296  11.082  24.748  0.00  0.00     0.241 C 
ATOM      5  O4  non d ame     -30.787  11.030  25.818  0.00  0.00    -0.271 OA
ATOM      6  H19 non d ame     -31.874  12.469  23.125  0.00  0.00     0.163 HD
BRANCH   4   7
ATOM      7  C9  non d ame     -31.798   9.823  24.092  0.00  0.00     0.092 C 
ATOM      8  H11 non d ame     -31.643   8.980  24.766  0.00  0.00     0.088 H 
BRANCH   7   9
ATOM      9  N3  non d ame     -33.241   9.933  23.861  0.00  0.00    -0.346 N 
ATOM     10  C7  non d ame     -34.160   9.807  24.965  0.00  0.00     0.240 C 
ATOM     11  O3  non d ame     -33.755   9.614  26.046  0.00  0.00    -0.271 OA
ATOM     12  H10 non d ame     -33.605  10.098  22.934  0.00  0.00     0.163 HD
BRANCH  10  13
ATOM     13  C6  non d ame     -35.695   9.922  24.712  0.00  0.00     0.086 C 
ATOM     14  H6  non d ame     -36.285   9.365  25.440  0.00  0.00     0.086 H 
BRANCH  13  15
ATOM     15  N2  non d ame     -36.089  11.316  24.838  0.00  0.00    -0.343 N 
ATOM     16  C5  non d ame     -36.674  11.790  26.095  0.00  0.00     0.273 C 
ATOM     17  O2  non d ame     -36.825  11.042  26.997  0.00  0.00    -0.266 OA
ATOM     18  H5  non d ame     -35.960  11.947  24.060  0.00  0.00     0.163 HD
BRANCH  16  19
ATOM     19  C4  non d ame     -37.094  13.260  26.242  0.00  0.00     0.154 A 
ATOM     20  C1  non d ame     -36.428  14.408  25.706  0.00  0.00    -0.017 A 
ATOM     21  C2  non d ame     -37.209  15.509  26.121  0.00  0.00     0.077 A 
ATOM     22  H1  non d ame     -35.517  14.437  25.108  0.00  0.00     0.091 H 
ATOM     23  O1  non d ame     -38.206  15.038  26.812  0.00  0.00    -0.218 OA
ATOM     24  N1  non d ame     -38.160  13.729  26.897  0.00  0.00    -0.123 NA
BRANCH  21  25
ATOM     25  C3  non d ame     -36.935  16.976  25.815  0.00  0.00    -0.029 C 
ATOM     26  H2  non d ame     -37.359  17.597  26.604  0.00  0.00     0.036 H 
ATOM     27  H3  non d ame     -35.859  17.141  25.763  0.00  0.00     0.036 H 
ATOM     28  H4  non d ame     -37.390  17.239  24.862  0.00  0.00     0.036 H 
ENDBRANCH  21  25
ENDBRANCH  16  19
ENDBRANCH  13  15
BRANCH  13  29
ATOM     29  C8  non d ame     -36.019   9.417  23.329  0.00  0.00    -0.049 C 
ATOM     30  H7  non d ame     -36.296   8.364  23.383  0.00  0.00     0.030 H 
ATOM     31  H8  non d ame     -36.851   9.991  22.919  0.00  0.00     0.030 H 
ATOM     32  H9  non d ame     -35.146   9.531  22.687  0.00  0.00     0.030 H 
ENDBRANCH  13  29
ENDBRANCH  10  13
ENDBRANCH   7   9
BRANCH   7  33
ATOM     33  C11 non d ame     -31.071   9.623  22.730  0.00  0.00    -0.033 C 
ATOM     34  H12 non d ame     -31.235  10.521  22.135  0.00  0.00     0.042 H 
BRANCH  33  35
ATOM     35  C12 non d ame     -29.530   9.464  22.925  0.00  0.00    -0.071 C 
ATOM     36  H13 non d ame     -29.040   9.455  21.952  0.00  0.00     0.028 H 
ATOM     37  H14 non d ame     -29.152  10.298  23.515  0.00  0.00     0.028 H 
ATOM     38  H15 non d ame     -29.324   8.528  23.444  0.00  0.00     0.028 H 
ENDBRANCH  33  35
BRANCH  33  39
ATOM     39  C13 non d ame     -31.670   8.410  21.949  0.00  0.00    -0.071 C 
ATOM     40  H16 non d ame     -32.119   8.762  21.019  0.00  0.00     0.028 H 
ATOM     41  H17 non d ame     -30.878   7.695  21.722  0.00  0.00     0.028 H 
ATOM     42  H18 non d ame     -32.431   7.925  22.559  0.00  0.00     0.028 H 
ENDBRANCH  33  39
ENDBRANCH   7  33
ENDBRANCH   4   7
ENDBRANCH   1   3
BRANCH   1  43
ATOM     43  C15 non d ame     -31.929  13.996  25.829  0.00  0.00     0.240 C 
ATOM     44  O5  non d ame     -33.101  13.843  25.703  0.00  0.00    -0.271 OA
ATOM     45  N6  non d ame     -31.384  14.527  27.110  0.00  0.00    -0.355 N 
ATOM     46  H46 non d ame     -30.389  14.656  27.231  0.00  0.00     0.162 HD
BRANCH  45  47
ATOM     47  C20 non d ame     -32.307  14.867  28.215  0.00  0.00     0.013 C 
ATOM     48  H30 non d ame     -33.271  14.404  28.001  0.00  0.00     0.072 H 
BRANCH  47  49
ATOM     49  C21 non d ame     -32.461  16.369  28.292  0.00  0.00    -0.038 C 
ATOM     50  H31 non d ame     -32.771  16.582  29.317  0.00  0.00     0.036 H 
ATOM     51  H32 non d ame     -31.529  16.781  27.908  0.00  0.00     0.036 H 
BRANCH  49  52
ATOM     52  C22 non d ame     -33.584  16.905  27.378  0.00  0.00     0.018 C 
ATOM     53  H33 non d ame     -34.052  16.025  26.939  0.00  0.00     0.048 H 
ATOM     54  H34 non d ame     -34.173  17.581  28.000  0.00  0.00     0.048 H 
BRANCH  52  55
ATOM     55  C23 non d ame     -33.069  17.757  26.186  0.00  0.00     0.259 C 
ATOM     56  O7  non d ame     -32.168  17.373  25.514  0.00  0.00    -0.265 OA
BRANCH  55  57
ATOM     57  O8  non d ame     -33.678  19.014  25.914  0.00  0.00    -0.317 OA
BRANCH  57  58
ATOM     58  C29 non d ame     -33.775  19.873  27.055  0.00  0.00     0.052 C 
ATOM     59  H47 non d ame     -33.328  19.318  27.880  0.00  0.00     0.082 H 
ATOM     60  H48 non d ame     -33.348  20.826  26.744  0.00  0.00     0.082 H 
BRANCH  58  61
ATOM     61  C35 non d ame     -35.280  20.087  27.367  0.00  0.00    -0.034 A 
ATOM     62  C30 non d ame     -36.094  20.748  26.452  0.00  0.00    -0.075 A 
ATOM     63  C31 non d ame     -37.446  20.941  26.733  0.00  0.00    -0.082 A 
ATOM     64  H49 non d ame     -35.672  21.116  25.517  0.00  0.00     0.084 H 
ATOM     65  C32 non d ame     -37.983  20.472  27.935  0.00  0.00    -0.083 A 
ATOM     66  H50 non d ame     -38.081  21.459  26.013  0.00  0.00     0.083 H 
ATOM     67  C33 non d ame     -37.167  19.816  28.845  0.00  0.00    -0.082 A 
ATOM     68  H51 non d ame     -39.039  20.618  28.161  0.00  0.00     0.083 H 
ATOM     69  C34 non d ame     -35.815  19.619  28.568  0.00  0.00    -0.075 A 
ATOM     70  H52 non d ame     -37.588  19.452  29.783  0.00  0.00     0.083 H 
ATOM     71  H53 non d ame     -35.181  19.101  29.289  0.00  0.00     0.084 H 
ENDBRANCH  58  61
ENDBRANCH  57  58
ENDBRANCH  55  57
ENDBRANCH  52  55
ENDBRANCH  49  52
ENDBRANCH  47  49
BRANCH  47  72
ATOM     72  C24 non d ame     -31.748  14.343  29.536  0.00  0.00    -0.039 C 
ATOM     73  H35 non d ame     -30.817  14.890  29.694  0.00  0.00     0.036 H 
ATOM     74  H36 non d ame     -32.563  14.438  30.253  0.00  0.00     0.036 H 
BRANCH  72  75
ATOM     75  C25 non d ame     -31.375  12.788  29.447  0.00  0.00    -0.001 C 
ATOM     76  C26 non d ame     -32.703  11.919  29.017  0.00  0.00    -0.035 C 
ATOM     77  C27 non d ame     -32.861  10.900  29.896  0.00  0.00     0.085 C 
ATOM     78  H38 non d ame     -33.603  12.517  29.155  0.00  0.00     0.036 H 
ATOM     79  H39 non d ame     -32.526  11.410  28.069  0.00  0.00     0.036 H 
ATOM     80  N5  non d ame     -31.959  11.188  31.072  0.00  0.00    -0.049 N 
ATOM     81  H40 non d ame     -33.900  10.957  30.224  0.00  0.00     0.075 H 
ATOM     82  H41 non d ame     -32.500  10.011  29.381  0.00  0.00     0.075 H 
ATOM     83  C28 non d ame     -30.945  12.344  30.581  0.00  0.00     0.193 C 
ATOM     84  H42 non d ame     -32.548  11.566  31.800  0.00  0.00     0.280 HD
ATOM     85  H43 non d ame     -31.429  10.344  31.239  0.00  0.00     0.280 HD
ATOM     86  H44 non d ame     -29.915  12.104  30.321  0.00  0.00     0.129 H 
ATOM     87  H37 non d ame     -30.463  12.614  28.877  0.00  0.00     0.046 H 
BRANCH  83  88
ATOM     88  O6  non d ame     -30.859  13.376  31.566  0.00  0.00    -0.369 OA
ATOM     89  H45 non d ame     -31.002  13.000  32.437  0.00  0.00     0.212 HD
ENDBRANCH  83  88
ENDBRANCH  72  75
ENDBRANCH  47  72
ENDBRANCH  45  47
ENDBRANCH   1  43
BRANCH   1  90
ATOM     90  C16 non d ame     -30.980  14.746  23.625  0.00  0.00    -0.035 C 
ATOM     91  H21 non d ame     -32.008  14.803  23.270  0.00  0.00     0.037 H 
ATOM     92  H22 non d ame     -30.526  15.603  24.122  0.00  0.00     0.037 H 
BRANCH  90  93
ATOM     93  C17 non d ame     -30.098  14.444  22.371  0.00  0.00    -0.059 C 
ATOM     94  H23 non d ame     -30.115  13.368  22.205  0.00  0.00     0.038 H 
BRANCH  93  95
ATOM     95  C18 non d ame     -30.650  15.135  21.083  0.00  0.00    -0.073 C 
ATOM     96  H24 non d ame     -30.041  14.846  20.227  0.00  0.00     0.028 H 
ATOM     97  H25 non d ame     -31.681  14.822  20.917  0.00  0.00     0.028 H 
ATOM     98  H26 non d ame     -30.614  16.217  21.207  0.00  0.00     0.028 H 
ENDBRANCH  93  95
BRANCH  93  99
ATOM     99  C19 non d ame     -28.640  14.842  22.620  0.00  0.00    -0.073 C 
ATOM    100  H27 non d ame     -28.569  15.927  22.706  0.00  0.00     0.028 H 
ATOM    101  H28 non d ame     -28.290  14.382  23.544  0.00  0.00     0.028 H 
ATOM    102  H29 non d ame     -28.024  14.502  21.789  0.00  0.00     0.028 H 
ENDBRANCH  93  99
ENDBRANCH  90  93
ENDBRANCH   1  90
TORSDOF 26
ENDMDL
MODEL 14
REMARK VINA RESULT:      -6.7      2.219      5.374
REMARK  26 active torsions:
REMARK  status: ('A' for Active; 'I' for Inactive)
REMARK    1  A    between atoms: C2_2  and  C3_3 
REMARK    2  A    between atoms: C4_6  and  C5_7 
REMARK       I    between atoms: C5_7  and  N2_9 
REMARK    3  A    between atoms: N2_9  and  C6_10 
REMARK    4  A    between atoms: C6_10  and  C7_11 
REMARK    5  A    between atoms: C6_10  and  C8_13 
REMARK       I    between atoms: C7_11  and  N3_14 
REMARK    6  A    between atoms: N3_14  and  C9_15 
REMARK    7  A    between atoms: C9_15  and  C10_16 
REMARK    8  A    between atoms: C9_15  and  C11_18 
REMARK       I    between atoms: C10_16  and  N4_21 
REMARK    9  A    between atoms: C11_18  and  C12_19 
REMARK   10  A    between atoms: C11_18  and  C13_20 
REMARK   11  A    between atoms: N4_21  and  C14_22 
REMARK   12  A    between atoms: C14_22  and  C15_23 
REMARK   13  A    between atoms: C14_22  and  C16_25 
REMARK       I    between atoms: C15_23  and  N6_40 
REMARK   14  A    between atoms: C16_25  and  C17_26 
REMARK   15  A    between atoms: C17_26  and  C18_27 
REMARK   16  A    between atoms: C17_26  and  C19_28 
REMARK   17  A    between atoms: C20_29  and  C21_30 
REMARK   18  A    between atoms: C20_29  and  C24_33 
REMARK   19  A    between atoms: C20_29  and  N6_40 
REMARK   20  A    between atoms: C21_30  and  C22_31 
REMARK   21  A    between atoms: C22_31  and  C23_32 
REMARK   22  A    between atoms: C23_32  and  O8_43 
REMARK   23  A    between atoms: C24_33  and  C25_34 
REMARK   24  A    between atoms: C28_38  and  O6_39 
REMARK   25  A    between atoms: C29_42  and  O8_43 
REMARK   26  A    between atoms: C29_42  and  C35_49 
ROOT
ATOM      1  C14 non d ame     -31.186  14.817  24.228  0.00  0.00     0.089 C 
ATOM      2  H20 non d ame     -30.191  14.756  24.669  0.00  0.00     0.087 H 
ENDROOT
BRANCH   1   3
ATOM      3  N4  non d ame     -31.641  13.456  23.985  0.00  0.00    -0.346 N 
ATOM      4  C10 non d ame     -31.482  12.398  25.048  0.00  0.00     0.241 C 
ATOM      5  O4  non d ame     -30.981  12.665  26.090  0.00  0.00    -0.271 OA
ATOM      6  H19 non d ame     -32.062  13.249  23.090  0.00  0.00     0.163 HD
BRANCH   4   7
ATOM      7  C9  non d ame     -31.964  10.997  24.781  0.00  0.00     0.092 C 
ATOM      8  H11 non d ame     -31.689  10.357  25.620  0.00  0.00     0.088 H 
BRANCH   7   9
ATOM      9  N3  non d ame     -33.426  10.991  24.692  0.00  0.00    -0.346 N 
ATOM     10  C7  non d ame     -34.220  10.803  25.881  0.00  0.00     0.240 C 
ATOM     11  O3  non d ame     -33.698  10.654  26.918  0.00  0.00    -0.271 OA
ATOM     12  H10 non d ame     -33.891  11.117  23.805  0.00  0.00     0.163 HD
BRANCH  10  13
ATOM     13  C6  non d ame     -35.777  10.795  25.780  0.00  0.00     0.086 C 
ATOM     14  H6  non d ame     -36.263  10.761  26.755  0.00  0.00     0.086 H 
BRANCH  13  15
ATOM     15  N2  non d ame     -36.214  12.026  25.141  0.00  0.00    -0.343 N 
ATOM     16  C5  non d ame     -36.782  13.101  25.958  0.00  0.00     0.273 C 
ATOM     17  O2  non d ame     -36.885  12.965  27.128  0.00  0.00    -0.266 OA
ATOM     18  H5  non d ame     -36.126  12.132  24.141  0.00  0.00     0.163 HD
BRANCH  16  19
ATOM     19  C4  non d ame     -37.246  14.407  25.296  0.00  0.00     0.154 A 
ATOM     20  C1  non d ame     -38.520  15.044  25.439  0.00  0.00    -0.017 A 
ATOM     21  C2  non d ame     -38.440  16.202  24.633  0.00  0.00     0.077 A 
ATOM     22  H1  non d ame     -39.372  14.716  26.033  0.00  0.00     0.091 H 
ATOM     23  O1  non d ame     -37.253  16.220  24.098  0.00  0.00    -0.218 OA
ATOM     24  N1  non d ame     -36.540  15.183  24.470  0.00  0.00    -0.123 NA
BRANCH  21  25
ATOM     25  C3  non d ame     -39.538  17.238  24.431  0.00  0.00    -0.029 C 
ATOM     26  H2  non d ame     -39.295  17.862  23.571  0.00  0.00     0.036 H 
ATOM     27  H3  non d ame     -40.487  16.731  24.255  0.00  0.00     0.036 H 
ATOM     28  H4  non d ame     -39.618  17.861  25.321  0.00  0.00     0.036 H 
ENDBRANCH  21  25
ENDBRANCH  16  19
ENDBRANCH  13  15
BRANCH  13  29
ATOM     29  C8  non d ame     -36.225   9.605  24.969  0.00  0.00    -0.049 C 
ATOM     30  H7  non d ame     -36.483   9.929  23.961  0.00  0.00     0.030 H 
ATOM     31  H8  non d ame     -35.417   8.875  24.921  0.00  0.00     0.030 H 
ATOM     32  H9  non d ame     -37.097   9.152  25.440  0.00  0.00     0.030 H 
ENDBRANCH  13  29
ENDBRANCH  10  13
ENDBRANCH   7   9
BRANCH   7  33
ATOM     33  C11 non d ame     -31.363  10.489  23.438  0.00  0.00    -0.033 C 
ATOM     34  H12 non d ame     -31.467  11.292  22.707  0.00  0.00     0.042 H 
BRANCH  33  35
ATOM     35  C12 non d ame     -29.840  10.176  23.577  0.00  0.00    -0.071 C 
ATOM     36  H13 non d ame     -29.298  10.635  22.751  0.00  0.00     0.028 H 
ATOM     37  H14 non d ame     -29.472  10.578  24.521  0.00  0.00     0.028 H 
ATOM     38  H15 non d ame     -29.687   9.097  23.557  0.00  0.00     0.028 H 
ENDBRANCH  33  35
BRANCH  33  39
ATOM     39  C13 non d ame     -32.150   9.248  22.906  0.00  0.00    -0.071 C 
ATOM     40  H16 non d ame     -31.916   9.093  21.853  0.00  0.00     0.028 H 
ATOM     41  H17 non d ame     -31.863   8.364  23.476  0.00  0.00     0.028 H 
ATOM     42  H18 non d ame     -33.219   9.420  23.020  0.00  0.00     0.028 H 
ENDBRANCH  33  39
ENDBRANCH   7  33
ENDBRANCH   4   7
ENDBRANCH   1   3
BRANCH   1  43
ATOM     43  C15 non d ame     -32.205  15.520  25.169  0.00  0.00     0.240 C 
ATOM     44  O5  non d ame     -33.228  15.934  24.729  0.00  0.00    -0.271 OA
ATOM     45  N6  non d ame     -31.909  15.668  26.623  0.00  0.00    -0.355 N 
ATOM     46  H46 non d ame     -31.045  15.315  27.009  0.00  0.00     0.162 HD
BRANCH  45  47
ATOM     47  C20 non d ame     -32.889  16.337  27.506  0.00  0.00     0.013 C 
ATOM     48  H30 non d ame     -33.868  16.272  27.031  0.00  0.00     0.072 H 
BRANCH  47  49
ATOM     49  C21 non d ame     -32.496  17.786  27.682  0.00  0.00    -0.038 C 
ATOM     50  H31 non d ame     -32.609  17.995  28.747  0.00  0.00     0.036 H 
ATOM     51  H32 non d ame     -31.520  17.886  27.208  0.00  0.00     0.036 H 
BRANCH  49  52
ATOM     52  C22 non d ame     -33.442  18.758  26.944  0.00  0.00     0.018 C 
ATOM     53  H33 non d ame     -33.142  19.757  27.259  0.00  0.00     0.048 H 
ATOM     54  H34 non d ame     -33.387  18.479  25.891  0.00  0.00     0.048 H 
BRANCH  52  55
ATOM     55  C23 non d ame     -34.934  18.610  27.350  0.00  0.00     0.259 C 
ATOM     56  O7  non d ame     -35.246  18.557  28.495  0.00  0.00    -0.265 OA
BRANCH  55  57
ATOM     57  O8  non d ame     -35.927  18.522  26.334  0.00  0.00    -0.317 OA
BRANCH  57  58
ATOM     58  C29 non d ame     -35.630  19.289  25.164  0.00  0.00     0.052 C 
ATOM     59  H47 non d ame     -34.979  20.096  25.498  0.00  0.00     0.082 H 
ATOM     60  H48 non d ame     -35.276  18.573  24.423  0.00  0.00     0.082 H 
BRANCH  58  61
ATOM     61  C35 non d ame     -36.957  19.911  24.650  0.00  0.00    -0.034 A 
ATOM     62  C30 non d ame     -37.907  20.371  25.557  0.00  0.00    -0.075 A 
ATOM     63  C31 non d ame     -39.099  20.929  25.096  0.00  0.00    -0.082 A 
ATOM     64  H49 non d ame     -37.719  20.293  26.627  0.00  0.00     0.084 H 
ATOM     65  C32 non d ame     -39.340  21.024  23.722  0.00  0.00    -0.083 A 
ATOM     66  H50 non d ame     -39.841  21.289  25.809  0.00  0.00     0.083 H 
ATOM     67  C33 non d ame     -38.390  20.562  22.822  0.00  0.00    -0.082 A 
ATOM     68  H51 non d ame     -40.268  21.460  23.354  0.00  0.00     0.083 H 
ATOM     69  C34 non d ame     -37.197  20.005  23.278  0.00  0.00    -0.075 A 
ATOM     70  H52 non d ame     -38.581  20.636  21.751  0.00  0.00     0.083 H 
ATOM     71  H53 non d ame     -36.455  19.645  22.565  0.00  0.00     0.084 H 
ENDBRANCH  58  61
ENDBRANCH  57  58
ENDBRANCH  55  57
ENDBRANCH  52  55
ENDBRANCH  49  52
ENDBRANCH  47  49
BRANCH  47  72
ATOM     72  C24 non d ame     -32.914  15.646  28.868  0.00  0.00    -0.039 C 
ATOM     73  H35 non d ame     -32.666  16.423  29.591  0.00  0.00     0.036 H 
ATOM     74  H36 non d ame     -33.879  15.141  28.919  0.00  0.00     0.036 H 
BRANCH  72  75
ATOM     75  C25 non d ame     -31.784  14.516  28.980  0.00  0.00    -0.001 C 
ATOM     76  C26 non d ame     -32.469  13.077  29.380  0.00  0.00    -0.035 C 
ATOM     77  C27 non d ame     -31.811  12.561  30.446  0.00  0.00     0.085 C 
ATOM     78  H38 non d ame     -33.480  13.235  29.756  0.00  0.00     0.036 H 
ATOM     79  H39 non d ame     -32.289  12.345  28.591  0.00  0.00     0.036 H 
ATOM     80  N5  non d ame     -30.955  13.667  31.013  0.00  0.00    -0.049 N 
ATOM     81  H40 non d ame     -32.586  12.304  31.170  0.00  0.00     0.075 H 
ATOM     82  H41 non d ame     -31.165  11.783  30.041  0.00  0.00     0.075 H 
ATOM     83  C28 non d ame     -30.909  14.818  29.882  0.00  0.00     0.193 C 
ATOM     84  H42 non d ame     -31.447  14.026  31.818  0.00  0.00     0.280 HD
ATOM     85  H43 non d ame     -30.026  13.283  31.119  0.00  0.00     0.280 HD
ATOM     86  H44 non d ame     -30.024  14.951  29.262  0.00  0.00     0.129 H 
ATOM     87  H37 non d ame     -31.106  14.523  28.126  0.00  0.00     0.046 H 
BRANCH  83  88
ATOM     88  O6  non d ame     -31.160  16.096  30.469  0.00  0.00    -0.369 OA
ATOM     89  H45 non d ame     -31.518  16.689  29.805  0.00  0.00     0.212 HD
ENDBRANCH  83  88
ENDBRANCH  72  75
ENDBRANCH  47  72
ENDBRANCH  45  47
ENDBRANCH   1  43
BRANCH   1  90
ATOM     90  C16 non d ame     -31.116  15.560  22.903  0.00  0.00    -0.035 C 
ATOM     91  H21 non d ame     -32.120  15.498  22.484  0.00  0.00     0.037 H 
ATOM     92  H22 non d ame     -30.685  16.533  23.140  0.00  0.00     0.037 H 
BRANCH  90  93
ATOM     93  C17 non d ame     -30.162  14.896  21.860  0.00  0.00    -0.059 C 
ATOM     94  H23 non d ame     -30.344  13.822  21.882  0.00  0.00     0.038 H 
BRANCH  93  95
ATOM     95  C18 non d ame     -30.437  15.398  20.407  0.00  0.00    -0.073 C 
ATOM     96  H24 non d ame     -30.762  14.561  19.789  0.00  0.00     0.028 H 
ATOM     97  H25 non d ame     -31.219  16.158  20.427  0.00  0.00     0.028 H 
ATOM     98  H26 non d ame     -29.525  15.825  19.991  0.00  0.00     0.028 H 
ENDBRANCH  93  95
BRANCH  93  99
ATOM     99  C19 non d ame     -28.696  15.116  22.244  0.00  0.00    -0.073 C 
ATOM    100  H27 non d ame     -28.638  15.834  23.062  0.00  0.00     0.028 H 
ATOM    101  H28 non d ame     -28.257  14.170  22.561  0.00  0.00     0.028 H 
ATOM    102  H29 non d ame     -28.149  15.499  21.383  0.00  0.00     0.028 H 
ENDBRANCH  93  99
ENDBRANCH  90  93
ENDBRANCH   1  90
TORSDOF 26
ENDMDL
MODEL 15
REMARK VINA RESULT:      -6.6      2.979      5.232
REMARK  26 active torsions:
REMARK  status: ('A' for Active; 'I' for Inactive)
REMARK    1  A    between atoms: C2_2  and  C3_3 
REMARK    2  A    between atoms: C4_6  and  C5_7 
REMARK       I    between atoms: C5_7  and  N2_9 
REMARK    3  A    between atoms: N2_9  and  C6_10 
REMARK    4  A    between atoms: C6_10  and  C7_11 
REMARK    5  A    between atoms: C6_10  and  C8_13 
REMARK       I    between atoms: C7_11  and  N3_14 
REMARK    6  A    between atoms: N3_14  and  C9_15 
REMARK    7  A    between atoms: C9_15  and  C10_16 
REMARK    8  A    between atoms: C9_15  and  C11_18 
REMARK       I    between atoms: C10_16  and  N4_21 
REMARK    9  A    between atoms: C11_18  and  C12_19 
REMARK   10  A    between atoms: C11_18  and  C13_20 
REMARK   11  A    between atoms: N4_21  and  C14_22 
REMARK   12  A    between atoms: C14_22  and  C15_23 
REMARK   13  A    between atoms: C14_22  and  C16_25 
REMARK       I    between atoms: C15_23  and  N6_40 
REMARK   14  A    between atoms: C16_25  and  C17_26 
REMARK   15  A    between atoms: C17_26  and  C18_27 
REMARK   16  A    between atoms: C17_26  and  C19_28 
REMARK   17  A    between atoms: C20_29  and  C21_30 
REMARK   18  A    between atoms: C20_29  and  C24_33 
REMARK   19  A    between atoms: C20_29  and  N6_40 
REMARK   20  A    between atoms: C21_30  and  C22_31 
REMARK   21  A    between atoms: C22_31  and  C23_32 
REMARK   22  A    between atoms: C23_32  and  O8_43 
REMARK   23  A    between atoms: C24_33  and  C25_34 
REMARK   24  A    between atoms: C28_38  and  O6_39 
REMARK   25  A    between atoms: C29_42  and  O8_43 
REMARK   26  A    between atoms: C29_42  and  C35_49 
ROOT
ATOM      1  C14 non d ame     -31.130  14.099  24.315  0.00  0.00     0.089 C 
ATOM      2  H20 non d ame     -30.127  13.675  24.377  0.00  0.00     0.087 H 
ENDROOT
BRANCH   1   3
ATOM      3  N4  non d ame     -32.076  13.019  24.552  0.00  0.00    -0.346 N 
ATOM      4  C10 non d ame     -31.589  11.599  24.704  0.00  0.00     0.241 C 
ATOM      5  O4  non d ame     -30.432  11.350  24.628  0.00  0.00    -0.271 OA
ATOM      6  H19 non d ame     -33.057  13.252  24.612  0.00  0.00     0.163 HD
BRANCH   4   7
ATOM      7  C9  non d ame     -32.583  10.495  24.955  0.00  0.00     0.092 C 
ATOM      8  H11 non d ame     -33.521  10.736  24.455  0.00  0.00     0.088 H 
BRANCH   7   9
ATOM      9  N3  non d ame     -32.086   9.247  24.369  0.00  0.00    -0.346 N 
ATOM     10  C7  non d ame     -32.703   8.715  23.179  0.00  0.00     0.240 C 
ATOM     11  O3  non d ame     -33.601   9.277  22.681  0.00  0.00    -0.271 OA
ATOM     12  H10 non d ame     -31.314   8.750  24.787  0.00  0.00     0.163 HD
BRANCH  10  13
ATOM     13  C6  non d ame     -32.172   7.384  22.560  0.00  0.00     0.086 C 
ATOM     14  H6  non d ame     -31.111   7.224  22.752  0.00  0.00     0.086 H 
BRANCH  13  15
ATOM     15  N2  non d ame     -32.877   6.268  23.168  0.00  0.00    -0.343 N 
ATOM     16  C5  non d ame     -32.388   5.706  24.429  0.00  0.00     0.273 C 
ATOM     17  O2  non d ame     -31.425   6.158  24.945  0.00  0.00    -0.266 OA
ATOM     18  H5  non d ame     -33.697   5.886  22.718  0.00  0.00     0.163 HD
BRANCH  16  19
ATOM     19  C4  non d ame     -33.124   4.528  25.084  0.00  0.00     0.154 A 
ATOM     20  C1  non d ame     -33.643   3.363  24.433  0.00  0.00    -0.017 A 
ATOM     21  C2  non d ame     -34.221   2.595  25.469  0.00  0.00     0.077 A 
ATOM     22  H1  non d ame     -33.607   3.114  23.373  0.00  0.00     0.091 H 
ATOM     23  O1  non d ame     -34.047   3.250  26.580  0.00  0.00    -0.218 OA
ATOM     24  N1  non d ame     -33.410   4.380  26.380  0.00  0.00    -0.123 NA
BRANCH  21  25
ATOM     25  C3  non d ame     -34.918   1.250  25.312  0.00  0.00    -0.029 C 
ATOM     26  H2  non d ame     -34.950   0.743  26.276  0.00  0.00     0.036 H 
ATOM     27  H3  non d ame     -35.934   1.407  24.951  0.00  0.00     0.036 H 
ATOM     28  H4  non d ame     -34.369   0.637  24.598  0.00  0.00     0.036 H 
ENDBRANCH  21  25
ENDBRANCH  16  19
ENDBRANCH  13  15
BRANCH  13  29
ATOM     29  C8  non d ame     -32.404   7.392  21.070  0.00  0.00    -0.049 C 
ATOM     30  H7  non d ame     -33.471   7.468  20.869  0.00  0.00     0.030 H 
ATOM     31  H8  non d ame     -31.888   8.245  20.627  0.00  0.00     0.030 H 
ATOM     32  H9  non d ame     -32.017   6.469  20.638  0.00  0.00     0.030 H 
ENDBRANCH  13  29
ENDBRANCH  10  13
ENDBRANCH   7   9
BRANCH   7  33
ATOM     33  C11 non d ame     -32.770  10.306  26.489  0.00  0.00    -0.033 C 
ATOM     34  H12 non d ame     -31.999  10.893  26.989  0.00  0.00     0.042 H 
BRANCH  33  35
ATOM     35  C12 non d ame     -34.155  10.847  26.964  0.00  0.00    -0.071 C 
ATOM     36  H13 non d ame     -34.479  11.648  26.300  0.00  0.00     0.028 H 
ATOM     37  H14 non d ame     -34.886  10.040  26.944  0.00  0.00     0.028 H 
ATOM     38  H15 non d ame     -34.065  11.232  27.980  0.00  0.00     0.028 H 
ENDBRANCH  33  35
BRANCH  33  39
ATOM     39  C13 non d ame     -32.577   8.810  26.896  0.00  0.00    -0.071 C 
ATOM     40  H16 non d ame     -33.538   8.297  26.864  0.00  0.00     0.028 H 
ATOM     41  H17 non d ame     -31.886   8.330  26.202  0.00  0.00     0.028 H 
ATOM     42  H18 non d ame     -32.170   8.757  27.905  0.00  0.00     0.028 H 
ENDBRANCH  33  39
ENDBRANCH   7  33
ENDBRANCH   4   7
ENDBRANCH   1   3
BRANCH   1  43
ATOM     43  C15 non d ame     -31.366  15.207  25.379  0.00  0.00     0.240 C 
ATOM     44  O5  non d ame     -30.833  16.263  25.262  0.00  0.00    -0.271 OA
ATOM     45  N6  non d ame     -32.266  14.957  26.541  0.00  0.00    -0.355 N 
ATOM     46  H46 non d ame     -32.729  14.066  26.648  0.00  0.00     0.162 HD
BRANCH  45  47
ATOM     47  C20 non d ame     -32.483  16.023  27.544  0.00  0.00     0.013 C 
ATOM     48  H30 non d ame     -31.810  16.847  27.308  0.00  0.00     0.072 H 
BRANCH  47  49
ATOM     49  C21 non d ame     -32.173  15.482  28.922  0.00  0.00    -0.038 C 
ATOM     50  H31 non d ame     -31.093  15.325  28.941  0.00  0.00     0.036 H 
ATOM     51  H32 non d ame     -32.635  16.178  29.622  0.00  0.00     0.036 H 
BRANCH  49  52
ATOM     52  C22 non d ame     -32.818  14.105  29.185  0.00  0.00     0.018 C 
ATOM     53  H33 non d ame     -33.124  14.116  30.230  0.00  0.00     0.048 H 
ATOM     54  H34 non d ame     -33.565  13.975  28.400  0.00  0.00     0.048 H 
BRANCH  52  55
ATOM     55  C23 non d ame     -31.833  12.913  29.039  0.00  0.00     0.259 C 
ATOM     56  O7  non d ame     -30.890  12.993  28.320  0.00  0.00    -0.265 OA
BRANCH  55  57
ATOM     57  O8  non d ame     -32.077  11.714  29.766  0.00  0.00    -0.317 OA
BRANCH  57  58
ATOM     58  C29 non d ame     -32.722  11.919  31.026  0.00  0.00     0.052 C 
ATOM     59  H47 non d ame     -31.944  11.792  31.779  0.00  0.00     0.082 H 
ATOM     60  H48 non d ame     -33.246  12.870  30.938  0.00  0.00     0.082 H 
BRANCH  58  61
ATOM     61  C35 non d ame     -33.775  10.794  31.214  0.00  0.00    -0.034 A 
ATOM     62  C30 non d ame     -34.715  10.884  32.236  0.00  0.00    -0.075 A 
ATOM     63  C31 non d ame     -35.661   9.873  32.405  0.00  0.00    -0.082 A 
ATOM     64  H49 non d ame     -34.710  11.745  32.905  0.00  0.00     0.084 H 
ATOM     65  C32 non d ame     -35.662   8.769  31.549  0.00  0.00    -0.083 A 
ATOM     66  H50 non d ame     -36.397   9.948  33.206  0.00  0.00     0.083 H 
ATOM     67  C33 non d ame     -34.721   8.682  30.533  0.00  0.00    -0.082 A 
ATOM     68  H51 non d ame     -36.399   7.975  31.675  0.00  0.00     0.083 H 
ATOM     69  C34 non d ame     -33.775   9.691  30.359  0.00  0.00    -0.075 A 
ATOM     70  H52 non d ame     -34.723   7.818  29.868  0.00  0.00     0.083 H 
ATOM     71  H53 non d ame     -33.039   9.616  29.558  0.00  0.00     0.084 H 
ENDBRANCH  58  61
ENDBRANCH  57  58
ENDBRANCH  55  57
ENDBRANCH  52  55
ENDBRANCH  49  52
ENDBRANCH  47  49
BRANCH  47  72
ATOM     72  C24 non d ame     -33.935  16.492  27.495  0.00  0.00    -0.039 C 
ATOM     73  H35 non d ame     -34.431  15.825  26.788  0.00  0.00     0.036 H 
ATOM     74  H36 non d ame     -34.264  16.527  28.533  0.00  0.00     0.036 H 
BRANCH  72  75
ATOM     75  C25 non d ame     -34.058  17.978  26.909  0.00  0.00    -0.001 C 
ATOM     76  C26 non d ame     -32.587  18.711  26.930  0.00  0.00    -0.035 C 
ATOM     77  C27 non d ame     -32.708  19.914  27.540  0.00  0.00     0.085 C 
ATOM     78  H38 non d ame     -31.905  18.163  27.580  0.00  0.00     0.036 H 
ATOM     79  H39 non d ame     -32.284  18.969  25.915  0.00  0.00     0.036 H 
ATOM     80  N5  non d ame     -34.051  19.928  28.228  0.00  0.00    -0.049 N 
ATOM     81  H40 non d ame     -31.922  19.938  28.296  0.00  0.00     0.075 H 
ATOM     82  H41 non d ame     -32.713  20.650  26.736  0.00  0.00     0.075 H 
ATOM     83  C28 non d ame     -34.880  18.689  27.607  0.00  0.00     0.193 C 
ATOM     84  H42 non d ame     -33.876  19.741  29.204  0.00  0.00     0.280 HD
ATOM     85  H43 non d ame     -34.504  20.788  27.952  0.00  0.00     0.280 HD
ATOM     86  H44 non d ame     -35.666  18.860  26.873  0.00  0.00     0.129 H 
ATOM     87  H37 non d ame     -34.614  18.008  25.972  0.00  0.00     0.046 H 
BRANCH  83  88
ATOM     88  O6  non d ame     -35.493  17.933  28.654  0.00  0.00    -0.369 OA
ATOM     89  H45 non d ame     -36.277  17.495  28.315  0.00  0.00     0.212 HD
ENDBRANCH  83  88
ENDBRANCH  72  75
ENDBRANCH  47  72
ENDBRANCH  45  47
ENDBRANCH   1  43
BRANCH   1  90
ATOM     90  C16 non d ame     -31.364  14.666  22.924  0.00  0.00    -0.035 C 
ATOM     91  H21 non d ame     -32.040  13.965  22.436  0.00  0.00     0.037 H 
ATOM     92  H22 non d ame     -31.673  15.699  23.082  0.00  0.00     0.037 H 
BRANCH  90  93
ATOM     93  C17 non d ame     -30.075  14.721  22.044  0.00  0.00    -0.059 C 
ATOM     94  H23 non d ame     -29.396  15.444  22.494  0.00  0.00     0.038 H 
BRANCH  93  95
ATOM     95  C18 non d ame     -29.339  13.344  21.991  0.00  0.00    -0.073 C 
ATOM     96  H24 non d ame     -29.426  12.923  20.990  0.00  0.00     0.028 H 
ATOM     97  H25 non d ame     -28.285  13.486  22.234  0.00  0.00     0.028 H 
ATOM     98  H26 non d ame     -29.789  12.663  22.713  0.00  0.00     0.028 H 
ENDBRANCH  93  95
BRANCH  93  99
ATOM     99  C19 non d ame     -30.398  15.219  20.632  0.00  0.00    -0.073 C 
ATOM    100  H27 non d ame     -30.587  16.293  20.660  0.00  0.00     0.028 H 
ATOM    101  H28 non d ame     -29.554  15.016  19.973  0.00  0.00     0.028 H 
ATOM    102  H29 non d ame     -31.282  14.704  20.258  0.00  0.00     0.028 H 
ENDBRANCH  93  99
ENDBRANCH  90  93
ENDBRANCH   1  90
TORSDOF 26
ENDMDL
MODEL 16
REMARK VINA RESULT:      -6.6      3.200      7.673
REMARK  26 active torsions:
REMARK  status: ('A' for Active; 'I' for Inactive)
REMARK    1  A    between atoms: C2_2  and  C3_3 
REMARK    2  A    between atoms: C4_6  and  C5_7 
REMARK       I    between atoms: C5_7  and  N2_9 
REMARK    3  A    between atoms: N2_9  and  C6_10 
REMARK    4  A    between atoms: C6_10  and  C7_11 
REMARK    5  A    between atoms: C6_10  and  C8_13 
REMARK       I    between atoms: C7_11  and  N3_14 
REMARK    6  A    between atoms: N3_14  and  C9_15 
REMARK    7  A    between atoms: C9_15  and  C10_16 
REMARK    8  A    between atoms: C9_15  and  C11_18 
REMARK       I    between atoms: C10_16  and  N4_21 
REMARK    9  A    between atoms: C11_18  and  C12_19 
REMARK   10  A    between atoms: C11_18  and  C13_20 
REMARK   11  A    between atoms: N4_21  and  C14_22 
REMARK   12  A    between atoms: C14_22  and  C15_23 
REMARK   13  A    between atoms: C14_22  and  C16_25 
REMARK       I    between atoms: C15_23  and  N6_40 
REMARK   14  A    between atoms: C16_25  and  C17_26 
REMARK   15  A    between atoms: C17_26  and  C18_27 
REMARK   16  A    between atoms: C17_26  and  C19_28 
REMARK   17  A    between atoms: C20_29  and  C21_30 
REMARK   18  A    between atoms: C20_29  and  C24_33 
REMARK   19  A    between atoms: C20_29  and  N6_40 
REMARK   20  A    between atoms: C21_30  and  C22_31 
REMARK   21  A    between atoms: C22_31  and  C23_32 
REMARK   22  A    between atoms: C23_32  and  O8_43 
REMARK   23  A    between atoms: C24_33  and  C25_34 
REMARK   24  A    between atoms: C28_38  and  O6_39 
REMARK   25  A    between atoms: C29_42  and  O8_43 
REMARK   26  A    between atoms: C29_42  and  C35_49 
ROOT
ATOM      1  C14 non d ame     -33.925   9.534  29.065  0.00  0.00     0.089 C 
ATOM      2  H20 non d ame     -34.940   9.797  28.765  0.00  0.00     0.087 H 
ENDROOT
BRANCH   1   3
ATOM      3  N4  non d ame     -33.773   8.098  28.886  0.00  0.00    -0.346 N 
ATOM      4  C10 non d ame     -34.970   7.241  28.556  0.00  0.00     0.241 C 
ATOM      5  O4  non d ame     -36.045   7.728  28.444  0.00  0.00    -0.271 OA
ATOM      6  H19 non d ame     -32.850   7.702  28.987  0.00  0.00     0.163 HD
BRANCH   4   7
ATOM      7  C9  non d ame     -34.792   5.757  28.368  0.00  0.00     0.092 C 
ATOM      8  H11 non d ame     -35.765   5.269  28.430  0.00  0.00     0.088 H 
BRANCH   7   9
ATOM      9  N3  non d ame     -34.259   5.494  27.029  0.00  0.00    -0.346 N 
ATOM     10  C7  non d ame     -35.145   5.086  25.967  0.00  0.00     0.240 C 
ATOM     11  O3  non d ame     -36.291   4.964  26.173  0.00  0.00    -0.271 OA
ATOM     12  H10 non d ame     -33.273   5.593  26.837  0.00  0.00     0.163 HD
BRANCH  10  13
ATOM     13  C6  non d ame     -34.571   4.804  24.544  0.00  0.00     0.086 C 
ATOM     14  H6  non d ame     -35.315   4.925  23.757  0.00  0.00     0.086 H 
BRANCH  13  15
ATOM     15  N2  non d ame     -33.513   5.762  24.265  0.00  0.00    -0.343 N 
ATOM     16  C5  non d ame     -33.759   6.852  23.318  0.00  0.00     0.273 C 
ATOM     17  O2  non d ame     -34.809   6.949  22.785  0.00  0.00    -0.266 OA
ATOM     18  H5  non d ame     -32.617   5.669  24.722  0.00  0.00     0.163 HD
BRANCH  16  19
ATOM     19  C4  non d ame     -32.650   7.872  23.015  0.00  0.00     0.154 A 
ATOM     20  C1  non d ame     -31.335   7.599  22.522  0.00  0.00    -0.017 A 
ATOM     21  C2  non d ame     -30.716   8.865  22.416  0.00  0.00     0.077 A 
ATOM     22  H1  non d ame     -30.896   6.631  22.280  0.00  0.00     0.091 H 
ATOM     23  O1  non d ame     -31.584   9.754  22.802  0.00  0.00    -0.218 OA
ATOM     24  N1  non d ame     -32.720   9.198  23.157  0.00  0.00    -0.123 NA
BRANCH  21  25
ATOM     25  C3  non d ame     -29.297   9.137  21.936  0.00  0.00    -0.029 C 
ATOM     26  H2  non d ame     -28.585   8.728  22.653  0.00  0.00     0.036 H 
ATOM     27  H3  non d ame     -29.145   8.665  20.965  0.00  0.00     0.036 H 
ATOM     28  H4  non d ame     -29.144  10.211  21.845  0.00  0.00     0.036 H 
ENDBRANCH  21  25
ENDBRANCH  16  19
ENDBRANCH  13  15
BRANCH  13  29
ATOM     29  C8  non d ame     -34.024   3.400  24.489  0.00  0.00    -0.049 C 
ATOM     30  H7  non d ame     -34.834   2.703  24.277  0.00  0.00     0.030 H 
ATOM     31  H8  non d ame     -33.273   3.334  23.701  0.00  0.00     0.030 H 
ATOM     32  H9  non d ame     -33.569   3.149  25.447  0.00  0.00     0.030 H 
ENDBRANCH  13  29
ENDBRANCH  10  13
ENDBRANCH   7   9
BRANCH   7  33
ATOM     33  C11 non d ame     -33.799   5.214  29.436  0.00  0.00    -0.033 C 
ATOM     34  H12 non d ame     -33.008   5.956  29.556  0.00  0.00     0.042 H 
BRANCH  33  35
ATOM     35  C12 non d ame     -34.492   5.039  30.823  0.00  0.00    -0.071 C 
ATOM     36  H13 non d ame     -34.240   4.062  31.235  0.00  0.00     0.028 H 
ATOM     37  H14 non d ame     -34.149   5.819  31.502  0.00  0.00     0.028 H 
ATOM     38  H15 non d ame     -35.573   5.112  30.701  0.00  0.00     0.028 H 
ENDBRANCH  33  35
BRANCH  33  39
ATOM     39  C13 non d ame     -33.139   3.880  28.960  0.00  0.00    -0.071 C 
ATOM     40  H16 non d ame     -32.880   3.959  27.904  0.00  0.00     0.028 H 
ATOM     41  H17 non d ame     -32.236   3.692  29.543  0.00  0.00     0.028 H 
ATOM     42  H18 non d ame     -33.839   3.058  29.103  0.00  0.00     0.028 H 
ENDBRANCH  33  39
ENDBRANCH   7  33
ENDBRANCH   4   7
ENDBRANCH   1   3
BRANCH   1  43
ATOM     43  C15 non d ame     -32.852  10.258  28.203  0.00  0.00     0.240 C 
ATOM     44  O5  non d ame     -32.333   9.683  27.301  0.00  0.00    -0.271 OA
ATOM     45  N6  non d ame     -32.478  11.671  28.494  0.00  0.00    -0.355 N 
ATOM     46  H46 non d ame     -32.917  12.171  29.255  0.00  0.00     0.162 HD
BRANCH  45  47
ATOM     47  C20 non d ame     -31.457  12.346  27.664  0.00  0.00     0.013 C 
ATOM     48  H30 non d ame     -30.756  11.588  27.313  0.00  0.00     0.072 H 
BRANCH  47  49
ATOM     49  C21 non d ame     -30.729  13.372  28.503  0.00  0.00    -0.038 C 
ATOM     50  H31 non d ame     -29.953  12.821  29.036  0.00  0.00     0.036 H 
ATOM     51  H32 non d ame     -30.456  14.173  27.817  0.00  0.00     0.036 H 
BRANCH  49  52
ATOM     52  C22 non d ame     -31.629  14.010  29.583  0.00  0.00     0.018 C 
ATOM     53  H33 non d ame     -32.634  14.016  29.164  0.00  0.00     0.048 H 
ATOM     54  H34 non d ame     -31.425  13.458  30.501  0.00  0.00     0.048 H 
BRANCH  52  55
ATOM     55  C23 non d ame     -31.284  15.494  29.890  0.00  0.00     0.259 C 
ATOM     56  O7  non d ame     -30.230  15.784  30.356  0.00  0.00    -0.265 OA
BRANCH  55  57
ATOM     57  O8  non d ame     -32.249  16.504  29.621  0.00  0.00    -0.317 OA
BRANCH  57  58
ATOM     58  C29 non d ame     -33.055  16.246  28.467  0.00  0.00     0.052 C 
ATOM     59  H47 non d ame     -32.487  15.537  27.864  0.00  0.00     0.082 H 
ATOM     60  H48 non d ame     -34.038  15.973  28.849  0.00  0.00     0.082 H 
BRANCH  58  61
ATOM     61  C35 non d ame     -33.189  17.571  27.670  0.00  0.00    -0.034 A 
ATOM     62  C30 non d ame     -32.589  18.733  28.145  0.00  0.00    -0.075 A 
ATOM     63  C31 non d ame     -32.710  19.924  27.429  0.00  0.00    -0.082 A 
ATOM     64  H49 non d ame     -32.025  18.711  29.077  0.00  0.00     0.084 H 
ATOM     65  C32 non d ame     -33.436  19.950  26.236  0.00  0.00    -0.083 A 
ATOM     66  H50 non d ame     -32.237  20.833  27.804  0.00  0.00     0.083 H 
ATOM     67  C33 non d ame     -34.036  18.789  25.768  0.00  0.00    -0.082 A 
ATOM     68  H51 non d ame     -33.534  20.877  25.670  0.00  0.00     0.083 H 
ATOM     69  C34 non d ame     -33.916  17.597  26.478  0.00  0.00    -0.075 A 
ATOM     70  H52 non d ame     -34.604  18.813  24.837  0.00  0.00     0.083 H 
ATOM     71  H53 non d ame     -34.389  16.689  26.103  0.00  0.00     0.084 H 
ENDBRANCH  58  61
ENDBRANCH  57  58
ENDBRANCH  55  57
ENDBRANCH  52  55
ENDBRANCH  49  52
ENDBRANCH  47  49
BRANCH  47  72
ATOM     72  C24 non d ame     -32.128  13.038  26.480  0.00  0.00    -0.039 C 
ATOM     73  H35 non d ame     -32.618  12.241  25.919  0.00  0.00     0.036 H 
ATOM     74  H36 non d ame     -32.721  13.843  26.912  0.00  0.00     0.036 H 
BRANCH  72  75
ATOM     75  C25 non d ame     -31.055  13.714  25.502  0.00  0.00    -0.001 C 
ATOM     76  C26 non d ame     -31.419  15.302  25.285  0.00  0.00    -0.035 C 
ATOM     77  C27 non d ame     -31.448  15.566  23.956  0.00  0.00     0.085 C 
ATOM     78  H38 non d ame     -32.442  15.499  25.606  0.00  0.00     0.036 H 
ATOM     79  H39 non d ame     -30.603  15.926  25.650  0.00  0.00     0.036 H 
ATOM     80  N5  non d ame     -31.462  14.235  23.243  0.00  0.00    -0.049 N 
ATOM     81  H40 non d ame     -32.398  16.073  23.780  0.00  0.00     0.075 H 
ATOM     82  H41 non d ame     -30.510  16.075  23.739  0.00  0.00     0.075 H 
ATOM     83  C28 non d ame     -31.043  13.135  24.347  0.00  0.00     0.193 C 
ATOM     84  H42 non d ame     -32.419  14.067  22.967  0.00  0.00     0.280 HD
ATOM     85  H43 non d ame     -30.735  14.280  22.542  0.00  0.00     0.280 HD
ATOM     86  H44 non d ame     -30.042  12.706  24.351  0.00  0.00     0.129 H 
ATOM     87  H37 non d ame     -30.030  13.474  25.784  0.00  0.00     0.046 H 
BRANCH  83  88
ATOM     88  O6  non d ame     -31.936  12.020  24.295  0.00  0.00    -0.369 OA
ATOM     89  H45 non d ame     -31.910  11.630  23.418  0.00  0.00     0.212 HD
ENDBRANCH  83  88
ENDBRANCH  72  75
ENDBRANCH  47  72
ENDBRANCH  45  47
ENDBRANCH   1  43
BRANCH   1  90
ATOM     90  C16 non d ame     -33.718   9.875  30.532  0.00  0.00    -0.035 C 
ATOM     91  H21 non d ame     -33.079   9.085  30.925  0.00  0.00     0.037 H 
ATOM     92  H22 non d ame     -33.373  10.909  30.542  0.00  0.00     0.037 H 
BRANCH  90  93
ATOM     93  C17 non d ame     -35.031   9.840  31.376  0.00  0.00    -0.059 C 
ATOM     94  H23 non d ame     -35.865  10.029  30.700  0.00  0.00     0.038 H 
BRANCH  93  95
ATOM     95  C18 non d ame     -35.265   8.447  32.044  0.00  0.00    -0.073 C 
ATOM     96  H24 non d ame     -34.318   8.062  32.423  0.00  0.00     0.028 H 
ATOM     97  H25 non d ame     -35.969   8.553  32.869  0.00  0.00     0.028 H 
ATOM     98  H26 non d ame     -35.670   7.754  31.307  0.00  0.00     0.028 H 
ENDBRANCH  93  95
BRANCH  93  99
ATOM     99  C19 non d ame     -35.037  10.954  32.426  0.00  0.00    -0.073 C 
ATOM    100  H27 non d ame     -34.527  10.608  33.326  0.00  0.00     0.028 H 
ATOM    101  H28 non d ame     -34.520  11.829  32.031  0.00  0.00     0.028 H 
ATOM    102  H29 non d ame     -36.065  11.220  32.669  0.00  0.00     0.028 H 
ENDBRANCH  93  99
ENDBRANCH  90  93
ENDBRANCH   1  90
TORSDOF 26
ENDMDL
MODEL 17
REMARK VINA RESULT:      -6.6      3.883      9.943
REMARK  26 active torsions:
REMARK  status: ('A' for Active; 'I' for Inactive)
REMARK    1  A    between atoms: C2_2  and  C3_3 
REMARK    2  A    between atoms: C4_6  and  C5_7 
REMARK       I    between atoms: C5_7  and  N2_9 
REMARK    3  A    between atoms: N2_9  and  C6_10 
REMARK    4  A    between atoms: C6_10  and  C7_11 
REMARK    5  A    between atoms: C6_10  and  C8_13 
REMARK       I    between atoms: C7_11  and  N3_14 
REMARK    6  A    between atoms: N3_14  and  C9_15 
REMARK    7  A    between atoms: C9_15  and  C10_16 
REMARK    8  A    between atoms: C9_15  and  C11_18 
REMARK       I    between atoms: C10_16  and  N4_21 
REMARK    9  A    between atoms: C11_18  and  C12_19 
REMARK   10  A    between atoms: C11_18  and  C13_20 
REMARK   11  A    between atoms: N4_21  and  C14_22 
REMARK   12  A    between atoms: C14_22  and  C15_23 
REMARK   13  A    between atoms: C14_22  and  C16_25 
REMARK       I    between atoms: C15_23  and  N6_40 
REMARK   14  A    between atoms: C16_25  and  C17_26 
REMARK   15  A    between atoms: C17_26  and  C18_27 
REMARK   16  A    between atoms: C17_26  and  C19_28 
REMARK   17  A    between atoms: C20_29  and  C21_30 
REMARK   18  A    between atoms: C20_29  and  C24_33 
REMARK   19  A    between atoms: C20_29  and  N6_40 
REMARK   20  A    between atoms: C21_30  and  C22_31 
REMARK   21  A    between atoms: C22_31  and  C23_32 
REMARK   22  A    between atoms: C23_32  and  O8_43 
REMARK   23  A    between atoms: C24_33  and  C25_34 
REMARK   24  A    between atoms: C28_38  and  O6_39 
REMARK   25  A    between atoms: C29_42  and  O8_43 
REMARK   26  A    between atoms: C29_42  and  C35_49 
ROOT
ATOM      1  C14 non d ame     -35.053   8.018  30.572  0.00  0.00     0.089 C 
ATOM      2  H20 non d ame     -34.913   8.234  31.631  0.00  0.00     0.087 H 
ENDROOT
BRANCH   1   3
ATOM      3  N4  non d ame     -34.124   8.856  29.828  0.00  0.00    -0.346 N 
ATOM      4  C10 non d ame     -33.540  10.095  30.460  0.00  0.00     0.241 C 
ATOM      5  O4  non d ame     -33.836  10.399  31.568  0.00  0.00    -0.271 OA
ATOM      6  H19 non d ame     -33.886   8.580  28.885  0.00  0.00     0.163 HD
BRANCH   4   7
ATOM      7  C9  non d ame     -32.575  10.946  29.678  0.00  0.00     0.092 C 
ATOM      8  H11 non d ame     -31.751  10.324  29.327  0.00  0.00     0.088 H 
BRANCH   7   9
ATOM      9  N3  non d ame     -33.248  11.483  28.492  0.00  0.00    -0.346 N 
ATOM     10  C7  non d ame     -33.138  10.797  27.228  0.00  0.00     0.240 C 
ATOM     11  O3  non d ame     -32.512   9.811  27.148  0.00  0.00    -0.271 OA
ATOM     12  H10 non d ame     -33.790  12.333  28.545  0.00  0.00     0.163 HD
BRANCH  10  13
ATOM     13  C6  non d ame     -33.854  11.375  25.968  0.00  0.00     0.086 C 
ATOM     14  H6  non d ame     -34.658  12.066  26.220  0.00  0.00     0.086 H 
BRANCH  13  15
ATOM     15  N2  non d ame     -32.890  12.128  25.183  0.00  0.00    -0.343 N 
ATOM     16  C5  non d ame     -32.582  13.512  25.551  0.00  0.00     0.273 C 
ATOM     17  O2  non d ame     -33.118  14.011  26.479  0.00  0.00    -0.266 OA
ATOM     18  H5  non d ame     -32.440  11.694  24.389  0.00  0.00     0.163 HD
BRANCH  16  19
ATOM     19  C4  non d ame     -31.564  14.318  24.731  0.00  0.00     0.154 A 
ATOM     20  C1  non d ame     -30.719  13.833  23.683  0.00  0.00    -0.017 A 
ATOM     21  C2  non d ame     -29.980  14.960  23.260  0.00  0.00     0.077 A 
ATOM     22  H1  non d ame     -30.650  12.818  23.291  0.00  0.00     0.091 H 
ATOM     23  O1  non d ame     -30.366  15.970  23.984  0.00  0.00    -0.218 OA
ATOM     24  N1  non d ame     -31.289  15.620  24.850  0.00  0.00    -0.123 NA
BRANCH  21  25
ATOM     25  C3  non d ame     -28.929  14.988  22.159  0.00  0.00    -0.029 C 
ATOM     26  H2  non d ame     -28.785  16.014  21.819  0.00  0.00     0.036 H 
ATOM     27  H3  non d ame     -27.987  14.599  22.546  0.00  0.00     0.036 H 
ATOM     28  H4  non d ame     -29.260  14.372  21.324  0.00  0.00     0.036 H 
ENDBRANCH  21  25
ENDBRANCH  16  19
ENDBRANCH  13  15
BRANCH  13  29
ATOM     29  C8  non d ame     -34.421  10.245  25.145  0.00  0.00    -0.049 C 
ATOM     30  H7  non d ame     -35.365   9.918  25.579  0.00  0.00     0.030 H 
ATOM     31  H8  non d ame     -34.591  10.590  24.125  0.00  0.00     0.030 H 
ATOM     32  H9  non d ame     -33.717   9.414  25.136  0.00  0.00     0.030 H 
ENDBRANCH  13  29
ENDBRANCH  10  13
ENDBRANCH   7   9
BRANCH   7  33
ATOM     33  C11 non d ame     -32.082  12.122  30.569  0.00  0.00    -0.033 C 
ATOM     34  H12 non d ame     -32.640  12.082  31.505  0.00  0.00     0.042 H 
BRANCH  33  35
ATOM     35  C12 non d ame     -30.568  11.975  30.919  0.00  0.00    -0.071 C 
ATOM     36  H13 non d ame     -30.223  12.877  31.424  0.00  0.00     0.028 H 
ATOM     37  H14 non d ame     -30.429  11.116  31.575  0.00  0.00     0.028 H 
ATOM     38  H15 non d ame     -29.995  11.831  30.003  0.00  0.00     0.028 H 
ENDBRANCH  33  35
BRANCH  33  39
ATOM     39  C13 non d ame     -32.375  13.499  29.891  0.00  0.00    -0.071 C 
ATOM     40  H16 non d ame     -31.584  14.206  30.144  0.00  0.00     0.028 H 
ATOM     41  H17 non d ame     -32.415  13.371  28.808  0.00  0.00     0.028 H 
ATOM     42  H18 non d ame     -33.331  13.882  30.245  0.00  0.00     0.028 H 
ENDBRANCH  33  39
ENDBRANCH   7  33
ENDBRANCH   4   7
ENDBRANCH   1   3
BRANCH   1  43
ATOM     43  C15 non d ame     -34.760   6.530  30.231  0.00  0.00     0.240 C 
ATOM     44  O5  non d ame     -34.958   5.687  31.046  0.00  0.00    -0.271 OA
ATOM     45  N6  non d ame     -34.241   6.152  28.886  0.00  0.00    -0.355 N 
ATOM     46  H46 non d ame     -34.074   6.859  28.184  0.00  0.00     0.162 HD
BRANCH  45  47
ATOM     47  C20 non d ame     -33.969   4.731  28.576  0.00  0.00     0.013 C 
ATOM     48  H30 non d ame     -33.954   4.181  29.517  0.00  0.00     0.072 H 
BRANCH  47  49
ATOM     49  C21 non d ame     -32.626   4.618  27.890  0.00  0.00    -0.038 C 
ATOM     50  H31 non d ame     -31.927   4.292  28.663  0.00  0.00     0.036 H 
ATOM     51  H32 non d ame     -32.796   3.996  27.012  0.00  0.00     0.036 H 
BRANCH  49  52
ATOM     52  C22 non d ame     -32.101   5.974  27.372  0.00  0.00     0.018 C 
ATOM     53  H33 non d ame     -32.575   6.731  27.994  0.00  0.00     0.048 H 
ATOM     54  H34 non d ame     -31.014   5.882  27.357  0.00  0.00     0.048 H 
BRANCH  52  55
ATOM     55  C23 non d ame     -32.524   6.292  25.911  0.00  0.00     0.259 C 
ATOM     56  O7  non d ame     -33.560   6.831  25.687  0.00  0.00    -0.265 OA
BRANCH  55  57
ATOM     57  O8  non d ame     -31.666   5.920  24.840  0.00  0.00    -0.317 OA
BRANCH  57  58
ATOM     58  C29 non d ame     -32.109   6.371  23.556  0.00  0.00     0.052 C 
ATOM     59  H47 non d ame     -31.910   5.548  22.870  0.00  0.00     0.082 H 
ATOM     60  H48 non d ame     -33.129   6.725  23.703  0.00  0.00     0.082 H 
BRANCH  58  61
ATOM     61  C35 non d ame     -31.225   7.579  23.142  0.00  0.00    -0.034 A 
ATOM     62  C30 non d ame     -29.917   7.371  22.716  0.00  0.00    -0.075 A 
ATOM     63  C31 non d ame     -29.124   8.456  22.344  0.00  0.00    -0.082 A 
ATOM     64  H49 non d ame     -29.513   6.360  22.675  0.00  0.00     0.084 H 
ATOM     65  C32 non d ame     -29.643   9.752  22.402  0.00  0.00    -0.083 A 
ATOM     66  H50 non d ame     -28.099   8.290  22.010  0.00  0.00     0.083 H 
ATOM     67  C33 non d ame     -30.947   9.954  22.830  0.00  0.00    -0.082 A 
ATOM     68  H51 non d ame     -29.029  10.605  22.112  0.00  0.00     0.083 H 
ATOM     69  C34 non d ame     -31.744   8.873  23.201  0.00  0.00    -0.075 A 
ATOM     70  H52 non d ame     -31.349  10.967  22.876  0.00  0.00     0.083 H 
ATOM     71  H53 non d ame     -32.769   9.040  23.535  0.00  0.00     0.084 H 
ENDBRANCH  58  61
ENDBRANCH  57  58
ENDBRANCH  55  57
ENDBRANCH  52  55
ENDBRANCH  49  52
ENDBRANCH  47  49
BRANCH  47  72
ATOM     72  C24 non d ame     -35.059   4.184  27.658  0.00  0.00    -0.039 C 
ATOM     73  H35 non d ame     -34.593   4.095  26.676  0.00  0.00     0.036 H 
ATOM     74  H36 non d ame     -35.443   3.297  28.161  0.00  0.00     0.036 H 
BRANCH  72  75
ATOM     75  C25 non d ame     -36.281   5.210  27.511  0.00  0.00    -0.001 C 
ATOM     76  C26 non d ame     -37.589   4.642  28.329  0.00  0.00    -0.035 C 
ATOM     77  C27 non d ame     -38.661   4.657  27.501  0.00  0.00     0.085 C 
ATOM     78  H38 non d ame     -37.458   3.585  28.557  0.00  0.00     0.036 H 
ATOM     79  H39 non d ame     -37.868   5.340  29.119  0.00  0.00     0.036 H 
ATOM     80  N5  non d ame     -38.136   4.871  26.102  0.00  0.00    -0.049 N 
ATOM     81  H40 non d ame     -39.095   3.658  27.568  0.00  0.00     0.075 H 
ATOM     82  H41 non d ame     -39.247   5.526  27.797  0.00  0.00     0.075 H 
ATOM     83  C28 non d ame     -36.610   5.371  26.273  0.00  0.00     0.193 C 
ATOM     84  H42 non d ame     -38.129   3.965  25.656  0.00  0.00     0.280 HD
ATOM     85  H43 non d ame     -38.679   5.625  25.705  0.00  0.00     0.280 HD
ATOM     86  H44 non d ame     -36.352   6.420  26.134  0.00  0.00     0.129 H 
ATOM     87  H37 non d ame     -35.982   6.239  27.707  0.00  0.00     0.046 H 
BRANCH  83  88
ATOM     88  O6  non d ame     -35.752   4.647  25.388  0.00  0.00    -0.369 OA
ATOM     89  H45 non d ame     -35.893   3.705  25.506  0.00  0.00     0.212 HD
ENDBRANCH  83  88
ENDBRANCH  72  75
ENDBRANCH  47  72
ENDBRANCH  45  47
ENDBRANCH   1  43
BRANCH   1  90
ATOM     90  C16 non d ame     -36.474   8.367  30.159  0.00  0.00    -0.035 C 
ATOM     91  H21 non d ame     -36.371   9.098  29.358  0.00  0.00     0.037 H 
ATOM     92  H22 non d ame     -36.961   7.412  29.965  0.00  0.00     0.037 H 
BRANCH  90  93
ATOM     93  C17 non d ame     -37.301   9.063  31.286  0.00  0.00    -0.059 C 
ATOM     94  H23 non d ame     -36.772   8.912  32.227  0.00  0.00     0.038 H 
BRANCH  93  95
ATOM     95  C18 non d ame     -37.434  10.603  31.055  0.00  0.00    -0.073 C 
ATOM     96  H24 non d ame     -37.007  10.863  30.086  0.00  0.00     0.028 H 
ATOM     97  H25 non d ame     -38.487  10.883  31.073  0.00  0.00     0.028 H 
ATOM     98  H26 non d ame     -36.902  11.136  31.842  0.00  0.00     0.028 H 
ENDBRANCH  93  95
BRANCH  93  99
ATOM     99  C19 non d ame     -38.681   8.415  31.432  0.00  0.00    -0.073 C 
ATOM    100  H27 non d ame     -38.634   7.626  32.184  0.00  0.00     0.028 H 
ATOM    101  H28 non d ame     -39.406   9.167  31.741  0.00  0.00     0.028 H 
ATOM    102  H29 non d ame     -38.985   7.989  30.476  0.00  0.00     0.028 H 
ENDBRANCH  93  99
ENDBRANCH  90  93
ENDBRANCH   1  90
TORSDOF 26
ENDMDL
MODEL 18
REMARK VINA RESULT:      -6.6      2.958      7.893
REMARK  26 active torsions:
REMARK  status: ('A' for Active; 'I' for Inactive)
REMARK    1  A    between atoms: C2_2  and  C3_3 
REMARK    2  A    between atoms: C4_6  and  C5_7 
REMARK       I    between atoms: C5_7  and  N2_9 
REMARK    3  A    between atoms: N2_9  and  C6_10 
REMARK    4  A    between atoms: C6_10  and  C7_11 
REMARK    5  A    between atoms: C6_10  and  C8_13 
REMARK       I    between atoms: C7_11  and  N3_14 
REMARK    6  A    between atoms: N3_14  and  C9_15 
REMARK    7  A    between atoms: C9_15  and  C10_16 
REMARK    8  A    between atoms: C9_15  and  C11_18 
REMARK       I    between atoms: C10_16  and  N4_21 
REMARK    9  A    between atoms: C11_18  and  C12_19 
REMARK   10  A    between atoms: C11_18  and  C13_20 
REMARK   11  A    between atoms: N4_21  and  C14_22 
REMARK   12  A    between atoms: C14_22  and  C15_23 
REMARK   13  A    between atoms: C14_22  and  C16_25 
REMARK       I    between atoms: C15_23  and  N6_40 
REMARK   14  A    between atoms: C16_25  and  C17_26 
REMARK   15  A    between atoms: C17_26  and  C18_27 
REMARK   16  A    between atoms: C17_26  and  C19_28 
REMARK   17  A    between atoms: C20_29  and  C21_30 
REMARK   18  A    between atoms: C20_29  and  C24_33 
REMARK   19  A    between atoms: C20_29  and  N6_40 
REMARK   20  A    between atoms: C21_30  and  C22_31 
REMARK   21  A    between atoms: C22_31  and  C23_32 
REMARK   22  A    between atoms: C23_32  and  O8_43 
REMARK   23  A    between atoms: C24_33  and  C25_34 
REMARK   24  A    between atoms: C28_38  and  O6_39 
REMARK   25  A    between atoms: C29_42  and  O8_43 
REMARK   26  A    between atoms: C29_42  and  C35_49 
ROOT
ATOM      1  C14 non d ame     -34.465   9.147  30.136  0.00  0.00     0.089 C 
ATOM      2  H20 non d ame     -35.475   9.447  29.856  0.00  0.00     0.087 H 
ENDROOT
BRANCH   1   3
ATOM      3  N4  non d ame     -34.106   8.001  29.315  0.00  0.00    -0.346 N 
ATOM      4  C10 non d ame     -35.055   7.493  28.258  0.00  0.00     0.241 C 
ATOM      5  O4  non d ame     -36.103   8.021  28.090  0.00  0.00    -0.271 OA
ATOM      6  H19 non d ame     -33.209   7.564  29.476  0.00  0.00     0.163 HD
BRANCH   4   7
ATOM      7  C9  non d ame     -34.663   6.309  27.414  0.00  0.00     0.092 C 
ATOM      8  H11 non d ame     -35.433   5.541  27.494  0.00  0.00     0.088 H 
BRANCH   7   9
ATOM      9  N3  non d ame     -34.597   6.712  26.007  0.00  0.00    -0.346 N 
ATOM     10  C7  non d ame     -35.131   5.848  24.983  0.00  0.00     0.240 C 
ATOM     11  O3  non d ame     -35.617   4.823  25.275  0.00  0.00    -0.271 OA
ATOM     12  H10 non d ame     -34.180   7.592  25.739  0.00  0.00     0.163 HD
BRANCH  10  13
ATOM     13  C6  non d ame     -35.055   6.281  23.486  0.00  0.00     0.086 C 
ATOM     14  H6  non d ame     -35.652   7.168  23.273  0.00  0.00     0.086 H 
BRANCH  13  15
ATOM     15  N2  non d ame     -33.679   6.619  23.163  0.00  0.00    -0.343 N 
ATOM     16  C5  non d ame     -33.230   8.009  23.280  0.00  0.00     0.273 C 
ATOM     17  O2  non d ame     -33.985   8.847  23.632  0.00  0.00    -0.266 OA
ATOM     18  H5  non d ame     -33.042   5.897  22.859  0.00  0.00     0.163 HD
BRANCH  16  19
ATOM     19  C4  non d ame     -31.778   8.379  22.943  0.00  0.00     0.154 A 
ATOM     20  C1  non d ame     -30.650   7.500  22.893  0.00  0.00    -0.017 A 
ATOM     21  C2  non d ame     -29.560   8.327  22.541  0.00  0.00     0.077 A 
ATOM     22  H1  non d ame     -30.626   6.427  23.083  0.00  0.00     0.091 H 
ATOM     23  O1  non d ame     -30.019   9.537  22.404  0.00  0.00    -0.218 OA
ATOM     24  N1  non d ame     -31.311   9.592  22.635  0.00  0.00    -0.123 NA
BRANCH  21  25
ATOM     25  C3  non d ame     -28.115   7.882  22.353  0.00  0.00    -0.029 C 
ATOM     26  H2  non d ame     -27.507   8.738  22.059  0.00  0.00     0.036 H 
ATOM     27  H3  non d ame     -27.737   7.474  23.290  0.00  0.00     0.036 H 
ATOM     28  H4  non d ame     -28.067   7.119  21.578  0.00  0.00     0.036 H 
ENDBRANCH  21  25
ENDBRANCH  16  19
ENDBRANCH  13  15
BRANCH  13  29
ATOM     29  C8  non d ame     -35.529   5.150  22.608  0.00  0.00    -0.049 C 
ATOM     30  H7  non d ame     -36.514   4.822  22.938  0.00  0.00     0.030 H 
ATOM     31  H8  non d ame     -35.589   5.494  21.575  0.00  0.00     0.030 H 
ATOM     32  H9  non d ame     -34.827   4.319  22.675  0.00  0.00     0.030 H 
ENDBRANCH  13  29
ENDBRANCH  10  13
ENDBRANCH   7   9
BRANCH   7  33
ATOM     33  C11 non d ame     -33.269   5.788  27.868  0.00  0.00    -0.033 C 
ATOM     34  H12 non d ame     -33.058   6.222  28.846  0.00  0.00     0.042 H 
BRANCH  33  35
ATOM     35  C12 non d ame     -33.267   4.236  28.033  0.00  0.00    -0.071 C 
ATOM     36  H13 non d ame     -32.753   3.781  27.187  0.00  0.00     0.028 H 
ATOM     37  H14 non d ame     -32.754   3.970  28.957  0.00  0.00     0.028 H 
ATOM     38  H15 non d ame     -34.295   3.873  28.071  0.00  0.00     0.028 H 
ENDBRANCH  33  35
BRANCH  33  39
ATOM     39  C13 non d ame     -32.149   6.253  26.882  0.00  0.00    -0.071 C 
ATOM     40  H16 non d ame     -32.604   6.613  25.959  0.00  0.00     0.028 H 
ATOM     41  H17 non d ame     -31.572   7.057  27.340  0.00  0.00     0.028 H 
ATOM     42  H18 non d ame     -31.489   5.415  26.660  0.00  0.00     0.028 H 
ENDBRANCH  33  39
ENDBRANCH   7  33
ENDBRANCH   4   7
ENDBRANCH   1   3
BRANCH   1  43
ATOM     43  C15 non d ame     -33.427  10.278  29.890  0.00  0.00     0.240 C 
ATOM     44  O5  non d ame     -32.582  10.491  30.699  0.00  0.00    -0.271 OA
ATOM     45  N6  non d ame     -33.478  11.090  28.641  0.00  0.00    -0.355 N 
ATOM     46  H46 non d ame     -34.187  10.914  27.944  0.00  0.00     0.162 HD
BRANCH  45  47
ATOM     47  C20 non d ame     -32.481  12.161  28.421  0.00  0.00     0.013 C 
ATOM     48  H30 non d ame     -31.489  11.726  28.544  0.00  0.00     0.072 H 
BRANCH  47  49
ATOM     49  C21 non d ame     -32.694  13.259  29.438  0.00  0.00    -0.038 C 
ATOM     50  H31 non d ame     -33.561  13.822  29.087  0.00  0.00     0.036 H 
ATOM     51  H32 non d ame     -32.724  12.761  30.407  0.00  0.00     0.036 H 
BRANCH  49  52
ATOM     52  C22 non d ame     -31.520  14.259  29.496  0.00  0.00     0.018 C 
ATOM     53  H33 non d ame     -30.978  14.026  30.412  0.00  0.00     0.048 H 
ATOM     54  H34 non d ame     -31.017  14.179  28.531  0.00  0.00     0.048 H 
BRANCH  52  55
ATOM     55  C23 non d ame     -31.965  15.741  29.626  0.00  0.00     0.259 C 
ATOM     56  O7  non d ame     -31.381  16.486  30.345  0.00  0.00    -0.265 OA
BRANCH  55  57
ATOM     57  O8  non d ame     -33.090  16.199  28.885  0.00  0.00    -0.317 OA
BRANCH  57  58
ATOM     58  C29 non d ame     -32.815  16.443  27.502  0.00  0.00     0.052 C 
ATOM     59  H47 non d ame     -31.729  16.424  27.410  0.00  0.00     0.082 H 
ATOM     60  H48 non d ame     -33.423  15.727  26.949  0.00  0.00     0.082 H 
BRANCH  58  61
ATOM     61  C35 non d ame     -33.311  17.874  27.160  0.00  0.00    -0.034 A 
ATOM     62  C30 non d ame     -32.566  18.981  27.552  0.00  0.00    -0.075 A 
ATOM     63  C31 non d ame     -33.012  20.267  27.246  0.00  0.00    -0.082 A 
ATOM     64  H49 non d ame     -31.635  18.843  28.100  0.00  0.00     0.084 H 
ATOM     65  C32 non d ame     -34.209  20.442  26.546  0.00  0.00    -0.083 A 
ATOM     66  H50 non d ame     -32.425  21.133  27.553  0.00  0.00     0.083 H 
ATOM     67  C33 non d ame     -34.950  19.333  26.159  0.00  0.00    -0.082 A 
ATOM     68  H51 non d ame     -34.564  21.443  26.301  0.00  0.00     0.083 H 
ATOM     69  C34 non d ame     -34.507  18.047  26.462  0.00  0.00    -0.075 A 
ATOM     70  H52 non d ame     -35.885  19.473  25.615  0.00  0.00     0.083 H 
ATOM     71  H53 non d ame     -35.095  17.182  26.153  0.00  0.00     0.084 H 
ENDBRANCH  58  61
ENDBRANCH  57  58
ENDBRANCH  55  57
ENDBRANCH  52  55
ENDBRANCH  49  52
ENDBRANCH  47  49
BRANCH  47  72
ATOM     72  C24 non d ame     -32.639  12.732  27.013  0.00  0.00    -0.039 C 
ATOM     73  H35 non d ame     -33.381  12.097  26.525  0.00  0.00     0.036 H 
ATOM     74  H36 non d ame     -32.838  13.794  27.152  0.00  0.00     0.036 H 
BRANCH  72  75
ATOM     75  C25 non d ame     -31.283  12.610  26.169  0.00  0.00    -0.001 C 
ATOM     76  C26 non d ame     -31.023  13.998  25.327  0.00  0.00    -0.035 C 
ATOM     77  C27 non d ame     -30.792  13.685  24.029  0.00  0.00     0.085 C 
ATOM     78  H38 non d ame     -31.937  14.590  25.288  0.00  0.00     0.036 H 
ATOM     79  H39 non d ame     -30.088  14.460  25.647  0.00  0.00     0.036 H 
ATOM     80  N5  non d ame     -31.196  12.242  23.845  0.00  0.00    -0.049 N 
ATOM     81  H40 non d ame     -31.467  14.319  23.453  0.00  0.00     0.075 H 
ATOM     82  H41 non d ame     -29.715  13.773  23.895  0.00  0.00     0.075 H 
ATOM     83  C28 non d ame     -31.340  11.628  25.332  0.00  0.00     0.193 C 
ATOM     84  H42 non d ame     -32.108  12.252  23.412  0.00  0.00     0.280 HD
ATOM     85  H43 non d ame     -30.422  11.786  23.382  0.00  0.00     0.280 HD
ATOM     86  H44 non d ame     -30.568  10.976  25.739  0.00  0.00     0.129 H 
ATOM     87  H37 non d ame     -30.456  12.231  26.768  0.00  0.00     0.046 H 
BRANCH  83  88
ATOM     88  O6  non d ame     -32.560  10.893  25.445  0.00  0.00    -0.369 OA
ATOM     89  H45 non d ame     -32.561  10.400  26.268  0.00  0.00     0.212 HD
ENDBRANCH  83  88
ENDBRANCH  72  75
ENDBRANCH  47  72
ENDBRANCH  45  47
ENDBRANCH   1  43
BRANCH   1  90
ATOM     90  C16 non d ame     -34.438   8.737  31.600  0.00  0.00    -0.035 C 
ATOM     91  H21 non d ame     -34.568   7.655  31.599  0.00  0.00     0.037 H 
ATOM     92  H22 non d ame     -33.526   9.175  32.005  0.00  0.00     0.037 H 
BRANCH  90  93
ATOM     93  C17 non d ame     -35.619   9.322  32.438  0.00  0.00    -0.059 C 
ATOM     94  H23 non d ame     -35.717   8.717  33.339  0.00  0.00     0.038 H 
BRANCH  93  95
ATOM     95  C18 non d ame     -35.354  10.796  32.880  0.00  0.00    -0.073 C 
ATOM     96  H24 non d ame     -34.690  10.803  33.744  0.00  0.00     0.028 H 
ATOM     97  H25 non d ame     -34.888  11.343  32.060  0.00  0.00     0.028 H 
ATOM     98  H26 non d ame     -36.298  11.272  33.143  0.00  0.00     0.028 H 
ENDBRANCH  93  95
BRANCH  93  99
ATOM     99  C19 non d ame     -36.939   9.212  31.670  0.00  0.00    -0.073 C 
ATOM    100  H27 non d ame     -36.736   8.951  30.631  0.00  0.00     0.028 H 
ATOM    101  H28 non d ame     -37.560   8.439  32.123  0.00  0.00     0.028 H 
ATOM    102  H29 non d ame     -37.463  10.167  31.710  0.00  0.00     0.028 H 
ENDBRANCH  93  99
ENDBRANCH  90  93
ENDBRANCH   1  90
TORSDOF 26
ENDMDL
MODEL 19
REMARK VINA RESULT:      -6.6      2.596      6.577
REMARK  26 active torsions:
REMARK  status: ('A' for Active; 'I' for Inactive)
REMARK    1  A    between atoms: C2_2  and  C3_3 
REMARK    2  A    between atoms: C4_6  and  C5_7 
REMARK       I    between atoms: C5_7  and  N2_9 
REMARK    3  A    between atoms: N2_9  and  C6_10 
REMARK    4  A    between atoms: C6_10  and  C7_11 
REMARK    5  A    between atoms: C6_10  and  C8_13 
REMARK       I    between atoms: C7_11  and  N3_14 
REMARK    6  A    between atoms: N3_14  and  C9_15 
REMARK    7  A    between atoms: C9_15  and  C10_16 
REMARK    8  A    between atoms: C9_15  and  C11_18 
REMARK       I    between atoms: C10_16  and  N4_21 
REMARK    9  A    between atoms: C11_18  and  C12_19 
REMARK   10  A    between atoms: C11_18  and  C13_20 
REMARK   11  A    between atoms: N4_21  and  C14_22 
REMARK   12  A    between atoms: C14_22  and  C15_23 
REMARK   13  A    between atoms: C14_22  and  C16_25 
REMARK       I    between atoms: C15_23  and  N6_40 
REMARK   14  A    between atoms: C16_25  and  C17_26 
REMARK   15  A    between atoms: C17_26  and  C18_27 
REMARK   16  A    between atoms: C17_26  and  C19_28 
REMARK   17  A    between atoms: C20_29  and  C21_30 
REMARK   18  A    between atoms: C20_29  and  C24_33 
REMARK   19  A    between atoms: C20_29  and  N6_40 
REMARK   20  A    between atoms: C21_30  and  C22_31 
REMARK   21  A    between atoms: C22_31  and  C23_32 
REMARK   22  A    between atoms: C23_32  and  O8_43 
REMARK   23  A    between atoms: C24_33  and  C25_34 
REMARK   24  A    between atoms: C28_38  and  O6_39 
REMARK   25  A    between atoms: C29_42  and  O8_43 
REMARK   26  A    between atoms: C29_42  and  C35_49 
ROOT
ATOM      1  C14 non d ame     -32.216   9.593  24.592  0.00  0.00     0.089 C 
ATOM      2  H20 non d ame     -31.757   8.714  25.045  0.00  0.00     0.087 H 
ENDROOT
BRANCH   1   3
ATOM      3  N4  non d ame     -33.537   9.750  25.182  0.00  0.00    -0.346 N 
ATOM      4  C10 non d ame     -34.347   8.538  25.571  0.00  0.00     0.241 C 
ATOM      5  O4  non d ame     -33.916   7.447  25.395  0.00  0.00    -0.271 OA
ATOM      6  H19 non d ame     -33.887  10.687  25.322  0.00  0.00     0.163 HD
BRANCH   4   7
ATOM      7  C9  non d ame     -35.709   8.720  26.187  0.00  0.00     0.092 C 
ATOM      8  H11 non d ame     -36.144   7.741  26.391  0.00  0.00     0.088 H 
BRANCH   7   9
ATOM      9  N3  non d ame     -35.577   9.412  27.471  0.00  0.00    -0.346 N 
ATOM     10  C7  non d ame     -36.328   8.958  28.616  0.00  0.00     0.240 C 
ATOM     11  O3  non d ame     -37.045   8.037  28.520  0.00  0.00    -0.271 OA
ATOM     12  H10 non d ame     -34.965  10.209  27.569  0.00  0.00     0.163 HD
BRANCH  10  13
ATOM     13  C6  non d ame     -36.186   9.701  29.980  0.00  0.00     0.086 C 
ATOM     14  H6  non d ame     -35.934   9.030  30.802  0.00  0.00     0.086 H 
BRANCH  13  15
ATOM     15  N2  non d ame     -35.100  10.662  29.882  0.00  0.00    -0.343 N 
ATOM     16  C5  non d ame     -33.879  10.454  30.664  0.00  0.00     0.273 C 
ATOM     17  O2  non d ame     -33.781   9.512  31.370  0.00  0.00    -0.266 OA
ATOM     18  H5  non d ame     -35.194  11.467  29.279  0.00  0.00     0.163 HD
BRANCH  16  19
ATOM     19  C4  non d ame     -32.723  11.461  30.568  0.00  0.00     0.154 A 
ATOM     20  C1  non d ame     -32.730  12.725  29.897  0.00  0.00    -0.017 A 
ATOM     21  C2  non d ame     -31.437  13.255  30.105  0.00  0.00     0.077 A 
ATOM     22  H1  non d ame     -33.547  13.186  29.342  0.00  0.00     0.091 H 
ATOM     23  O1  non d ame     -30.774  12.391  30.817  0.00  0.00    -0.218 OA
ATOM     24  N1  non d ame     -31.503  11.336  31.099  0.00  0.00    -0.123 NA
BRANCH  21  25
ATOM     25  C3  non d ame     -30.918  14.592  29.593  0.00  0.00    -0.029 C 
ATOM     26  H2  non d ame     -30.618  14.490  28.550  0.00  0.00     0.036 H 
ATOM     27  H3  non d ame     -31.704  15.342  29.673  0.00  0.00     0.036 H 
ATOM     28  H4  non d ame     -30.059  14.900  30.189  0.00  0.00     0.036 H 
ENDBRANCH  21  25
ENDBRANCH  16  19
ENDBRANCH  13  15
BRANCH  13  29
ATOM     29  C8  non d ame     -37.476  10.410  30.306  0.00  0.00    -0.049 C 
ATOM     30  H7  non d ame     -38.214   9.685  30.647  0.00  0.00     0.030 H 
ATOM     31  H8  non d ame     -37.297  11.144  31.093  0.00  0.00     0.030 H 
ATOM     32  H9  non d ame     -37.848  10.916  29.415  0.00  0.00     0.030 H 
ENDBRANCH  13  29
ENDBRANCH  10  13
ENDBRANCH   7   9
BRANCH   7  33
ATOM     33  C11 non d ame     -36.600   9.567  25.232  0.00  0.00    -0.033 C 
ATOM     34  H12 non d ame     -36.082   9.637  24.276  0.00  0.00     0.042 H 
BRANCH  33  35
ATOM     35  C12 non d ame     -37.975   8.875  24.972  0.00  0.00    -0.071 C 
ATOM     36  H13 non d ame     -38.134   8.093  25.714  0.00  0.00     0.028 H 
ATOM     37  H14 non d ame     -38.772   9.613  25.044  0.00  0.00     0.028 H 
ATOM     38  H15 non d ame     -37.976   8.434  23.975  0.00  0.00     0.028 H 
ENDBRANCH  33  35
BRANCH  33  39
ATOM     39  C13 non d ame     -36.792  11.016  25.785  0.00  0.00    -0.071 C 
ATOM     40  H16 non d ame     -35.908  11.309  26.353  0.00  0.00     0.028 H 
ATOM     41  H17 non d ame     -36.935  11.707  24.954  0.00  0.00     0.028 H 
ATOM     42  H18 non d ame     -37.667  11.044  26.434  0.00  0.00     0.028 H 
ENDBRANCH  33  39
ENDBRANCH   7  33
ENDBRANCH   4   7
ENDBRANCH   1   3
BRANCH   1  43
ATOM     43  C15 non d ame     -31.397  10.887  24.858  0.00  0.00     0.240 C 
ATOM     44  O5  non d ame     -30.739  10.977  25.844  0.00  0.00    -0.271 OA
ATOM     45  N6  non d ame     -31.426  12.012  23.881  0.00  0.00    -0.355 N 
ATOM     46  H46 non d ame     -31.978  11.945  23.037  0.00  0.00     0.162 HD
BRANCH  45  47
ATOM     47  C20 non d ame     -30.640  13.236  24.147  0.00  0.00     0.013 C 
ATOM     48  H30 non d ame     -29.945  13.018  24.958  0.00  0.00     0.072 H 
BRANCH  47  49
ATOM     49  C21 non d ame     -31.575  14.352  24.555  0.00  0.00    -0.038 C 
ATOM     50  H31 non d ame     -31.024  15.278  24.381  0.00  0.00     0.036 H 
ATOM     51  H32 non d ame     -32.507  14.164  24.023  0.00  0.00     0.036 H 
BRANCH  49  52
ATOM     52  C22 non d ame     -31.919  14.327  26.060  0.00  0.00     0.018 C 
ATOM     53  H33 non d ame     -31.330  13.515  26.484  0.00  0.00     0.048 H 
ATOM     54  H34 non d ame     -31.771  15.349  26.413  0.00  0.00     0.048 H 
BRANCH  52  55
ATOM     55  C23 non d ame     -33.404  13.981  26.358  0.00  0.00     0.259 C 
ATOM     56  O7  non d ame     -33.778  12.853  26.332  0.00  0.00    -0.265 OA
BRANCH  55  57
ATOM     57  O8  non d ame     -34.319  15.031  26.650  0.00  0.00    -0.317 OA
BRANCH  57  58
ATOM     58  C29 non d ame     -34.116  15.640  27.928  0.00  0.00     0.052 C 
ATOM     59  H47 non d ame     -35.043  15.482  28.480  0.00  0.00     0.082 H 
ATOM     60  H48 non d ame     -33.180  15.230  28.306  0.00  0.00     0.082 H 
BRANCH  58  61
ATOM     61  C35 non d ame     -33.930  17.166  27.708  0.00  0.00    -0.034 A 
ATOM     62  C30 non d ame     -32.704  17.663  27.279  0.00  0.00    -0.075 A 
ATOM     63  C31 non d ame     -32.537  19.033  27.081  0.00  0.00    -0.082 A 
ATOM     64  H49 non d ame     -31.874  16.980  27.098  0.00  0.00     0.084 H 
ATOM     65  C32 non d ame     -33.601  19.907  27.316  0.00  0.00    -0.083 A 
ATOM     66  H50 non d ame     -31.574  19.420  26.743  0.00  0.00     0.083 H 
ATOM     67  C33 non d ame     -34.822  19.407  27.747  0.00  0.00    -0.082 A 
ATOM     68  H51 non d ame     -33.479  20.979  27.163  0.00  0.00     0.083 H 
ATOM     69  C34 non d ame     -34.994  18.038  27.944  0.00  0.00    -0.075 A 
ATOM     70  H52 non d ame     -35.651  20.091  27.932  0.00  0.00     0.083 H 
ATOM     71  H53 non d ame     -35.957  17.653  28.281  0.00  0.00     0.084 H 
ENDBRANCH  58  61
ENDBRANCH  57  58
ENDBRANCH  55  57
ENDBRANCH  52  55
ENDBRANCH  49  52
ENDBRANCH  47  49
BRANCH  47  72
ATOM     72  C24 non d ame     -29.876  13.645  22.890  0.00  0.00    -0.039 C 
ATOM     73  H35 non d ame     -28.848  13.806  23.215  0.00  0.00     0.036 H 
ATOM     74  H36 non d ame     -30.099  12.874  22.152  0.00  0.00     0.036 H 
BRANCH  72  75
ATOM     75  C25 non d ame     -30.409  15.034  22.297  0.00  0.00    -0.001 C 
ATOM     76  C26 non d ame     -31.098  14.787  20.825  0.00  0.00    -0.035 C 
ATOM     77  C27 non d ame     -30.557  15.657  19.938  0.00  0.00     0.085 C 
ATOM     78  H38 non d ame     -30.808  13.812  20.435  0.00  0.00     0.036 H 
ATOM     79  H39 non d ame     -32.150  15.072  20.852  0.00  0.00     0.036 H 
ATOM     80  N5  non d ame     -29.333  16.249  20.592  0.00  0.00    -0.049 N 
ATOM     81  H40 non d ame     -30.247  15.050  19.087  0.00  0.00     0.075 H 
ATOM     82  H41 non d ame     -31.303  16.440  19.806  0.00  0.00     0.075 H 
ATOM     83  C28 non d ame     -29.446  15.885  22.161  0.00  0.00     0.193 C 
ATOM     84  H42 non d ame     -28.537  15.762  20.206  0.00  0.00     0.280 HD
ATOM     85  H43 non d ame     -29.410  17.251  20.488  0.00  0.00     0.280 HD
ATOM     86  H44 non d ame     -29.746  16.641  22.885  0.00  0.00     0.129 H 
ATOM     87  H37 non d ame     -30.988  15.600  23.027  0.00  0.00     0.046 H 
BRANCH  83  88
ATOM     88  O6  non d ame     -28.201  15.370  22.639  0.00  0.00    -0.369 OA
ATOM     89  H45 non d ame     -27.632  16.099  22.897  0.00  0.00     0.212 HD
ENDBRANCH  83  88
ENDBRANCH  72  75
ENDBRANCH  47  72
ENDBRANCH  45  47
ENDBRANCH   1  43
BRANCH   1  90
ATOM     90  C16 non d ame     -32.365   9.381  23.093  0.00  0.00    -0.035 C 
ATOM     91  H21 non d ame     -33.356   8.947  22.960  0.00  0.00     0.037 H 
ATOM     92  H22 non d ame     -32.128  10.344  22.641  0.00  0.00     0.037 H 
BRANCH  90  93
ATOM     93  C17 non d ame     -31.351   8.352  22.501  0.00  0.00    -0.059 C 
ATOM     94  H23 non d ame     -31.801   7.918  21.609  0.00  0.00     0.038 H 
BRANCH  93  95
ATOM     95  C18 non d ame     -30.007   9.027  22.078  0.00  0.00    -0.073 C 
ATOM     96  H24 non d ame     -30.096   9.406  21.060  0.00  0.00     0.028 H 
ATOM     97  H25 non d ame     -29.786   9.853  22.754  0.00  0.00     0.028 H 
ATOM     98  H26 non d ame     -29.202   8.295  22.124  0.00  0.00     0.028 H 
ENDBRANCH  93  95
BRANCH  93  99
ATOM     99  C19 non d ame     -31.098   7.206  23.485  0.00  0.00    -0.073 C 
ATOM    100  H27 non d ame     -30.636   7.600  24.391  0.00  0.00     0.028 H 
ATOM    101  H28 non d ame     -32.044   6.730  23.740  0.00  0.00     0.028 H 
ATOM    102  H29 non d ame     -30.434   6.474  23.027  0.00  0.00     0.028 H 
ENDBRANCH  93  99
ENDBRANCH  90  93
ENDBRANCH   1  90
TORSDOF 26
ENDMDL
MODEL 20
REMARK VINA RESULT:      -6.5      1.944      6.120
REMARK  26 active torsions:
REMARK  status: ('A' for Active; 'I' for Inactive)
REMARK    1  A    between atoms: C2_2  and  C3_3 
REMARK    2  A    between atoms: C4_6  and  C5_7 
REMARK       I    between atoms: C5_7  and  N2_9 
REMARK    3  A    between atoms: N2_9  and  C6_10 
REMARK    4  A    between atoms: C6_10  and  C7_11 
REMARK    5  A    between atoms: C6_10  and  C8_13 
REMARK       I    between atoms: C7_11  and  N3_14 
REMARK    6  A    between atoms: N3_14  and  C9_15 
REMARK    7  A    between atoms: C9_15  and  C10_16 
REMARK    8  A    between atoms: C9_15  and  C11_18 
REMARK       I    between atoms: C10_16  and  N4_21 
REMARK    9  A    between atoms: C11_18  and  C12_19 
REMARK   10  A    between atoms: C11_18  and  C13_20 
REMARK   11  A    between atoms: N4_21  and  C14_22 
REMARK   12  A    between atoms: C14_22  and  C15_23 
REMARK   13  A    between atoms: C14_22  and  C16_25 
REMARK       I    between atoms: C15_23  and  N6_40 
REMARK   14  A    between atoms: C16_25  and  C17_26 
REMARK   15  A    between atoms: C17_26  and  C18_27 
REMARK   16  A    between atoms: C17_26  and  C19_28 
REMARK   17  A    between atoms: C20_29  and  C21_30 
REMARK   18  A    between atoms: C20_29  and  C24_33 
REMARK   19  A    between atoms: C20_29  and  N6_40 
REMARK   20  A    between atoms: C21_30  and  C22_31 
REMARK   21  A    between atoms: C22_31  and  C23_32 
REMARK   22  A    between atoms: C23_32  and  O8_43 
REMARK   23  A    between atoms: C24_33  and  C25_34 
REMARK   24  A    between atoms: C28_38  and  O6_39 
REMARK   25  A    between atoms: C29_42  and  O8_43 
REMARK   26  A    between atoms: C29_42  and  C35_49 
ROOT
ATOM      1  C14 non d ame     -33.051  10.998  26.407  0.00  0.00     0.089 C 
ATOM      2  H20 non d ame     -33.356  10.950  27.453  0.00  0.00     0.087 H 
ENDROOT
BRANCH   1   3
ATOM      3  N4  non d ame     -34.241  11.283  25.618  0.00  0.00    -0.346 N 
ATOM      4  C10 non d ame     -35.548  11.603  26.299  0.00  0.00     0.241 C 
ATOM      5  O4  non d ame     -35.620  11.622  27.482  0.00  0.00    -0.271 OA
ATOM      6  H19 non d ame     -34.159  11.260  24.611  0.00  0.00     0.163 HD
BRANCH   4   7
ATOM      7  C9  non d ame     -36.767  11.902  25.466  0.00  0.00     0.092 C 
ATOM      8  H11 non d ame     -37.660  11.770  26.077  0.00  0.00     0.088 H 
BRANCH   7   9
ATOM      9  N3  non d ame     -36.736  13.303  25.038  0.00  0.00    -0.346 N 
ATOM     10  C7  non d ame     -37.575  14.276  25.695  0.00  0.00     0.240 C 
ATOM     11  O3  non d ame     -38.282  13.947  26.568  0.00  0.00    -0.271 OA
ATOM     12  H10 non d ame     -36.133  13.602  24.286  0.00  0.00     0.163 HD
BRANCH  10  13
ATOM     13  C6  non d ame     -37.540  15.766  25.234  0.00  0.00     0.086 C 
ATOM     14  H6  non d ame     -38.328  16.366  25.689  0.00  0.00     0.086 H 
BRANCH  13  15
ATOM     15  N2  non d ame     -36.277  16.357  25.645  0.00  0.00    -0.343 N 
ATOM     16  C5  non d ame     -36.192  17.804  25.853  0.00  0.00     0.273 C 
ATOM     17  O2  non d ame     -37.144  18.484  25.685  0.00  0.00    -0.266 OA
ATOM     18  H5  non d ame     -35.468  15.769  25.782  0.00  0.00     0.163 HD
BRANCH  16  19
ATOM     19  C4  non d ame     -34.864  18.442  26.289  0.00  0.00     0.154 A 
ATOM     20  C1  non d ame     -34.474  18.806  27.616  0.00  0.00    -0.017 A 
ATOM     21  C2  non d ame     -33.176  19.347  27.479  0.00  0.00     0.077 A 
ATOM     22  H1  non d ame     -35.045  18.697  28.538  0.00  0.00     0.091 H 
ATOM     23  O1  non d ame     -32.865  19.291  26.217  0.00  0.00    -0.218 OA
ATOM     24  N1  non d ame     -33.835  18.768  25.503  0.00  0.00    -0.123 NA
BRANCH  21  25
ATOM     25  C3  non d ame     -32.302  19.890  28.602  0.00  0.00    -0.029 C 
ATOM     26  H2  non d ame     -32.232  20.975  28.515  0.00  0.00     0.036 H 
ATOM     27  H3  non d ame     -32.744  19.631  29.564  0.00  0.00     0.036 H 
ATOM     28  H4  non d ame     -31.306  19.456  28.530  0.00  0.00     0.036 H 
ENDBRANCH  21  25
ENDBRANCH  16  19
ENDBRANCH  13  15
BRANCH  13  29
ATOM     29  C8  non d ame     -37.678  15.834  23.734  0.00  0.00    -0.049 C 
ATOM     30  H7  non d ame     -38.647  15.432  23.439  0.00  0.00     0.030 H 
ATOM     31  H8  non d ame     -37.602  16.872  23.409  0.00  0.00     0.030 H 
ATOM     32  H9  non d ame     -36.885  15.249  23.269  0.00  0.00     0.030 H 
ENDBRANCH  13  29
ENDBRANCH  10  13
ENDBRANCH   7   9
BRANCH   7  33
ATOM     33  C11 non d ame     -36.776  10.980  24.212  0.00  0.00    -0.033 C 
ATOM     34  H12 non d ame     -35.781  11.021  23.767  0.00  0.00     0.042 H 
BRANCH  33  35
ATOM     35  C12 non d ame     -37.056   9.494  24.599  0.00  0.00    -0.071 C 
ATOM     36  H13 non d ame     -37.625   9.013  23.804  0.00  0.00     0.028 H 
ATOM     37  H14 non d ame     -36.110   8.971  24.738  0.00  0.00     0.028 H 
ATOM     38  H15 non d ame     -37.629   9.462  25.526  0.00  0.00     0.028 H 
ENDBRANCH  33  35
BRANCH  33  39
ATOM     39  C13 non d ame     -37.801  11.491  23.149  0.00  0.00    -0.071 C 
ATOM     40  H16 non d ame     -37.827  10.799  22.307  0.00  0.00     0.028 H 
ATOM     41  H17 non d ame     -38.792  11.553  23.600  0.00  0.00     0.028 H 
ATOM     42  H18 non d ame     -37.500  12.478  22.799  0.00  0.00     0.028 H 
ENDBRANCH  33  39
ENDBRANCH   7  33
ENDBRANCH   4   7
ENDBRANCH   1   3
BRANCH   1  43
ATOM     43  C15 non d ame     -32.005  12.119  26.150  0.00  0.00     0.240 C 
ATOM     44  O5  non d ame     -31.069  12.230  26.873  0.00  0.00    -0.271 OA
ATOM     45  N6  non d ame     -32.166  13.050  24.997  0.00  0.00    -0.355 N 
ATOM     46  H46 non d ame     -32.955  12.962  24.373  0.00  0.00     0.162 HD
BRANCH  45  47
ATOM     47  C20 non d ame     -31.161  14.110  24.765  0.00  0.00     0.013 C 
ATOM     48  H30 non d ame     -30.341  13.955  25.466  0.00  0.00     0.072 H 
BRANCH  47  49
ATOM     49  C21 non d ame     -31.796  15.461  25.004  0.00  0.00    -0.038 C 
ATOM     50  H31 non d ame     -31.142  16.185  24.516  0.00  0.00     0.036 H 
ATOM     51  H32 non d ame     -32.833  15.360  24.683  0.00  0.00     0.036 H 
BRANCH  49  52
ATOM     52  C22 non d ame     -31.837  15.848  26.498  0.00  0.00     0.018 C 
ATOM     53  H33 non d ame     -31.034  15.285  26.971  0.00  0.00     0.048 H 
ATOM     54  H34 non d ame     -31.824  16.939  26.520  0.00  0.00     0.048 H 
BRANCH  52  55
ATOM     55  C23 non d ame     -33.144  15.421  27.221  0.00  0.00     0.259 C 
ATOM     56  O7  non d ame     -34.046  14.948  26.608  0.00  0.00    -0.265 OA
BRANCH  55  57
ATOM     57  O8  non d ame     -33.260  15.616  28.626  0.00  0.00    -0.317 OA
BRANCH  57  58
ATOM     58  C29 non d ame     -32.036  15.421  29.342  0.00  0.00     0.052 C 
ATOM     59  H47 non d ame     -31.240  15.603  28.620  0.00  0.00     0.082 H 
ATOM     60  H48 non d ame     -32.115  16.041  30.235  0.00  0.00     0.082 H 
BRANCH  58  61
ATOM     61  C35 non d ame     -31.969  13.934  29.782  0.00  0.00    -0.034 A 
ATOM     62  C30 non d ame     -33.090  13.119  29.654  0.00  0.00    -0.075 A 
ATOM     63  C31 non d ame     -33.030  11.783  30.049  0.00  0.00    -0.082 A 
ATOM     64  H49 non d ame     -34.014  13.527  29.245  0.00  0.00     0.084 H 
ATOM     65  C32 non d ame     -31.845  11.264  30.577  0.00  0.00    -0.083 A 
ATOM     66  H50 non d ame     -33.910  11.147  29.946  0.00  0.00     0.083 H 
ATOM     67  C33 non d ame     -30.731  12.082  30.706  0.00  0.00    -0.082 A 
ATOM     68  H51 non d ame     -31.790  10.221  30.887  0.00  0.00     0.083 H 
ATOM     69  C34 non d ame     -30.785  13.417  30.310  0.00  0.00    -0.075 A 
ATOM     70  H52 non d ame     -29.808  11.675  31.120  0.00  0.00     0.083 H 
ATOM     71  H53 non d ame     -29.905  14.052  30.413  0.00  0.00     0.084 H 
ENDBRANCH  58  61
ENDBRANCH  57  58
ENDBRANCH  55  57
ENDBRANCH  52  55
ENDBRANCH  49  52
ENDBRANCH  47  49
BRANCH  47  72
ATOM     72  C24 non d ame     -30.651  14.034  23.327  0.00  0.00    -0.039 C 
ATOM     73  H35 non d ame     -29.752  13.418  23.372  0.00  0.00     0.036 H 
ATOM     74  H36 non d ame     -31.506  13.708  22.734  0.00  0.00     0.036 H 
BRANCH  72  75
ATOM     75  C25 non d ame     -30.214  15.472  22.776  0.00  0.00    -0.001 C 
ATOM     76  C26 non d ame     -31.271  15.974  21.621  0.00  0.00    -0.035 C 
ATOM     77  C27 non d ame     -30.573  16.345  20.521  0.00  0.00     0.085 C 
ATOM     78  H38 non d ame     -31.870  15.134  21.272  0.00  0.00     0.036 H 
ATOM     79  H39 non d ame     -31.758  16.897  21.937  0.00  0.00     0.036 H 
ATOM     80  N5  non d ame     -29.164  15.834  20.700  0.00  0.00    -0.049 N 
ATOM     81  H40 non d ame     -31.039  15.817  19.689  0.00  0.00     0.075 H 
ATOM     82  H41 non d ame     -30.560  17.435  20.537  0.00  0.00     0.075 H 
ATOM     83  C28 non d ame     -29.030  15.435  22.259  0.00  0.00     0.193 C 
ATOM     84  H42 non d ame     -29.091  14.993  20.145  0.00  0.00     0.280 HD
ATOM     85  H43 non d ame     -28.551  16.616  20.514  0.00  0.00     0.280 HD
ATOM     86  H44 non d ame     -28.491  16.079  22.951  0.00  0.00     0.129 H 
ATOM     87  H37 non d ame     -29.988  16.172  23.580  0.00  0.00     0.046 H 
BRANCH  83  88
ATOM     88  O6  non d ame     -28.427  14.146  22.387  0.00  0.00    -0.369 OA
ATOM     89  H45 non d ame     -29.111  13.479  22.474  0.00  0.00     0.212 HD
ENDBRANCH  83  88
ENDBRANCH  72  75
ENDBRANCH  47  72
ENDBRANCH  45  47
ENDBRANCH   1  43
BRANCH   1  90
ATOM     90  C16 non d ame     -32.480   9.657  25.975  0.00  0.00    -0.035 C 
ATOM     91  H21 non d ame     -33.180   9.269  25.236  0.00  0.00     0.037 H 
ATOM     92  H22 non d ame     -31.447   9.860  25.694  0.00  0.00     0.037 H 
BRANCH  90  93
ATOM     93  C17 non d ame     -32.424   8.600  27.124  0.00  0.00    -0.059 C 
ATOM     94  H23 non d ame     -31.502   8.764  27.681  0.00  0.00     0.038 H 
BRANCH  93  95
ATOM     95  C18 non d ame     -33.617   8.750  28.121  0.00  0.00    -0.073 C 
ATOM     96  H24 non d ame     -34.319   7.929  27.975  0.00  0.00     0.028 H 
ATOM     97  H25 non d ame     -33.241   8.726  29.144  0.00  0.00     0.028 H 
ATOM     98  H26 non d ame     -34.123   9.698  27.943  0.00  0.00     0.028 H 
ENDBRANCH  93  95
BRANCH  93  99
ATOM     99  C19 non d ame     -32.365   7.179  26.556  0.00  0.00    -0.073 C 
ATOM    100  H27 non d ame     -32.263   7.224  25.471  0.00  0.00     0.028 H 
ATOM    101  H28 non d ame     -31.509   6.653  26.979  0.00  0.00     0.028 H 
ATOM    102  H29 non d ame     -33.280   6.646  26.814  0.00  0.00     0.028 H 
ENDBRANCH  93  99
ENDBRANCH  90  93
ENDBRANCH   1  90
TORSDOF 26
ENDMDL
