MODEL 1
REMARK VINA RESULT:      -7.3      0.000      0.000
REMARK  26 active torsions:
REMARK  status: ('A' for Active; 'I' for Inactive)
REMARK    1  A    between atoms: C2_2  and  C3_3 
REMARK    2  A    between atoms: C4_6  and  C5_7 
REMARK       I    between atoms: C5_7  and  N2_9 
REMARK    3  A    between atoms: N2_9  and  C6_10 
REMARK    4  A    between atoms: C6_10  and  C7_11 
REMARK    5  A    between atoms: C6_10  and  C8_13 
REMARK       I    between atoms: C7_11  and  N3_14 
REMARK    6  A    between atoms: N3_14  and  C9_15 
REMARK    7  A    between atoms: C9_15  and  C10_16 
REMARK    8  A    between atoms: C9_15  and  C11_18 
REMARK       I    between atoms: C10_16  and  N4_21 
REMARK    9  A    between atoms: C11_18  and  C12_19 
REMARK   10  A    between atoms: C11_18  and  C13_20 
REMARK   11  A    between atoms: N4_21  and  C14_22 
REMARK   12  A    between atoms: C14_22  and  C15_23 
REMARK   13  A    between atoms: C14_22  and  C16_25 
REMARK       I    between atoms: C15_23  and  N6_40 
REMARK   14  A    between atoms: C16_25  and  C17_26 
REMARK   15  A    between atoms: C17_26  and  C18_27 
REMARK   16  A    between atoms: C17_26  and  C19_28 
REMARK   17  A    between atoms: C20_29  and  C21_30 
REMARK   18  A    between atoms: C20_29  and  C24_33 
REMARK   19  A    between atoms: C20_29  and  N6_40 
REMARK   20  A    between atoms: C21_30  and  C22_31 
REMARK   21  A    between atoms: C22_31  and  C23_32 
REMARK   22  A    between atoms: C23_32  and  O8_43 
REMARK   23  A    between atoms: C24_33  and  C25_34 
REMARK   24  A    between atoms: C28_38  and  O6_39 
REMARK   25  A    between atoms: C29_42  and  O8_43 
REMARK   26  A    between atoms: C29_42  and  C35_49 
ROOT
ATOM      1  C14 non d ame     -30.714  14.355  23.830  0.00  0.00     0.089 C 
ATOM      2  H20 non d ame     -29.629  14.375  23.721  0.00  0.00     0.087 H 
ENDROOT
BRANCH   1   3
ATOM      3  N4  non d ame     -31.100  12.980  24.109  0.00  0.00    -0.346 N 
ATOM      4  C10 non d ame     -30.511  11.845  23.310  0.00  0.00     0.241 C 
ATOM      5  O4  non d ame     -29.730  12.063  22.444  0.00  0.00    -0.271 OA
ATOM      6  H19 non d ame     -31.768  12.815  24.849  0.00  0.00     0.163 HD
BRANCH   4   7
ATOM      7  C9  non d ame     -30.917  10.428  23.617  0.00  0.00     0.092 C 
ATOM      8  H11 non d ame     -30.368  10.079  24.492  0.00  0.00     0.088 H 
BRANCH   7   9
ATOM      9  N3  non d ame     -32.342  10.391  23.956  0.00  0.00    -0.346 N 
ATOM     10  C7  non d ame     -32.757  10.448  25.336  0.00  0.00     0.240 C 
ATOM     11  O3  non d ame     -31.956  10.522  26.187  0.00  0.00    -0.271 OA
ATOM     12  H10 non d ame     -33.045  10.325  23.234  0.00  0.00     0.163 HD
BRANCH  10  13
ATOM     13  C6  non d ame     -34.276  10.404  25.692  0.00  0.00     0.086 C 
ATOM     14  H6  non d ame     -34.456  10.219  26.750  0.00  0.00     0.086 H 
BRANCH  13  15
ATOM     15  N2  non d ame     -34.867  11.698  25.389  0.00  0.00    -0.343 N 
ATOM     16  C5  non d ame     -35.818  12.294  26.331  0.00  0.00     0.273 C 
ATOM     17  O2  non d ame     -36.102  11.724  27.326  0.00  0.00    -0.266 OA
ATOM     18  H5  non d ame     -34.621  12.175  24.534  0.00  0.00     0.163 HD
BRANCH  16  19
ATOM     19  C4  non d ame     -36.449  13.660  26.024  0.00  0.00     0.154 A 
ATOM     20  C1  non d ame     -36.418  14.369  24.781  0.00  0.00    -0.017 A 
ATOM     21  C2  non d ame     -37.137  15.561  25.024  0.00  0.00     0.077 A 
ATOM     22  H1  non d ame     -35.945  14.066  23.848  0.00  0.00     0.091 H 
ATOM     23  O1  non d ame     -37.533  15.529  26.263  0.00  0.00    -0.218 OA
ATOM     24  N1  non d ame     -37.143  14.430  26.867  0.00  0.00    -0.123 NA
BRANCH  21  25
ATOM     25  C3  non d ame     -37.400  16.674  24.019  0.00  0.00    -0.029 C 
ATOM     26  H2  non d ame     -36.500  17.277  23.900  0.00  0.00     0.036 H 
ATOM     27  H3  non d ame     -37.675  16.239  23.058  0.00  0.00     0.036 H 
ATOM     28  H4  non d ame     -38.213  17.303  24.379  0.00  0.00     0.036 H 
ENDBRANCH  21  25
ENDBRANCH  16  19
ENDBRANCH  13  15
BRANCH  13  29
ATOM     29  C8  non d ame     -34.953   9.325  24.885  0.00  0.00    -0.049 C 
ATOM     30  H7  non d ame     -34.214   8.814  24.269  0.00  0.00     0.030 H 
ATOM     31  H8  non d ame     -35.422   8.609  25.559  0.00  0.00     0.030 H 
ATOM     32  H9  non d ame     -35.713   9.774  24.244  0.00  0.00     0.030 H 
ENDBRANCH  13  29
ENDBRANCH  10  13
ENDBRANCH   7   9
BRANCH   7  33
ATOM     33  C11 non d ame     -30.659   9.533  22.370  0.00  0.00    -0.033 C 
ATOM     34  H12 non d ame     -30.579  10.191  21.504  0.00  0.00     0.042 H 
BRANCH  33  35
ATOM     35  C12 non d ame     -29.312   8.756  22.496  0.00  0.00    -0.071 C 
ATOM     36  H13 non d ame     -28.536   9.431  22.856  0.00  0.00     0.028 H 
ATOM     37  H14 non d ame     -29.432   7.932  23.199  0.00  0.00     0.028 H 
ATOM     38  H15 non d ame     -29.026   8.363  21.520  0.00  0.00     0.028 H 
ENDBRANCH  33  35
BRANCH  33  39
ATOM     39  C13 non d ame     -31.855   8.557  22.125  0.00  0.00    -0.071 C 
ATOM     40  H16 non d ame     -31.940   8.346  21.059  0.00  0.00     0.028 H 
ATOM     41  H17 non d ame     -31.682   7.626  22.667  0.00  0.00     0.028 H 
ATOM     42  H18 non d ame     -32.777   9.016  22.480  0.00  0.00     0.028 H 
ENDBRANCH  33  39
ENDBRANCH   7  33
ENDBRANCH   4   7
ENDBRANCH   1   3
BRANCH   1  43
ATOM     43  C15 non d ame     -31.205  15.255  24.999  0.00  0.00     0.240 C 
ATOM     44  O5  non d ame     -31.005  16.426  24.967  0.00  0.00    -0.271 OA
ATOM     45  N6  non d ame     -31.933  14.659  26.154  0.00  0.00    -0.355 N 
ATOM     46  H46 non d ame     -32.114  13.665  26.190  0.00  0.00     0.162 HD
BRANCH  45  47
ATOM     47  C20 non d ame     -32.396  15.528  27.259  0.00  0.00     0.013 C 
ATOM     48  H30 non d ame     -31.748  16.404  27.288  0.00  0.00     0.072 H 
BRANCH  47  49
ATOM     49  C21 non d ame     -32.301  14.771  28.564  0.00  0.00    -0.038 C 
ATOM     50  H31 non d ame     -31.282  14.927  28.922  0.00  0.00     0.036 H 
ATOM     51  H32 non d ame     -33.146  15.109  29.162  0.00  0.00     0.036 H 
BRANCH  49  52
ATOM     52  C22 non d ame     -32.472  13.247  28.387  0.00  0.00     0.018 C 
ATOM     53  H33 non d ame     -33.444  13.008  28.816  0.00  0.00     0.048 H 
ATOM     54  H34 non d ame     -32.279  13.049  27.332  0.00  0.00     0.048 H 
BRANCH  52  55
ATOM     55  C23 non d ame     -31.435  12.404  29.178  0.00  0.00     0.259 C 
ATOM     56  O7  non d ame     -30.270  12.554  28.996  0.00  0.00    -0.265 OA
BRANCH  55  57
ATOM     57  O8  non d ame     -31.892  11.436  30.115  0.00  0.00    -0.317 OA
BRANCH  57  58
ATOM     58  C29 non d ame     -32.873  10.537  29.590  0.00  0.00     0.052 C 
ATOM     59  H47 non d ame     -33.418  11.103  28.836  0.00  0.00     0.082 H 
ATOM     60  H48 non d ame     -32.328   9.636  29.308  0.00  0.00     0.082 H 
BRANCH  58  61
ATOM     61  C35 non d ame     -33.855  10.176  30.737  0.00  0.00    -0.034 A 
ATOM     62  C30 non d ame     -34.198  11.133  31.687  0.00  0.00    -0.075 A 
ATOM     63  C31 non d ame     -35.080  10.809  32.718  0.00  0.00    -0.082 A 
ATOM     64  H49 non d ame     -33.776  12.136  31.625  0.00  0.00     0.084 H 
ATOM     65  C32 non d ame     -35.617   9.521  32.797  0.00  0.00    -0.083 A 
ATOM     66  H50 non d ame     -35.348  11.562  33.460  0.00  0.00     0.083 H 
ATOM     67  C33 non d ame     -35.270   8.569  31.849  0.00  0.00    -0.082 A 
ATOM     68  H51 non d ame     -36.308   9.261  33.599  0.00  0.00     0.083 H 
ATOM     69  C34 non d ame     -34.391   8.889  30.816  0.00  0.00    -0.075 A 
ATOM     70  H52 non d ame     -35.689   7.565  31.914  0.00  0.00     0.083 H 
ATOM     71  H53 non d ame     -34.124   8.136  30.074  0.00  0.00     0.084 H 
ENDBRANCH  58  61
ENDBRANCH  57  58
ENDBRANCH  55  57
ENDBRANCH  52  55
ENDBRANCH  49  52
ENDBRANCH  47  49
BRANCH  47  72
ATOM     72  C24 non d ame     -33.844  15.947  27.015  0.00  0.00    -0.039 C 
ATOM     73  H35 non d ame     -34.165  15.383  26.138  0.00  0.00     0.036 H 
ATOM     74  H36 non d ame     -34.351  15.805  27.969  0.00  0.00     0.036 H 
BRANCH  72  75
ATOM     75  C25 non d ame     -33.958  17.501  26.646  0.00  0.00    -0.001 C 
ATOM     76  C26 non d ame     -32.633  18.305  27.197  0.00  0.00    -0.035 C 
ATOM     77  C27 non d ame     -33.041  19.376  27.919  0.00  0.00     0.085 C 
ATOM     78  H38 non d ame     -32.101  17.694  27.926  0.00  0.00     0.036 H 
ATOM     79  H39 non d ame     -32.093  18.752  26.362  0.00  0.00     0.036 H 
ATOM     80  N5  non d ame     -34.516  19.192  28.186  0.00  0.00    -0.049 N 
ATOM     81  H40 non d ame     -32.499  19.315  28.863  0.00  0.00     0.075 H 
ATOM     82  H41 non d ame     -32.904  20.238  27.266  0.00  0.00     0.075 H 
ATOM     83  C28 non d ame     -35.009  18.032  27.177  0.00  0.00     0.193 C 
ATOM     84  H42 non d ame     -34.595  18.850  29.133  0.00  0.00     0.280 HD
ATOM     85  H43 non d ame     -34.964  20.059  27.923  0.00  0.00     0.280 HD
ATOM     86  H44 non d ame     -35.578  18.281  26.283  0.00  0.00     0.129 H 
ATOM     87  H37 non d ame     -34.237  17.660  25.605  0.00  0.00     0.046 H 
BRANCH  83  88
ATOM     88  O6  non d ame     -35.801  17.073  27.880  0.00  0.00    -0.369 OA
ATOM     89  H45 non d ame     -35.244  16.581  28.487  0.00  0.00     0.212 HD
ENDBRANCH  83  88
ENDBRANCH  72  75
ENDBRANCH  47  72
ENDBRANCH  45  47
ENDBRANCH   1  43
BRANCH   1  90
ATOM     90  C16 non d ame     -31.370  14.800  22.532  0.00  0.00    -0.035 C 
ATOM     91  H21 non d ame     -31.587  13.881  21.988  0.00  0.00     0.037 H 
ATOM     92  H22 non d ame     -32.183  15.460  22.831  0.00  0.00     0.037 H 
BRANCH  90  93
ATOM     93  C17 non d ame     -30.431  15.644  21.612  0.00  0.00    -0.059 C 
ATOM     94  H23 non d ame     -30.682  16.694  21.758  0.00  0.00     0.038 H 
BRANCH  93  95
ATOM     95  C18 non d ame     -28.924  15.458  21.980  0.00  0.00    -0.073 C 
ATOM     96  H24 non d ame     -28.578  14.490  21.616  0.00  0.00     0.028 H 
ATOM     97  H25 non d ame     -28.336  16.250  21.515  0.00  0.00     0.028 H 
ATOM     98  H26 non d ame     -28.805  15.504  23.062  0.00  0.00     0.028 H 
ENDBRANCH  93  95
BRANCH  93  99
ATOM     99  C19 non d ame     -30.675  15.318  20.136  0.00  0.00    -0.073 C 
ATOM    100  H27 non d ame     -30.689  14.236  20.000  0.00  0.00     0.028 H 
ATOM    101  H28 non d ame     -31.633  15.735  19.826  0.00  0.00     0.028 H 
ATOM    102  H29 non d ame     -29.879  15.751  19.532  0.00  0.00     0.028 H 
ENDBRANCH  93  99
ENDBRANCH  90  93
ENDBRANCH   1  90
TORSDOF 26
ENDMDL
MODEL 2
REMARK VINA RESULT:      -7.3      3.137      7.425
REMARK  26 active torsions:
REMARK  status: ('A' for Active; 'I' for Inactive)
REMARK    1  A    between atoms: C2_2  and  C3_3 
REMARK    2  A    between atoms: C4_6  and  C5_7 
REMARK       I    between atoms: C5_7  and  N2_9 
REMARK    3  A    between atoms: N2_9  and  C6_10 
REMARK    4  A    between atoms: C6_10  and  C7_11 
REMARK    5  A    between atoms: C6_10  and  C8_13 
REMARK       I    between atoms: C7_11  and  N3_14 
REMARK    6  A    between atoms: N3_14  and  C9_15 
REMARK    7  A    between atoms: C9_15  and  C10_16 
REMARK    8  A    between atoms: C9_15  and  C11_18 
REMARK       I    between atoms: C10_16  and  N4_21 
REMARK    9  A    between atoms: C11_18  and  C12_19 
REMARK   10  A    between atoms: C11_18  and  C13_20 
REMARK   11  A    between atoms: N4_21  and  C14_22 
REMARK   12  A    between atoms: C14_22  and  C15_23 
REMARK   13  A    between atoms: C14_22  and  C16_25 
REMARK       I    between atoms: C15_23  and  N6_40 
REMARK   14  A    between atoms: C16_25  and  C17_26 
REMARK   15  A    between atoms: C17_26  and  C18_27 
REMARK   16  A    between atoms: C17_26  and  C19_28 
REMARK   17  A    between atoms: C20_29  and  C21_30 
REMARK   18  A    between atoms: C20_29  and  C24_33 
REMARK   19  A    between atoms: C20_29  and  N6_40 
REMARK   20  A    between atoms: C21_30  and  C22_31 
REMARK   21  A    between atoms: C22_31  and  C23_32 
REMARK   22  A    between atoms: C23_32  and  O8_43 
REMARK   23  A    between atoms: C24_33  and  C25_34 
REMARK   24  A    between atoms: C28_38  and  O6_39 
REMARK   25  A    between atoms: C29_42  and  O8_43 
REMARK   26  A    between atoms: C29_42  and  C35_49 
ROOT
ATOM      1  C14 non d ame     -31.157  13.700  24.742  0.00  0.00     0.089 C 
ATOM      2  H20 non d ame     -30.148  13.647  25.150  0.00  0.00     0.087 H 
ENDROOT
BRANCH   1   3
ATOM      3  N4  non d ame     -31.535  12.355  24.334  0.00  0.00    -0.346 N 
ATOM      4  C10 non d ame     -31.368  11.195  25.283  0.00  0.00     0.241 C 
ATOM      5  O4  non d ame     -30.924  11.368  26.370  0.00  0.00    -0.271 OA
ATOM      6  H19 non d ame     -31.909  12.229  23.404  0.00  0.00     0.163 HD
BRANCH   4   7
ATOM      7  C9  non d ame     -31.770   9.811  24.845  0.00  0.00     0.092 C 
ATOM      8  H11 non d ame     -31.040   9.091  25.217  0.00  0.00     0.088 H 
BRANCH   7   9
ATOM      9  N3  non d ame     -33.063   9.466  25.442  0.00  0.00    -0.346 N 
ATOM     10  C7  non d ame     -33.116   8.609  26.601  0.00  0.00     0.240 C 
ATOM     11  O3  non d ame     -32.127   8.187  27.065  0.00  0.00    -0.271 OA
ATOM     12  H10 non d ame     -33.924   9.820  25.052  0.00  0.00     0.163 HD
BRANCH  10  13
ATOM     13  C6  non d ame     -34.496   8.241  27.230  0.00  0.00     0.086 C 
ATOM     14  H6  non d ame     -35.057   7.526  26.628  0.00  0.00     0.086 H 
BRANCH  13  15
ATOM     15  N2  non d ame     -34.272   7.612  28.521  0.00  0.00    -0.343 N 
ATOM     16  C5  non d ame     -34.779   6.259  28.762  0.00  0.00     0.273 C 
ATOM     17  O2  non d ame     -35.368   5.687  27.912  0.00  0.00    -0.266 OA
ATOM     18  H5  non d ame     -33.771   8.110  29.243  0.00  0.00     0.163 HD
BRANCH  16  19
ATOM     19  C4  non d ame     -34.549   5.581  30.121  0.00  0.00     0.154 A 
ATOM     20  C1  non d ame     -33.562   4.595  30.440  0.00  0.00    -0.017 A 
ATOM     21  C2  non d ame     -33.768   4.302  31.807  0.00  0.00     0.077 A 
ATOM     22  H1  non d ame     -32.812   4.158  29.781  0.00  0.00     0.091 H 
ATOM     23  O1  non d ame     -34.758   5.042  32.216  0.00  0.00    -0.218 OA
ATOM     24  N1  non d ame     -35.230   5.795  31.250  0.00  0.00    -0.123 NA
BRANCH  21  25
ATOM     25  C3  non d ame     -32.977   3.308  32.645  0.00  0.00    -0.029 C 
ATOM     26  H2  non d ame     -32.834   3.710  33.648  0.00  0.00     0.036 H 
ATOM     27  H3  non d ame     -33.524   2.367  32.706  0.00  0.00     0.036 H 
ATOM     28  H4  non d ame     -32.006   3.134  32.183  0.00  0.00     0.036 H 
ENDBRANCH  21  25
ENDBRANCH  16  19
ENDBRANCH  13  15
BRANCH  13  29
ATOM     29  C8  non d ame     -35.322   9.491  27.401  0.00  0.00    -0.049 C 
ATOM     30  H7  non d ame     -35.096  10.189  26.596  0.00  0.00     0.030 H 
ATOM     31  H8  non d ame     -36.381   9.232  27.370  0.00  0.00     0.030 H 
ATOM     32  H9  non d ame     -35.089   9.953  28.360  0.00  0.00     0.030 H 
ENDBRANCH  13  29
ENDBRANCH  10  13
ENDBRANCH   7   9
BRANCH   7  33
ATOM     33  C11 non d ame     -31.890   9.774  23.294  0.00  0.00    -0.033 C 
ATOM     34  H12 non d ame     -32.079  10.793  22.954  0.00  0.00     0.042 H 
BRANCH  33  35
ATOM     35  C12 non d ame     -30.561   9.296  22.631  0.00  0.00    -0.071 C 
ATOM     36  H13 non d ame     -30.789   8.678  21.763  0.00  0.00     0.028 H 
ATOM     37  H14 non d ame     -29.981  10.163  22.316  0.00  0.00     0.028 H 
ATOM     38  H15 non d ame     -29.985   8.714  23.350  0.00  0.00     0.028 H 
ENDBRANCH  33  35
BRANCH  33  39
ATOM     39  C13 non d ame     -33.096   8.886  22.848  0.00  0.00    -0.071 C 
ATOM     40  H16 non d ame     -33.069   8.752  21.766  0.00  0.00     0.028 H 
ATOM     41  H17 non d ame     -33.033   7.913  23.336  0.00  0.00     0.028 H 
ATOM     42  H18 non d ame     -34.030   9.372  23.131  0.00  0.00     0.028 H 
ENDBRANCH  33  39
ENDBRANCH   7  33
ENDBRANCH   4   7
ENDBRANCH   1   3
BRANCH   1  43
ATOM     43  C15 non d ame     -32.189  14.208  25.789  0.00  0.00     0.240 C 
ATOM     44  O5  non d ame     -33.319  14.386  25.467  0.00  0.00    -0.271 OA
ATOM     45  N6  non d ame     -31.771  14.463  27.197  0.00  0.00    -0.355 N 
ATOM     46  H46 non d ame     -30.814  14.310  27.483  0.00  0.00     0.162 HD
BRANCH  45  47
ATOM     47  C20 non d ame     -32.764  14.944  28.182  0.00  0.00     0.013 C 
ATOM     48  H30 non d ame     -33.758  14.737  27.784  0.00  0.00     0.072 H 
BRANCH  47  49
ATOM     49  C21 non d ame     -32.588  16.432  28.383  0.00  0.00    -0.038 C 
ATOM     50  H31 non d ame     -32.847  16.622  29.426  0.00  0.00     0.036 H 
ATOM     51  H32 non d ame     -31.587  16.662  28.020  0.00  0.00     0.036 H 
BRANCH  49  52
ATOM     52  C22 non d ame     -33.565  17.272  27.532  0.00  0.00     0.018 C 
ATOM     53  H33 non d ame     -34.286  16.564  27.125  0.00  0.00     0.048 H 
ATOM     54  H34 non d ame     -33.903  18.080  28.183  0.00  0.00     0.048 H 
BRANCH  52  55
ATOM     55  C23 non d ame     -32.899  17.958  26.308  0.00  0.00     0.259 C 
ATOM     56  O7  non d ame     -31.957  17.465  25.777  0.00  0.00    -0.265 OA
BRANCH  55  57
ATOM     57  O8  non d ame     -33.420  19.194  25.833  0.00  0.00    -0.317 OA
BRANCH  57  58
ATOM     58  C29 non d ame     -34.084  19.969  26.836  0.00  0.00     0.052 C 
ATOM     59  H47 non d ame     -34.113  19.338  27.724  0.00  0.00     0.082 H 
ATOM     60  H48 non d ame     -33.563  20.926  26.864  0.00  0.00     0.082 H 
BRANCH  58  61
ATOM     61  C35 non d ame     -35.541  20.218  26.363  0.00  0.00    -0.034 A 
ATOM     62  C30 non d ame     -35.986  19.673  25.163  0.00  0.00    -0.075 A 
ATOM     63  C31 non d ame     -37.295  19.897  24.737  0.00  0.00    -0.082 A 
ATOM     64  H49 non d ame     -35.310  19.072  24.555  0.00  0.00     0.084 H 
ATOM     65  C32 non d ame     -38.159  20.671  25.516  0.00  0.00    -0.083 A 
ATOM     66  H50 non d ame     -37.641  19.467  23.796  0.00  0.00     0.083 H 
ATOM     67  C33 non d ame     -37.710  21.215  26.711  0.00  0.00    -0.082 A 
ATOM     68  H51 non d ame     -39.184  20.850  25.191  0.00  0.00     0.083 H 
ATOM     69  C34 non d ame     -36.403  20.992  27.141  0.00  0.00    -0.075 A 
ATOM     70  H52 non d ame     -38.386  21.820  27.316  0.00  0.00     0.083 H 
ATOM     71  H53 non d ame     -36.058  21.422  28.082  0.00  0.00     0.084 H 
ENDBRANCH  58  61
ENDBRANCH  57  58
ENDBRANCH  55  57
ENDBRANCH  52  55
ENDBRANCH  49  52
ENDBRANCH  47  49
BRANCH  47  72
ATOM     72  C24 non d ame     -32.564  14.222  29.513  0.00  0.00    -0.039 C 
ATOM     73  H35 non d ame     -31.862  14.841  30.075  0.00  0.00     0.036 H 
ATOM     74  H36 non d ame     -33.567  14.047  29.901  0.00  0.00     0.036 H 
BRANCH  72  75
ATOM     75  C25 non d ame     -31.877  12.789  29.313  0.00  0.00    -0.001 C 
ATOM     76  C26 non d ame     -33.028  11.617  29.282  0.00  0.00    -0.035 C 
ATOM     77  C27 non d ame     -32.688  10.647  30.165  0.00  0.00     0.085 C 
ATOM     78  H38 non d ame     -33.967  12.004  29.677  0.00  0.00     0.036 H 
ATOM     79  H39 non d ame     -33.012  11.102  28.321  0.00  0.00     0.036 H 
ATOM     80  N5  non d ame     -31.585  11.207  31.030  0.00  0.00    -0.049 N 
ATOM     81  H40 non d ame     -33.575  10.488  30.779  0.00  0.00     0.075 H 
ATOM     82  H41 non d ame     -32.288   9.832  29.563  0.00  0.00     0.075 H 
ATOM     83  C28 non d ame     -31.052  12.528  30.272  0.00  0.00     0.193 C 
ATOM     84  H42 non d ame     -32.016  11.487  31.900  0.00  0.00     0.280 HD
ATOM     85  H43 non d ame     -30.847  10.517  31.033  0.00  0.00     0.280 HD
ATOM     86  H44 non d ame     -30.111  12.510  29.724  0.00  0.00     0.129 H 
ATOM     87  H37 non d ame     -31.148  12.790  28.503  0.00  0.00     0.046 H 
BRANCH  83  88
ATOM     88  O6  non d ame     -30.936  13.613  31.194  0.00  0.00    -0.369 OA
ATOM     89  H45 non d ame     -31.652  13.569  31.832  0.00  0.00     0.212 HD
ENDBRANCH  83  88
ENDBRANCH  72  75
ENDBRANCH  47  72
ENDBRANCH  45  47
ENDBRANCH   1  43
BRANCH   1  90
ATOM     90  C16 non d ame     -31.173  14.611  23.525  0.00  0.00    -0.035 C 
ATOM     91  H21 non d ame     -32.133  14.431  23.042  0.00  0.00     0.037 H 
ATOM     92  H22 non d ame     -30.933  15.603  23.904  0.00  0.00     0.037 H 
BRANCH  90  93
ATOM     93  C17 non d ame     -30.077  14.264  22.468  0.00  0.00    -0.059 C 
ATOM     94  H23 non d ame     -29.949  13.182  22.467  0.00  0.00     0.038 H 
BRANCH  93  95
ATOM     95  C18 non d ame     -30.492  14.697  21.025  0.00  0.00    -0.073 C 
ATOM     96  H24 non d ame     -30.147  13.951  20.309  0.00  0.00     0.028 H 
ATOM     97  H25 non d ame     -31.578  14.778  20.969  0.00  0.00     0.028 H 
ATOM     98  H26 non d ame     -30.043  15.661  20.791  0.00  0.00     0.028 H 
ENDBRANCH  93  95
BRANCH  93  99
ATOM     99  C19 non d ame     -28.730  14.881  22.855  0.00  0.00    -0.073 C 
ATOM    100  H27 non d ame     -27.960  14.109  22.843  0.00  0.00     0.028 H 
ATOM    101  H28 non d ame     -28.470  15.663  22.141  0.00  0.00     0.028 H 
ATOM    102  H29 non d ame     -28.801  15.310  23.854  0.00  0.00     0.028 H 
ENDBRANCH  93  99
ENDBRANCH  90  93
ENDBRANCH   1  90
TORSDOF 26
ENDMDL
MODEL 3
REMARK VINA RESULT:      -7.2      1.538      2.209
REMARK  26 active torsions:
REMARK  status: ('A' for Active; 'I' for Inactive)
REMARK    1  A    between atoms: C2_2  and  C3_3 
REMARK    2  A    between atoms: C4_6  and  C5_7 
REMARK       I    between atoms: C5_7  and  N2_9 
REMARK    3  A    between atoms: N2_9  and  C6_10 
REMARK    4  A    between atoms: C6_10  and  C7_11 
REMARK    5  A    between atoms: C6_10  and  C8_13 
REMARK       I    between atoms: C7_11  and  N3_14 
REMARK    6  A    between atoms: N3_14  and  C9_15 
REMARK    7  A    between atoms: C9_15  and  C10_16 
REMARK    8  A    between atoms: C9_15  and  C11_18 
REMARK       I    between atoms: C10_16  and  N4_21 
REMARK    9  A    between atoms: C11_18  and  C12_19 
REMARK   10  A    between atoms: C11_18  and  C13_20 
REMARK   11  A    between atoms: N4_21  and  C14_22 
REMARK   12  A    between atoms: C14_22  and  C15_23 
REMARK   13  A    between atoms: C14_22  and  C16_25 
REMARK       I    between atoms: C15_23  and  N6_40 
REMARK   14  A    between atoms: C16_25  and  C17_26 
REMARK   15  A    between atoms: C17_26  and  C18_27 
REMARK   16  A    between atoms: C17_26  and  C19_28 
REMARK   17  A    between atoms: C20_29  and  C21_30 
REMARK   18  A    between atoms: C20_29  and  C24_33 
REMARK   19  A    between atoms: C20_29  and  N6_40 
REMARK   20  A    between atoms: C21_30  and  C22_31 
REMARK   21  A    between atoms: C22_31  and  C23_32 
REMARK   22  A    between atoms: C23_32  and  O8_43 
REMARK   23  A    between atoms: C24_33  and  C25_34 
REMARK   24  A    between atoms: C28_38  and  O6_39 
REMARK   25  A    between atoms: C29_42  and  O8_43 
REMARK   26  A    between atoms: C29_42  and  C35_49 
ROOT
ATOM      1  C14 non d ame     -31.196  14.105  24.451  0.00  0.00     0.089 C 
ATOM      2  H20 non d ame     -30.211  13.666  24.613  0.00  0.00     0.087 H 
ENDROOT
BRANCH   1   3
ATOM      3  N4  non d ame     -32.183  13.061  24.684  0.00  0.00    -0.346 N 
ATOM      4  C10 non d ame     -31.869  11.906  25.601  0.00  0.00     0.241 C 
ATOM      5  O4  non d ame     -30.813  11.835  26.137  0.00  0.00    -0.271 OA
ATOM      6  H19 non d ame     -33.075  13.139  24.216  0.00  0.00     0.163 HD
BRANCH   4   7
ATOM      7  C9  non d ame     -32.906  10.838  25.835  0.00  0.00     0.092 C 
ATOM      8  H11 non d ame     -33.055  10.712  26.907  0.00  0.00     0.088 H 
BRANCH   7   9
ATOM      9  N3  non d ame     -34.186  11.267  25.266  0.00  0.00    -0.346 N 
ATOM     10  C7  non d ame     -35.219  11.788  26.127  0.00  0.00     0.240 C 
ATOM     11  O3  non d ame     -35.037  11.868  27.280  0.00  0.00    -0.271 OA
ATOM     12  H10 non d ame     -34.359  11.203  24.273  0.00  0.00     0.163 HD
BRANCH  10  13
ATOM     13  C6  non d ame     -36.582  12.240  25.515  0.00  0.00     0.086 C 
ATOM     14  H6  non d ame     -37.431  12.001  26.156  0.00  0.00     0.086 H 
BRANCH  13  15
ATOM     15  N2  non d ame     -36.572  13.685  25.361  0.00  0.00    -0.343 N 
ATOM     16  C5  non d ame     -37.521  14.499  26.125  0.00  0.00     0.273 C 
ATOM     17  O2  non d ame     -38.288  13.981  26.860  0.00  0.00    -0.266 OA
ATOM     18  H5  non d ame     -35.916  14.119  24.728  0.00  0.00     0.163 HD
BRANCH  16  19
ATOM     19  C4  non d ame     -37.521  16.028  25.973  0.00  0.00     0.154 A 
ATOM     20  C1  non d ame     -37.158  16.781  24.812  0.00  0.00    -0.017 A 
ATOM     21  C2  non d ame     -37.328  18.133  25.187  0.00  0.00     0.077 A 
ATOM     22  H1  non d ame     -36.821  16.405  23.846  0.00  0.00     0.091 H 
ATOM     23  O1  non d ame     -37.744  18.143  26.420  0.00  0.00    -0.218 OA
ATOM     24  N1  non d ame     -37.863  16.926  26.900  0.00  0.00    -0.123 NA
BRANCH  21  25
ATOM     25  C3  non d ame     -37.074  19.351  24.309  0.00  0.00    -0.029 C 
ATOM     26  H2  non d ame     -37.974  19.582  23.738  0.00  0.00     0.036 H 
ATOM     27  H3  non d ame     -36.814  20.203  24.937  0.00  0.00     0.036 H 
ATOM     28  H4  non d ame     -36.254  19.140  23.624  0.00  0.00     0.036 H 
ENDBRANCH  21  25
ENDBRANCH  16  19
ENDBRANCH  13  15
BRANCH  13  29
ATOM     29  C8  non d ame     -36.779  11.578  24.175  0.00  0.00    -0.049 C 
ATOM     30  H7  non d ame     -37.156  10.567  24.320  0.00  0.00     0.030 H 
ATOM     31  H8  non d ame     -37.498  12.153  23.589  0.00  0.00     0.030 H 
ATOM     32  H9  non d ame     -35.827  11.540  23.645  0.00  0.00     0.030 H 
ENDBRANCH  13  29
ENDBRANCH  10  13
ENDBRANCH   7   9
BRANCH   7  33
ATOM     33  C11 non d ame     -32.452   9.517  25.149  0.00  0.00    -0.033 C 
ATOM     34  H12 non d ame     -31.365   9.542  25.073  0.00  0.00     0.042 H 
BRANCH  33  35
ATOM     35  C12 non d ame     -32.834   8.270  26.006  0.00  0.00    -0.071 C 
ATOM     36  H13 non d ame     -31.973   7.607  26.088  0.00  0.00     0.028 H 
ATOM     37  H14 non d ame     -33.139   8.593  27.001  0.00  0.00     0.028 H 
ATOM     38  H15 non d ame     -33.657   7.738  25.528  0.00  0.00     0.028 H 
ENDBRANCH  33  35
BRANCH  33  39
ATOM     39  C13 non d ame     -33.034   9.409  23.702  0.00  0.00    -0.071 C 
ATOM     40  H16 non d ame     -32.980   8.373  23.365  0.00  0.00     0.028 H 
ATOM     41  H17 non d ame     -34.073   9.738  23.703  0.00  0.00     0.028 H 
ATOM     42  H18 non d ame     -32.455  10.041  23.030  0.00  0.00     0.028 H 
ENDBRANCH  33  39
ENDBRANCH   7  33
ENDBRANCH   4   7
ENDBRANCH   1   3
BRANCH   1  43
ATOM     43  C15 non d ame     -31.481  15.283  25.425  0.00  0.00     0.240 C 
ATOM     44  O5  non d ame     -30.942  16.330  25.260  0.00  0.00    -0.271 OA
ATOM     45  N6  non d ame     -32.434  15.111  26.558  0.00  0.00    -0.355 N 
ATOM     46  H46 non d ame     -32.901  14.228  26.705  0.00  0.00     0.162 HD
BRANCH  45  47
ATOM     47  C20 non d ame     -32.696  16.242  27.475  0.00  0.00     0.013 C 
ATOM     48  H30 non d ame     -31.966  17.023  27.261  0.00  0.00     0.072 H 
BRANCH  47  49
ATOM     49  C21 non d ame     -32.548  15.772  28.904  0.00  0.00    -0.038 C 
ATOM     50  H31 non d ame     -31.546  16.075  29.211  0.00  0.00     0.036 H 
ATOM     51  H32 non d ame     -33.420  16.157  29.432  0.00  0.00     0.036 H 
BRANCH  49  52
ATOM     52  C22 non d ame     -32.599  14.235  29.038  0.00  0.00     0.018 C 
ATOM     53  H33 non d ame     -33.066  14.038  30.002  0.00  0.00     0.048 H 
ATOM     54  H34 non d ame     -33.068  13.875  28.121  0.00  0.00     0.048 H 
BRANCH  52  55
ATOM     55  C23 non d ame     -31.199  13.564  29.094  0.00  0.00     0.259 C 
ATOM     56  O7  non d ame     -30.249  14.109  28.632  0.00  0.00    -0.265 OA
BRANCH  55  57
ATOM     57  O8  non d ame     -31.064  12.280  29.693  0.00  0.00    -0.317 OA
BRANCH  57  58
ATOM     58  C29 non d ame     -31.776  12.137  30.926  0.00  0.00     0.052 C 
ATOM     59  H47 non d ame     -31.064  11.704  31.628  0.00  0.00     0.082 H 
ATOM     60  H48 non d ame     -32.217  13.112  31.128  0.00  0.00     0.082 H 
BRANCH  58  61
ATOM     61  C35 non d ame     -32.924  11.116  30.700  0.00  0.00    -0.034 A 
ATOM     62  C30 non d ame     -33.980  11.045  31.604  0.00  0.00    -0.075 A 
ATOM     63  C31 non d ame     -35.011  10.128  31.402  0.00  0.00    -0.082 A 
ATOM     64  H49 non d ame     -33.999  11.705  32.471  0.00  0.00     0.084 H 
ATOM     65  C32 non d ame     -34.983   9.280  30.292  0.00  0.00    -0.083 A 
ATOM     66  H50 non d ame     -35.837  10.076  32.111  0.00  0.00     0.083 H 
ATOM     67  C33 non d ame     -33.926   9.353  29.394  0.00  0.00    -0.082 A 
ATOM     68  H51 non d ame     -35.786   8.562  30.126  0.00  0.00     0.083 H 
ATOM     69  C34 non d ame     -32.894  10.269  29.592  0.00  0.00    -0.075 A 
ATOM     70  H52 non d ame     -33.906   8.689  28.530  0.00  0.00     0.083 H 
ATOM     71  H53 non d ame     -32.069  10.321  28.882  0.00  0.00     0.084 H 
ENDBRANCH  58  61
ENDBRANCH  57  58
ENDBRANCH  55  57
ENDBRANCH  52  55
ENDBRANCH  49  52
ENDBRANCH  47  49
BRANCH  47  72
ATOM     72  C24 non d ame     -34.113  16.768  27.255  0.00  0.00    -0.039 C 
ATOM     73  H35 non d ame     -34.500  16.208  26.401  0.00  0.00     0.036 H 
ATOM     74  H36 non d ame     -34.605  16.690  28.224  0.00  0.00     0.036 H 
BRANCH  72  75
ATOM     75  C25 non d ame     -34.114  18.316  26.846  0.00  0.00    -0.001 C 
ATOM     76  C26 non d ame     -32.584  18.913  26.912  0.00  0.00    -0.035 C 
ATOM     77  C27 non d ame     -32.588  20.044  27.658  0.00  0.00     0.085 C 
ATOM     78  H38 non d ame     -31.943  18.237  27.476  0.00  0.00     0.036 H 
ATOM     79  H39 non d ame     -32.276  19.261  25.925  0.00  0.00     0.036 H 
ATOM     80  N5  non d ame     -33.914  20.092  28.378  0.00  0.00    -0.049 N 
ATOM     81  H40 non d ame     -31.791  19.912  28.390  0.00  0.00     0.075 H 
ATOM     82  H41 non d ame     -32.541  20.865  26.943  0.00  0.00     0.075 H 
ATOM     83  C28 non d ame     -34.859  19.010  27.642  0.00  0.00     0.193 C 
ATOM     84  H42 non d ame     -33.740  19.779  29.322  0.00  0.00     0.280 HD
ATOM     85  H43 non d ame     -34.294  21.015  28.214  0.00  0.00     0.280 HD
ATOM     86  H44 non d ame     -35.639  19.332  26.954  0.00  0.00     0.129 H 
ATOM     87  H37 non d ame     -34.681  18.502  25.934  0.00  0.00     0.046 H 
BRANCH  83  88
ATOM     88  O6  non d ame     -35.519  18.192  28.611  0.00  0.00    -0.369 OA
ATOM     89  H45 non d ame     -36.151  17.621  28.170  0.00  0.00     0.212 HD
ENDBRANCH  83  88
ENDBRANCH  72  75
ENDBRANCH  47  72
ENDBRANCH  45  47
ENDBRANCH   1  43
BRANCH   1  90
ATOM     90  C16 non d ame     -31.314  14.588  23.015  0.00  0.00    -0.035 C 
ATOM     91  H21 non d ame     -31.928  13.843  22.509  0.00  0.00     0.037 H 
ATOM     92  H22 non d ame     -31.658  15.620  23.085  0.00  0.00     0.037 H 
BRANCH  90  93
ATOM     93  C17 non d ame     -29.952  14.626  22.252  0.00  0.00    -0.059 C 
ATOM     94  H23 non d ame     -29.235  15.154  22.880  0.00  0.00     0.038 H 
BRANCH  93  95
ATOM     95  C18 non d ame     -29.388  13.195  21.982  0.00  0.00    -0.073 C 
ATOM     96  H24 non d ame     -28.602  13.250  21.228  0.00  0.00     0.028 H 
ATOM     97  H25 non d ame     -28.976  12.787  22.905  0.00  0.00     0.028 H 
ATOM     98  H26 non d ame     -30.189  12.549  21.625  0.00  0.00     0.028 H 
ENDBRANCH  93  95
BRANCH  93  99
ATOM     99  C19 non d ame     -30.079  15.416  20.946  0.00  0.00    -0.073 C 
ATOM    100  H27 non d ame     -30.889  16.140  21.036  0.00  0.00     0.028 H 
ATOM    101  H28 non d ame     -29.145  15.940  20.746  0.00  0.00     0.028 H 
ATOM    102  H29 non d ame     -30.294  14.731  20.126  0.00  0.00     0.028 H 
ENDBRANCH  93  99
ENDBRANCH  90  93
ENDBRANCH   1  90
TORSDOF 26
ENDMDL
MODEL 4
REMARK VINA RESULT:      -7.1      3.361      6.620
REMARK  26 active torsions:
REMARK  status: ('A' for Active; 'I' for Inactive)
REMARK    1  A    between atoms: C2_2  and  C3_3 
REMARK    2  A    between atoms: C4_6  and  C5_7 
REMARK       I    between atoms: C5_7  and  N2_9 
REMARK    3  A    between atoms: N2_9  and  C6_10 
REMARK    4  A    between atoms: C6_10  and  C7_11 
REMARK    5  A    between atoms: C6_10  and  C8_13 
REMARK       I    between atoms: C7_11  and  N3_14 
REMARK    6  A    between atoms: N3_14  and  C9_15 
REMARK    7  A    between atoms: C9_15  and  C10_16 
REMARK    8  A    between atoms: C9_15  and  C11_18 
REMARK       I    between atoms: C10_16  and  N4_21 
REMARK    9  A    between atoms: C11_18  and  C12_19 
REMARK   10  A    between atoms: C11_18  and  C13_20 
REMARK   11  A    between atoms: N4_21  and  C14_22 
REMARK   12  A    between atoms: C14_22  and  C15_23 
REMARK   13  A    between atoms: C14_22  and  C16_25 
REMARK       I    between atoms: C15_23  and  N6_40 
REMARK   14  A    between atoms: C16_25  and  C17_26 
REMARK   15  A    between atoms: C17_26  and  C18_27 
REMARK   16  A    between atoms: C17_26  and  C19_28 
REMARK   17  A    between atoms: C20_29  and  C21_30 
REMARK   18  A    between atoms: C20_29  and  C24_33 
REMARK   19  A    between atoms: C20_29  and  N6_40 
REMARK   20  A    between atoms: C21_30  and  C22_31 
REMARK   21  A    between atoms: C22_31  and  C23_32 
REMARK   22  A    between atoms: C23_32  and  O8_43 
REMARK   23  A    between atoms: C24_33  and  C25_34 
REMARK   24  A    between atoms: C28_38  and  O6_39 
REMARK   25  A    between atoms: C29_42  and  O8_43 
REMARK   26  A    between atoms: C29_42  and  C35_49 
ROOT
ATOM      1  C14 non d ame     -32.658  10.384  25.760  0.00  0.00     0.089 C 
ATOM      2  H20 non d ame     -33.535  10.460  25.116  0.00  0.00     0.087 H 
ENDROOT
BRANCH   1   3
ATOM      3  N4  non d ame     -32.141   9.030  25.636  0.00  0.00    -0.346 N 
ATOM      4  C10 non d ame     -32.962   7.958  24.963  0.00  0.00     0.241 C 
ATOM      5  O4  non d ame     -34.038   8.209  24.533  0.00  0.00    -0.271 OA
ATOM      6  H19 non d ame     -31.223   8.836  26.012  0.00  0.00     0.163 HD
BRANCH   4   7
ATOM      7  C9  non d ame     -32.407   6.564  24.839  0.00  0.00     0.092 C 
ATOM      8  H11 non d ame     -31.343   6.578  25.077  0.00  0.00     0.088 H 
BRANCH   7   9
ATOM      9  N3  non d ame     -33.059   5.689  25.817  0.00  0.00    -0.346 N 
ATOM     10  C7  non d ame     -32.704   5.778  27.213  0.00  0.00     0.240 C 
ATOM     11  O3  non d ame     -31.895   6.548  27.565  0.00  0.00    -0.271 OA
ATOM     12  H10 non d ame     -33.756   5.019  25.529  0.00  0.00     0.163 HD
BRANCH  10  13
ATOM     13  C6  non d ame     -33.399   4.842  28.250  0.00  0.00     0.086 C 
ATOM     14  H6  non d ame     -32.786   4.663  29.133  0.00  0.00     0.086 H 
BRANCH  13  15
ATOM     15  N2  non d ame     -34.621   5.478  28.714  0.00  0.00    -0.343 N 
ATOM     16  C5  non d ame     -34.920   5.506  30.148  0.00  0.00     0.273 C 
ATOM     17  O2  non d ame     -34.173   5.012  30.918  0.00  0.00    -0.266 OA
ATOM     18  H5  non d ame     -35.256   5.894  28.047  0.00  0.00     0.163 HD
BRANCH  16  19
ATOM     19  C4  non d ame     -36.207   6.176  30.652  0.00  0.00     0.154 A 
ATOM     20  C1  non d ame     -36.497   7.577  30.684  0.00  0.00    -0.017 A 
ATOM     21  C2  non d ame     -37.797   7.667  31.232  0.00  0.00     0.077 A 
ATOM     22  H1  non d ame     -35.863   8.402  30.362  0.00  0.00     0.091 H 
ATOM     23  O1  non d ame     -38.197   6.453  31.479  0.00  0.00    -0.218 OA
ATOM     24  N1  non d ame     -37.287   5.567  31.150  0.00  0.00    -0.123 NA
BRANCH  21  25
ATOM     25  C3  non d ame     -38.583   8.946  31.484  0.00  0.00    -0.029 C 
ATOM     26  H2  non d ame     -38.898   8.980  32.527  0.00  0.00     0.036 H 
ATOM     27  H3  non d ame     -37.951   9.809  31.269  0.00  0.00     0.036 H 
ATOM     28  H4  non d ame     -39.460   8.968  30.839  0.00  0.00     0.036 H 
ENDBRANCH  21  25
ENDBRANCH  16  19
ENDBRANCH  13  15
BRANCH  13  29
ATOM     29  C8  non d ame     -33.720   3.519  27.601  0.00  0.00    -0.049 C 
ATOM     30  H7  non d ame     -32.799   3.052  27.254  0.00  0.00     0.030 H 
ATOM     31  H8  non d ame     -34.206   2.867  28.327  0.00  0.00     0.030 H 
ATOM     32  H9  non d ame     -34.387   3.682  26.754  0.00  0.00     0.030 H 
ENDBRANCH  13  29
ENDBRANCH  10  13
ENDBRANCH   7   9
BRANCH   7  33
ATOM     33  C11 non d ame     -32.677   6.025  23.404  0.00  0.00    -0.033 C 
ATOM     34  H12 non d ame     -33.504   6.601  22.987  0.00  0.00     0.042 H 
BRANCH  33  35
ATOM     35  C12 non d ame     -31.442   6.237  22.474  0.00  0.00    -0.071 C 
ATOM     36  H13 non d ame     -31.477   7.239  22.046  0.00  0.00     0.028 H 
ATOM     37  H14 non d ame     -30.527   6.121  23.054  0.00  0.00     0.028 H 
ATOM     38  H15 non d ame     -31.460   5.500  21.671  0.00  0.00     0.028 H 
ENDBRANCH  33  35
BRANCH  33  39
ATOM     39  C13 non d ame     -33.107   4.523  23.442  0.00  0.00    -0.071 C 
ATOM     40  H16 non d ame     -32.509   3.992  24.183  0.00  0.00     0.028 H 
ATOM     41  H17 non d ame     -34.162   4.453  23.708  0.00  0.00     0.028 H 
ATOM     42  H18 non d ame     -32.951   4.076  22.461  0.00  0.00     0.028 H 
ENDBRANCH  33  39
ENDBRANCH   7  33
ENDBRANCH   4   7
ENDBRANCH   1   3
BRANCH   1  43
ATOM     43  C15 non d ame     -31.539  11.382  25.349  0.00  0.00     0.240 C 
ATOM     44  O5  non d ame     -30.423  10.995  25.213  0.00  0.00    -0.271 OA
ATOM     45  N6  non d ame     -31.859  12.819  25.116  0.00  0.00    -0.355 N 
ATOM     46  H46 non d ame     -32.804  13.158  25.223  0.00  0.00     0.162 HD
BRANCH  45  47
ATOM     47  C20 non d ame     -30.783  13.756  24.723  0.00  0.00     0.013 C 
ATOM     48  H30 non d ame     -29.844  13.373  25.121  0.00  0.00     0.072 H 
BRANCH  47  49
ATOM     49  C21 non d ame     -31.073  15.121  25.306  0.00  0.00    -0.038 C 
ATOM     50  H31 non d ame     -30.521  15.162  26.247  0.00  0.00     0.036 H 
ATOM     51  H32 non d ame     -30.850  15.833  24.513  0.00  0.00     0.036 H 
BRANCH  49  52
ATOM     52  C22 non d ame     -32.561  15.317  25.665  0.00  0.00     0.018 C 
ATOM     53  H33 non d ame     -33.022  15.757  24.782  0.00  0.00     0.048 H 
ATOM     54  H34 non d ame     -32.905  14.349  26.033  0.00  0.00     0.048 H 
BRANCH  52  55
ATOM     55  C23 non d ame     -32.800  16.325  26.822  0.00  0.00     0.259 C 
ATOM     56  O7  non d ame     -32.897  17.489  26.598  0.00  0.00    -0.265 OA
BRANCH  55  57
ATOM     57  O8  non d ame     -32.886  15.845  28.158  0.00  0.00    -0.317 OA
BRANCH  57  58
ATOM     58  C29 non d ame     -33.506  14.561  28.276  0.00  0.00     0.052 C 
ATOM     59  H47 non d ame     -34.391  14.716  28.892  0.00  0.00     0.082 H 
ATOM     60  H48 non d ame     -33.609  14.188  27.257  0.00  0.00     0.082 H 
BRANCH  58  61
ATOM     61  C35 non d ame     -32.532  13.627  29.043  0.00  0.00    -0.034 A 
ATOM     62  C30 non d ame     -32.999  12.850  30.098  0.00  0.00    -0.075 A 
ATOM     63  C31 non d ame     -32.123  12.011  30.788  0.00  0.00    -0.082 A 
ATOM     64  H49 non d ame     -34.049  12.897  30.385  0.00  0.00     0.084 H 
ATOM     65  C32 non d ame     -30.777  11.954  30.420  0.00  0.00    -0.083 A 
ATOM     66  H50 non d ame     -32.493  11.402  31.613  0.00  0.00     0.083 H 
ATOM     67  C33 non d ame     -30.315  12.734  29.369  0.00  0.00    -0.082 A 
ATOM     68  H51 non d ame     -30.086  11.301  30.954  0.00  0.00     0.083 H 
ATOM     69  C34 non d ame     -31.186  13.572  28.676  0.00  0.00    -0.075 A 
ATOM     70  H52 non d ame     -29.263  12.689  29.086  0.00  0.00     0.083 H 
ATOM     71  H53 non d ame     -30.816  14.181  27.851  0.00  0.00     0.084 H 
ENDBRANCH  58  61
ENDBRANCH  57  58
ENDBRANCH  55  57
ENDBRANCH  52  55
ENDBRANCH  49  52
ENDBRANCH  47  49
BRANCH  47  72
ATOM     72  C24 non d ame     -30.714  13.855  23.201  0.00  0.00    -0.039 C 
ATOM     73  H35 non d ame     -30.013  13.079  22.892  0.00  0.00     0.036 H 
ATOM     74  H36 non d ame     -31.749  13.821  22.861  0.00  0.00     0.036 H 
BRANCH  72  75
ATOM     75  C25 non d ame     -30.107  15.259  22.726  0.00  0.00    -0.001 C 
ATOM     76  C26 non d ame     -31.253  16.120  21.920  0.00  0.00    -0.035 C 
ATOM     77  C27 non d ame     -30.740  16.526  20.734  0.00  0.00     0.085 C 
ATOM     78  H38 non d ame     -32.077  15.467  21.632  0.00  0.00     0.036 H 
ATOM     79  H39 non d ame     -31.455  17.055  22.443  0.00  0.00     0.036 H 
ATOM     80  N5  non d ame     -29.467  15.746  20.513  0.00  0.00    -0.049 N 
ATOM     81  H40 non d ame     -31.473  16.229  19.982  0.00  0.00     0.075 H 
ATOM     82  H41 non d ame     -30.493  17.579  20.868  0.00  0.00     0.075 H 
ATOM     83  C28 non d ame     -29.095  15.090  21.941  0.00  0.00     0.193 C 
ATOM     84  H42 non d ame     -29.693  15.004  19.867  0.00  0.00     0.280 HD
ATOM     85  H43 non d ame     -28.755  16.423  20.276  0.00  0.00     0.280 HD
ATOM     86  H44 non d ame     -28.298  15.509  22.553  0.00  0.00     0.129 H 
ATOM     87  H37 non d ame     -29.574  15.771  23.526  0.00  0.00     0.046 H 
BRANCH  83  88
ATOM     88  O6  non d ame     -28.766  13.709  21.777  0.00  0.00    -0.369 OA
ATOM     89  H45 non d ame     -29.369  13.172  22.295  0.00  0.00     0.212 HD
ENDBRANCH  83  88
ENDBRANCH  72  75
ENDBRANCH  47  72
ENDBRANCH  45  47
ENDBRANCH   1  43
BRANCH   1  90
ATOM     90  C16 non d ame     -33.059  10.631  27.206  0.00  0.00    -0.035 C 
ATOM     91  H21 non d ame     -32.844   9.700  27.729  0.00  0.00     0.037 H 
ATOM     92  H22 non d ame     -32.546  11.549  27.494  0.00  0.00     0.037 H 
BRANCH  90  93
ATOM     93  C17 non d ame     -34.586  10.900  27.397  0.00  0.00    -0.059 C 
ATOM     94  H23 non d ame     -34.709  11.472  28.316  0.00  0.00     0.038 H 
BRANCH  93  95
ATOM     95  C18 non d ame     -35.186  11.742  26.226  0.00  0.00    -0.073 C 
ATOM     96  H24 non d ame     -35.350  12.766  26.562  0.00  0.00     0.028 H 
ATOM     97  H25 non d ame     -34.492  11.743  25.386  0.00  0.00     0.028 H 
ATOM     98  H26 non d ame     -36.134  11.306  25.913  0.00  0.00     0.028 H 
ENDBRANCH  93  95
BRANCH  93  99
ATOM     99  C19 non d ame     -35.353   9.587  27.572  0.00  0.00    -0.073 C 
ATOM    100  H27 non d ame     -35.293   9.266  28.613  0.00  0.00     0.028 H 
ATOM    101  H28 non d ame     -36.398   9.737  27.300  0.00  0.00     0.028 H 
ATOM    102  H29 non d ame     -34.918   8.822  26.930  0.00  0.00     0.028 H 
ENDBRANCH  93  99
ENDBRANCH  90  93
ENDBRANCH   1  90
TORSDOF 26
ENDMDL
MODEL 5
REMARK VINA RESULT:      -7.0      2.030      5.834
REMARK  26 active torsions:
REMARK  status: ('A' for Active; 'I' for Inactive)
REMARK    1  A    between atoms: C2_2  and  C3_3 
REMARK    2  A    between atoms: C4_6  and  C5_7 
REMARK       I    between atoms: C5_7  and  N2_9 
REMARK    3  A    between atoms: N2_9  and  C6_10 
REMARK    4  A    between atoms: C6_10  and  C7_11 
REMARK    5  A    between atoms: C6_10  and  C8_13 
REMARK       I    between atoms: C7_11  and  N3_14 
REMARK    6  A    between atoms: N3_14  and  C9_15 
REMARK    7  A    between atoms: C9_15  and  C10_16 
REMARK    8  A    between atoms: C9_15  and  C11_18 
REMARK       I    between atoms: C10_16  and  N4_21 
REMARK    9  A    between atoms: C11_18  and  C12_19 
REMARK   10  A    between atoms: C11_18  and  C13_20 
REMARK   11  A    between atoms: N4_21  and  C14_22 
REMARK   12  A    between atoms: C14_22  and  C15_23 
REMARK   13  A    between atoms: C14_22  and  C16_25 
REMARK       I    between atoms: C15_23  and  N6_40 
REMARK   14  A    between atoms: C16_25  and  C17_26 
REMARK   15  A    between atoms: C17_26  and  C18_27 
REMARK   16  A    between atoms: C17_26  and  C19_28 
REMARK   17  A    between atoms: C20_29  and  C21_30 
REMARK   18  A    between atoms: C20_29  and  C24_33 
REMARK   19  A    between atoms: C20_29  and  N6_40 
REMARK   20  A    between atoms: C21_30  and  C22_31 
REMARK   21  A    between atoms: C22_31  and  C23_32 
REMARK   22  A    between atoms: C23_32  and  O8_43 
REMARK   23  A    between atoms: C24_33  and  C25_34 
REMARK   24  A    between atoms: C28_38  and  O6_39 
REMARK   25  A    between atoms: C29_42  and  O8_43 
REMARK   26  A    between atoms: C29_42  and  C35_49 
ROOT
ATOM      1  C14 non d ame     -30.941  13.950  24.682  0.00  0.00     0.089 C 
ATOM      2  H20 non d ame     -29.971  13.787  25.152  0.00  0.00     0.087 H 
ENDROOT
BRANCH   1   3
ATOM      3  N4  non d ame     -31.399  12.668  24.168  0.00  0.00    -0.346 N 
ATOM      4  C10 non d ame     -31.333  11.433  25.032  0.00  0.00     0.241 C 
ATOM      5  O4  non d ame     -30.904  11.495  26.136  0.00  0.00    -0.271 OA
ATOM      6  H19 non d ame     -31.759  12.636  23.225  0.00  0.00     0.163 HD
BRANCH   4   7
ATOM      7  C9  non d ame     -31.817  10.116  24.485  0.00  0.00     0.092 C 
ATOM      8  H11 non d ame     -31.464   9.309  25.128  0.00  0.00     0.088 H 
BRANCH   7   9
ATOM      9  N3  non d ame     -33.282  10.083  24.512  0.00  0.00    -0.346 N 
ATOM     10  C7  non d ame     -33.969   9.463  25.617  0.00  0.00     0.240 C 
ATOM     11  O3  non d ame     -33.358   8.983  26.494  0.00  0.00    -0.271 OA
ATOM     12  H10 non d ame     -33.822  10.491  23.763  0.00  0.00     0.163 HD
BRANCH  10  13
ATOM     13  C6  non d ame     -35.529   9.428  25.639  0.00  0.00     0.086 C 
ATOM     14  H6  non d ame     -35.928   8.993  26.555  0.00  0.00     0.086 H 
BRANCH  13  15
ATOM     15  N2  non d ame     -36.031  10.791  25.573  0.00  0.00    -0.343 N 
ATOM     16  C5  non d ame     -36.381  11.492  26.811  0.00  0.00     0.273 C 
ATOM     17  O2  non d ame     -36.257  10.950  27.853  0.00  0.00    -0.266 OA
ATOM     18  H5  non d ame     -36.137  11.245  24.677  0.00  0.00     0.163 HD
BRANCH  16  19
ATOM     19  C4  non d ame     -36.911  12.932  26.755  0.00  0.00     0.154 A 
ATOM     20  C1  non d ame     -36.146  14.130  26.589  0.00  0.00    -0.017 A 
ATOM     21  C2  non d ame     -37.097  15.175  26.605  0.00  0.00     0.077 A 
ATOM     22  H1  non d ame     -35.066  14.227  26.475  0.00  0.00     0.091 H 
ATOM     23  O1  non d ame     -38.268  14.630  26.760  0.00  0.00    -0.218 OA
ATOM     24  N1  non d ame     -38.185  13.323  26.851  0.00  0.00    -0.123 NA
BRANCH  21  25
ATOM     25  C3  non d ame     -36.804  16.663  26.465  0.00  0.00    -0.029 C 
ATOM     26  H2  non d ame     -35.906  16.912  27.031  0.00  0.00     0.036 H 
ATOM     27  H3  non d ame     -36.649  16.905  25.413  0.00  0.00     0.036 H 
ATOM     28  H4  non d ame     -37.646  17.237  26.849  0.00  0.00     0.036 H 
ENDBRANCH  21  25
ENDBRANCH  16  19
ENDBRANCH  13  15
BRANCH  13  29
ATOM     29  C8  non d ame     -36.033   8.634  24.460  0.00  0.00    -0.049 C 
ATOM     30  H7  non d ame     -35.329   7.834  24.233  0.00  0.00     0.030 H 
ATOM     31  H8  non d ame     -37.005   8.204  24.703  0.00  0.00     0.030 H 
ATOM     32  H9  non d ame     -36.131   9.290  23.595  0.00  0.00     0.030 H 
ENDBRANCH  13  29
ENDBRANCH  10  13
ENDBRANCH   7   9
BRANCH   7  33
ATOM     33  C11 non d ame     -31.323   9.951  23.018  0.00  0.00    -0.033 C 
ATOM     34  H12 non d ame     -31.562  10.872  22.486  0.00  0.00     0.042 H 
BRANCH  33  35
ATOM     35  C12 non d ame     -29.775   9.761  22.956  0.00  0.00    -0.071 C 
ATOM     36  H13 non d ame     -29.528   9.052  22.166  0.00  0.00     0.028 H 
ATOM     37  H14 non d ame     -29.301  10.719  22.746  0.00  0.00     0.028 H 
ATOM     38  H15 non d ame     -29.417   9.380  23.912  0.00  0.00     0.028 H 
ENDBRANCH  33  35
BRANCH  33  39
ATOM     39  C13 non d ame     -32.067   8.776  22.306  0.00  0.00    -0.071 C 
ATOM     40  H16 non d ame     -31.602   8.583  21.339  0.00  0.00     0.028 H 
ATOM     41  H17 non d ame     -32.006   7.879  22.924  0.00  0.00     0.028 H 
ATOM     42  H18 non d ame     -33.113   9.043  22.160  0.00  0.00     0.028 H 
ENDBRANCH  33  39
ENDBRANCH   7  33
ENDBRANCH   4   7
ENDBRANCH   1   3
BRANCH   1  43
ATOM     43  C15 non d ame     -31.999  14.487  25.687  0.00  0.00     0.240 C 
ATOM     44  O5  non d ame     -33.051  14.872  25.289  0.00  0.00    -0.271 OA
ATOM     45  N6  non d ame     -31.706  14.512  27.148  0.00  0.00    -0.355 N 
ATOM     46  H46 non d ame     -30.818  14.182  27.499  0.00  0.00     0.162 HD
BRANCH  45  47
ATOM     47  C20 non d ame     -32.723  15.024  28.092  0.00  0.00     0.013 C 
ATOM     48  H30 non d ame     -33.703  14.888  27.635  0.00  0.00     0.072 H 
BRANCH  47  49
ATOM     49  C21 non d ame     -32.473  16.493  28.349  0.00  0.00    -0.038 C 
ATOM     50  H31 non d ame     -32.564  16.624  29.428  0.00  0.00     0.036 H 
ATOM     51  H32 non d ame     -31.532  16.722  27.850  0.00  0.00     0.036 H 
BRANCH  49  52
ATOM     52  C22 non d ame     -33.541  17.405  27.708  0.00  0.00     0.018 C 
ATOM     53  H33 non d ame     -34.307  16.735  27.321  0.00  0.00     0.048 H 
ATOM     54  H34 non d ame     -33.796  18.141  28.471  0.00  0.00     0.048 H 
BRANCH  52  55
ATOM     55  C23 non d ame     -33.023  18.214  26.487  0.00  0.00     0.259 C 
ATOM     56  O7  non d ame     -31.991  17.933  25.971  0.00  0.00    -0.265 OA
BRANCH  55  57
ATOM     57  O8  non d ame     -33.791  19.309  26.001  0.00  0.00    -0.317 OA
BRANCH  57  58
ATOM     58  C29 non d ame     -34.383  20.107  27.030  0.00  0.00     0.052 C 
ATOM     59  H47 non d ame     -34.375  19.486  27.925  0.00  0.00     0.082 H 
ATOM     60  H48 non d ame     -33.842  21.054  27.018  0.00  0.00     0.082 H 
BRANCH  58  61
ATOM     61  C35 non d ame     -35.859  20.381  26.635  0.00  0.00    -0.034 A 
ATOM     62  C30 non d ame     -36.312  20.048  25.362  0.00  0.00    -0.075 A 
ATOM     63  C31 non d ame     -37.638  20.294  25.007  0.00  0.00    -0.082 A 
ATOM     64  H49 non d ame     -35.630  19.596  24.643  0.00  0.00     0.084 H 
ATOM     65  C32 non d ame     -38.511  20.877  25.930  0.00  0.00    -0.083 A 
ATOM     66  H50 non d ame     -37.991  20.031  24.009  0.00  0.00     0.083 H 
ATOM     67  C33 non d ame     -38.053  21.210  27.197  0.00  0.00    -0.082 A 
ATOM     68  H51 non d ame     -39.549  21.072  25.660  0.00  0.00     0.083 H 
ATOM     69  C34 non d ame     -36.730  20.964  27.557  0.00  0.00    -0.075 A 
ATOM     70  H52 non d ame     -38.736  21.667  27.915  0.00  0.00     0.083 H 
ATOM     71  H53 non d ame     -36.378  21.227  28.555  0.00  0.00     0.084 H 
ENDBRANCH  58  61
ENDBRANCH  57  58
ENDBRANCH  55  57
ENDBRANCH  52  55
ENDBRANCH  49  52
ENDBRANCH  47  49
BRANCH  47  72
ATOM     72  C24 non d ame     -32.641  14.255  29.409  0.00  0.00    -0.039 C 
ATOM     73  H35 non d ame     -32.002  14.857  30.056  0.00  0.00     0.036 H 
ATOM     74  H36 non d ame     -33.674  14.057  29.694  0.00  0.00     0.036 H 
BRANCH  72  75
ATOM     75  C25 non d ame     -31.922  12.836  29.222  0.00  0.00    -0.001 C 
ATOM     76  C26 non d ame     -33.044  11.635  29.234  0.00  0.00    -0.035 C 
ATOM     77  C27 non d ame     -32.664  10.691  30.128  0.00  0.00     0.085 C 
ATOM     78  H38 non d ame     -33.985  12.006  29.640  0.00  0.00     0.036 H 
ATOM     79  H39 non d ame     -33.033  11.103  28.283  0.00  0.00     0.036 H 
ATOM     80  N5  non d ame     -31.560  11.293  30.963  0.00  0.00    -0.049 N 
ATOM     81  H40 non d ame     -33.536  10.521  30.762  0.00  0.00     0.075 H 
ATOM     82  H41 non d ame     -32.255   9.874  29.534  0.00  0.00     0.075 H 
ATOM     83  C28 non d ame     -31.073  12.613  30.170  0.00  0.00     0.193 C 
ATOM     84  H42 non d ame     -31.982  11.579  31.835  0.00  0.00     0.280 HD
ATOM     85  H43 non d ame     -30.804  10.622  30.964  0.00  0.00     0.280 HD
ATOM     86  H44 non d ame     -30.142  12.608  29.605  0.00  0.00     0.129 H 
ATOM     87  H37 non d ame     -31.208  12.839  28.399  0.00  0.00     0.046 H 
BRANCH  83  88
ATOM     88  O6  non d ame     -30.968  13.718  31.070  0.00  0.00    -0.369 OA
ATOM     89  H45 non d ame     -30.426  13.468  31.822  0.00  0.00     0.212 HD
ENDBRANCH  83  88
ENDBRANCH  72  75
ENDBRANCH  47  72
ENDBRANCH  45  47
ENDBRANCH   1  43
BRANCH   1  90
ATOM     90  C16 non d ame     -30.795  14.924  23.524  0.00  0.00    -0.035 C 
ATOM     91  H21 non d ame     -31.781  14.976  23.064  0.00  0.00     0.037 H 
ATOM     92  H22 non d ame     -30.347  15.820  23.955  0.00  0.00     0.037 H 
BRANCH  90  93
ATOM     93  C17 non d ame     -29.815  14.433  22.411  0.00  0.00    -0.059 C 
ATOM     94  H23 non d ame     -29.776  13.345  22.461  0.00  0.00     0.038 H 
BRANCH  93  95
ATOM     95  C18 non d ame     -30.303  14.829  20.981  0.00  0.00    -0.073 C 
ATOM     96  H24 non d ame     -31.297  15.271  21.045  0.00  0.00     0.028 H 
ATOM     97  H25 non d ame     -29.611  15.552  20.549  0.00  0.00     0.028 H 
ATOM     98  H26 non d ame     -30.340  13.941  20.351  0.00  0.00     0.028 H 
ENDBRANCH  93  95
BRANCH  93  99
ATOM     99  C19 non d ame     -28.397  14.950  22.665  0.00  0.00    -0.073 C 
ATOM    100  H27 non d ame     -27.695  14.116  22.640  0.00  0.00     0.028 H 
ATOM    101  H28 non d ame     -28.129  15.671  21.892  0.00  0.00     0.028 H 
ATOM    102  H29 non d ame     -28.354  15.433  23.641  0.00  0.00     0.028 H 
ENDBRANCH  93  99
ENDBRANCH  90  93
ENDBRANCH   1  90
TORSDOF 26
ENDMDL
MODEL 6
REMARK VINA RESULT:      -7.0      2.876      7.767
REMARK  26 active torsions:
REMARK  status: ('A' for Active; 'I' for Inactive)
REMARK    1  A    between atoms: C2_2  and  C3_3 
REMARK    2  A    between atoms: C4_6  and  C5_7 
REMARK       I    between atoms: C5_7  and  N2_9 
REMARK    3  A    between atoms: N2_9  and  C6_10 
REMARK    4  A    between atoms: C6_10  and  C7_11 
REMARK    5  A    between atoms: C6_10  and  C8_13 
REMARK       I    between atoms: C7_11  and  N3_14 
REMARK    6  A    between atoms: N3_14  and  C9_15 
REMARK    7  A    between atoms: C9_15  and  C10_16 
REMARK    8  A    between atoms: C9_15  and  C11_18 
REMARK       I    between atoms: C10_16  and  N4_21 
REMARK    9  A    between atoms: C11_18  and  C12_19 
REMARK   10  A    between atoms: C11_18  and  C13_20 
REMARK   11  A    between atoms: N4_21  and  C14_22 
REMARK   12  A    between atoms: C14_22  and  C15_23 
REMARK   13  A    between atoms: C14_22  and  C16_25 
REMARK       I    between atoms: C15_23  and  N6_40 
REMARK   14  A    between atoms: C16_25  and  C17_26 
REMARK   15  A    between atoms: C17_26  and  C18_27 
REMARK   16  A    between atoms: C17_26  and  C19_28 
REMARK   17  A    between atoms: C20_29  and  C21_30 
REMARK   18  A    between atoms: C20_29  and  C24_33 
REMARK   19  A    between atoms: C20_29  and  N6_40 
REMARK   20  A    between atoms: C21_30  and  C22_31 
REMARK   21  A    between atoms: C22_31  and  C23_32 
REMARK   22  A    between atoms: C23_32  and  O8_43 
REMARK   23  A    between atoms: C24_33  and  C25_34 
REMARK   24  A    between atoms: C28_38  and  O6_39 
REMARK   25  A    between atoms: C29_42  and  O8_43 
REMARK   26  A    between atoms: C29_42  and  C35_49 
ROOT
ATOM      1  C14 non d ame     -35.271   9.097  26.909  0.00  0.00     0.089 C 
ATOM      2  H20 non d ame     -35.421   8.453  27.776  0.00  0.00     0.087 H 
ENDROOT
BRANCH   1   3
ATOM      3  N4  non d ame     -34.234  10.058  27.253  0.00  0.00    -0.346 N 
ATOM      4  C10 non d ame     -33.422   9.885  28.512  0.00  0.00     0.241 C 
ATOM      5  O4  non d ame     -33.624   8.967  29.235  0.00  0.00    -0.271 OA
ATOM      6  H19 non d ame     -34.079  10.834  26.625  0.00  0.00     0.163 HD
BRANCH   4   7
ATOM      7  C9  non d ame     -32.348  10.886  28.848  0.00  0.00     0.092 C 
ATOM      8  H11 non d ame     -31.403  10.559  28.414  0.00  0.00     0.088 H 
BRANCH   7   9
ATOM      9  N3  non d ame     -32.678  12.179  28.243  0.00  0.00    -0.346 N 
ATOM     10  C7  non d ame     -31.825  12.736  27.222  0.00  0.00     0.240 C 
ATOM     11  O3  non d ame     -30.868  12.157  26.877  0.00  0.00    -0.271 OA
ATOM     12  H10 non d ame     -33.499  12.691  28.532  0.00  0.00     0.163 HD
BRANCH  10  13
ATOM     13  C6  non d ame     -32.179  14.115  26.583  0.00  0.00     0.086 C 
ATOM     14  H6  non d ame     -31.735  14.954  27.118  0.00  0.00     0.086 H 
BRANCH  13  15
ATOM     15  N2  non d ame     -31.650  14.157  25.230  0.00  0.00    -0.343 N 
ATOM     16  C5  non d ame     -31.103  15.412  24.708  0.00  0.00     0.273 C 
ATOM     17  O2  non d ame     -31.096  16.381  25.384  0.00  0.00    -0.266 OA
ATOM     18  H5  non d ame     -31.664  13.324  24.658  0.00  0.00     0.163 HD
BRANCH  16  19
ATOM     19  C4  non d ame     -30.539  15.470  23.280  0.00  0.00     0.154 A 
ATOM     20  C1  non d ame     -31.276  15.636  22.065  0.00  0.00    -0.017 A 
ATOM     21  C2  non d ame     -30.301  15.623  21.043  0.00  0.00     0.077 A 
ATOM     22  H1  non d ame     -32.354  15.747  21.943  0.00  0.00     0.091 H 
ATOM     23  O1  non d ame     -29.142  15.470  21.615  0.00  0.00    -0.218 OA
ATOM     24  N1  non d ame     -29.256  15.377  22.920  0.00  0.00    -0.123 NA
BRANCH  21  25
ATOM     25  C3  non d ame     -30.559  15.764  19.549  0.00  0.00    -0.029 C 
ATOM     26  H2  non d ame     -30.743  16.811  19.309  0.00  0.00     0.036 H 
ATOM     27  H3  non d ame     -29.688  15.413  18.995  0.00  0.00     0.036 H 
ATOM     28  H4  non d ame     -31.429  15.170  19.272  0.00  0.00     0.036 H 
ENDBRANCH  21  25
ENDBRANCH  16  19
ENDBRANCH  13  15
BRANCH  13  29
ATOM     29  C8  non d ame     -33.677  14.290  26.558  0.00  0.00    -0.049 C 
ATOM     30  H7  non d ame     -34.121  13.747  27.391  0.00  0.00     0.030 H 
ATOM     31  H8  non d ame     -33.920  15.349  26.645  0.00  0.00     0.030 H 
ATOM     32  H9  non d ame     -34.072  13.902  25.619  0.00  0.00     0.030 H 
ENDBRANCH  13  29
ENDBRANCH  10  13
ENDBRANCH   7   9
BRANCH   7  33
ATOM     33  C11 non d ame     -32.256  11.048  30.394  0.00  0.00    -0.033 C 
ATOM     34  H12 non d ame     -32.191  10.048  30.825  0.00  0.00     0.042 H 
BRANCH  33  35
ATOM     35  C12 non d ame     -30.967  11.823  30.810  0.00  0.00    -0.071 C 
ATOM     36  H13 non d ame     -30.296  11.898  29.954  0.00  0.00     0.028 H 
ATOM     37  H14 non d ame     -31.238  12.823  31.148  0.00  0.00     0.028 H 
ATOM     38  H15 non d ame     -30.466  11.289  31.617  0.00  0.00     0.028 H 
ENDBRANCH  33  35
BRANCH  33  39
ATOM     39  C13 non d ame     -33.539  11.736  30.962  0.00  0.00    -0.071 C 
ATOM     40  H16 non d ame     -33.698  12.686  30.451  0.00  0.00     0.028 H 
ATOM     41  H17 non d ame     -34.401  11.088  30.801  0.00  0.00     0.028 H 
ATOM     42  H18 non d ame     -33.414  11.913  32.029  0.00  0.00     0.028 H 
ENDBRANCH  33  39
ENDBRANCH   7  33
ENDBRANCH   4   7
ENDBRANCH   1   3
BRANCH   1  43
ATOM     43  C15 non d ame     -34.812   8.299  25.656  0.00  0.00     0.240 C 
ATOM     44  O5  non d ame     -35.571   7.562  25.114  0.00  0.00    -0.271 OA
ATOM     45  N6  non d ame     -33.429   8.461  25.125  0.00  0.00    -0.355 N 
ATOM     46  H46 non d ame     -32.777   9.088  25.574  0.00  0.00     0.162 HD
BRANCH  45  47
ATOM     47  C20 non d ame     -33.008   7.696  23.930  0.00  0.00     0.013 C 
ATOM     48  H30 non d ame     -33.885   7.186  23.532  0.00  0.00     0.072 H 
BRANCH  47  49
ATOM     49  C21 non d ame     -31.959   6.683  24.330  0.00  0.00    -0.038 C 
ATOM     50  H31 non d ame     -31.563   6.284  23.394  0.00  0.00     0.036 H 
ATOM     51  H32 non d ame     -31.298   7.202  25.024  0.00  0.00     0.036 H 
BRANCH  49  52
ATOM     52  C22 non d ame     -32.548   5.483  25.102  0.00  0.00     0.018 C 
ATOM     53  H33 non d ame     -33.593   5.425  24.804  0.00  0.00     0.048 H 
ATOM     54  H34 non d ame     -31.877   4.646  24.901  0.00  0.00     0.048 H 
BRANCH  52  55
ATOM     55  C23 non d ame     -32.550   5.669  26.644  0.00  0.00     0.259 C 
ATOM     56  O7  non d ame     -31.910   6.534  27.148  0.00  0.00    -0.265 OA
BRANCH  55  57
ATOM     57  O8  non d ame     -33.317   4.784  27.452  0.00  0.00    -0.317 OA
BRANCH  57  58
ATOM     58  C29 non d ame     -32.594   4.234  28.558  0.00  0.00     0.052 C 
ATOM     59  H47 non d ame     -32.579   3.157  28.393  0.00  0.00     0.082 H 
ATOM     60  H48 non d ame     -31.659   4.792  28.607  0.00  0.00     0.082 H 
BRANCH  58  61
ATOM     61  C35 non d ame     -33.405   4.522  29.850  0.00  0.00    -0.034 A 
ATOM     62  C30 non d ame     -34.513   5.362  29.804  0.00  0.00    -0.075 A 
ATOM     63  C31 non d ame     -35.241   5.620  30.965  0.00  0.00    -0.082 A 
ATOM     64  H49 non d ame     -34.811   5.817  28.860  0.00  0.00     0.084 H 
ATOM     65  C32 non d ame     -34.856   5.038  32.175  0.00  0.00    -0.083 A 
ATOM     66  H50 non d ame     -36.110   6.278  30.925  0.00  0.00     0.083 H 
ATOM     67  C33 non d ame     -33.748   4.203  32.216  0.00  0.00    -0.082 A 
ATOM     68  H51 non d ame     -35.420   5.234  33.086  0.00  0.00     0.083 H 
ATOM     69  C34 non d ame     -33.018   3.940  31.058  0.00  0.00    -0.075 A 
ATOM     70  H52 non d ame     -33.448   3.751  33.162  0.00  0.00     0.083 H 
ATOM     71  H53 non d ame     -32.150   3.282  31.099  0.00  0.00     0.084 H 
ENDBRANCH  58  61
ENDBRANCH  57  58
ENDBRANCH  55  57
ENDBRANCH  52  55
ENDBRANCH  49  52
ENDBRANCH  47  49
BRANCH  47  72
ATOM     72  C24 non d ame     -32.427   8.647  22.886  0.00  0.00    -0.039 C 
ATOM     73  H35 non d ame     -32.230   8.029  22.009  0.00  0.00     0.036 H 
ATOM     74  H36 non d ame     -33.135   9.474  22.822  0.00  0.00     0.036 H 
BRANCH  72  75
ATOM     75  C25 non d ame     -31.025   9.261  23.357  0.00  0.00    -0.001 C 
ATOM     76  C26 non d ame     -31.186  10.873  23.637  0.00  0.00    -0.035 C 
ATOM     77  C27 non d ame     -30.216  11.533  22.960  0.00  0.00     0.085 C 
ATOM     78  H38 non d ame     -32.107  11.241  23.187  0.00  0.00     0.036 H 
ATOM     79  H39 non d ame     -30.963  11.095  24.681  0.00  0.00     0.036 H 
ATOM     80  N5  non d ame     -29.613  10.551  21.984  0.00  0.00    -0.049 N 
ATOM     81  H40 non d ame     -30.731  12.316  22.402  0.00  0.00     0.075 H 
ATOM     82  H41 non d ame     -29.467  11.797  23.706  0.00  0.00     0.075 H 
ATOM     83  C28 non d ame     -30.114   9.091  22.457  0.00  0.00     0.193 C 
ATOM     84  H42 non d ame     -30.021  10.755  21.083  0.00  0.00     0.280 HD
ATOM     85  H43 non d ame     -28.612  10.604  22.109  0.00  0.00     0.280 HD
ATOM     86  H44 non d ame     -29.439   8.417  22.984  0.00  0.00     0.129 H 
ATOM     87  H37 non d ame     -30.556   8.666  24.140  0.00  0.00     0.046 H 
BRANCH  83  88
ATOM     88  O6  non d ame     -30.596   8.348  21.336  0.00  0.00    -0.369 OA
ATOM     89  H45 non d ame     -30.261   8.738  20.526  0.00  0.00     0.212 HD
ENDBRANCH  83  88
ENDBRANCH  72  75
ENDBRANCH  47  72
ENDBRANCH  45  47
ENDBRANCH   1  43
BRANCH   1  90
ATOM     90  C16 non d ame     -36.557   9.846  26.596  0.00  0.00    -0.035 C 
ATOM     91  H21 non d ame     -36.450  10.185  25.566  0.00  0.00     0.037 H 
ATOM     92  H22 non d ame     -37.362   9.162  26.864  0.00  0.00     0.037 H 
BRANCH  90  93
ATOM     93  C17 non d ame     -36.761  11.130  27.462  0.00  0.00    -0.059 C 
ATOM     94  H23 non d ame     -35.847  11.294  28.032  0.00  0.00     0.038 H 
BRANCH  93  95
ATOM     95  C18 non d ame     -37.012  12.398  26.585  0.00  0.00    -0.073 C 
ATOM     96  H24 non d ame     -37.528  12.111  25.669  0.00  0.00     0.028 H 
ATOM     97  H25 non d ame     -37.628  13.107  27.140  0.00  0.00     0.028 H 
ATOM     98  H26 non d ame     -36.059  12.862  26.336  0.00  0.00     0.028 H 
ENDBRANCH  93  95
BRANCH  93  99
ATOM     99  C19 non d ame     -37.896  10.933  28.471  0.00  0.00    -0.073 C 
ATOM    100  H27 non d ame     -37.662  11.469  29.391  0.00  0.00     0.028 H 
ATOM    101  H28 non d ame     -38.826  11.320  28.053  0.00  0.00     0.028 H 
ATOM    102  H29 non d ame     -38.010   9.871  28.687  0.00  0.00     0.028 H 
ENDBRANCH  93  99
ENDBRANCH  90  93
ENDBRANCH   1  90
TORSDOF 26
ENDMDL
MODEL 7
REMARK VINA RESULT:      -6.9      2.384      8.116
REMARK  26 active torsions:
REMARK  status: ('A' for Active; 'I' for Inactive)
REMARK    1  A    between atoms: C2_2  and  C3_3 
REMARK    2  A    between atoms: C4_6  and  C5_7 
REMARK       I    between atoms: C5_7  and  N2_9 
REMARK    3  A    between atoms: N2_9  and  C6_10 
REMARK    4  A    between atoms: C6_10  and  C7_11 
REMARK    5  A    between atoms: C6_10  and  C8_13 
REMARK       I    between atoms: C7_11  and  N3_14 
REMARK    6  A    between atoms: N3_14  and  C9_15 
REMARK    7  A    between atoms: C9_15  and  C10_16 
REMARK    8  A    between atoms: C9_15  and  C11_18 
REMARK       I    between atoms: C10_16  and  N4_21 
REMARK    9  A    between atoms: C11_18  and  C12_19 
REMARK   10  A    between atoms: C11_18  and  C13_20 
REMARK   11  A    between atoms: N4_21  and  C14_22 
REMARK   12  A    between atoms: C14_22  and  C15_23 
REMARK   13  A    between atoms: C14_22  and  C16_25 
REMARK       I    between atoms: C15_23  and  N6_40 
REMARK   14  A    between atoms: C16_25  and  C17_26 
REMARK   15  A    between atoms: C17_26  and  C18_27 
REMARK   16  A    between atoms: C17_26  and  C19_28 
REMARK   17  A    between atoms: C20_29  and  C21_30 
REMARK   18  A    between atoms: C20_29  and  C24_33 
REMARK   19  A    between atoms: C20_29  and  N6_40 
REMARK   20  A    between atoms: C21_30  and  C22_31 
REMARK   21  A    between atoms: C22_31  and  C23_32 
REMARK   22  A    between atoms: C23_32  and  O8_43 
REMARK   23  A    between atoms: C24_33  and  C25_34 
REMARK   24  A    between atoms: C28_38  and  O6_39 
REMARK   25  A    between atoms: C29_42  and  O8_43 
REMARK   26  A    between atoms: C29_42  and  C35_49 
ROOT
ATOM      1  C14 non d ame     -36.415  15.945  26.507  0.00  0.00     0.089 C 
ATOM      2  H20 non d ame     -37.029  16.511  27.208  0.00  0.00     0.087 H 
ENDROOT
BRANCH   1   3
ATOM      3  N4  non d ame     -35.026  16.118  26.904  0.00  0.00    -0.346 N 
ATOM      4  C10 non d ame     -34.632  17.240  27.832  0.00  0.00     0.241 C 
ATOM      5  O4  non d ame     -35.451  17.993  28.244  0.00  0.00    -0.271 OA
ATOM      6  H19 non d ame     -34.344  15.468  26.540  0.00  0.00     0.163 HD
BRANCH   4   7
ATOM      7  C9  non d ame     -33.190  17.400  28.237  0.00  0.00     0.092 C 
ATOM      8  H11 non d ame     -33.143  17.896  29.207  0.00  0.00     0.088 H 
BRANCH   7   9
ATOM      9  N3  non d ame     -32.577  16.079  28.394  0.00  0.00    -0.346 N 
ATOM     10  C7  non d ame     -31.736  15.806  29.533  0.00  0.00     0.240 C 
ATOM     11  O3  non d ame     -31.541  16.639  30.332  0.00  0.00    -0.271 OA
ATOM     12  H10 non d ame     -32.734  15.351  27.712  0.00  0.00     0.163 HD
BRANCH  10  13
ATOM     13  C6  non d ame     -31.082  14.398  29.694  0.00  0.00     0.086 C 
ATOM     14  H6  non d ame     -30.402  14.343  30.544  0.00  0.00     0.086 H 
BRANCH  13  15
ATOM     15  N2  non d ame     -32.129  13.418  29.935  0.00  0.00    -0.343 N 
ATOM     16  C5  non d ame     -31.800  12.164  30.618  0.00  0.00     0.273 C 
ATOM     17  O2  non d ame     -30.690  11.953  30.967  0.00  0.00    -0.266 OA
ATOM     18  H5  non d ame     -33.073  13.605  29.630  0.00  0.00     0.163 HD
BRANCH  16  19
ATOM     19  C4  non d ame     -32.896  11.121  30.881  0.00  0.00     0.154 A 
ATOM     20  C1  non d ame     -33.259  10.019  30.044  0.00  0.00    -0.017 A 
ATOM     21  C2  non d ame     -34.312   9.372  30.730  0.00  0.00     0.077 A 
ATOM     22  H1  non d ame     -32.827   9.732  29.085  0.00  0.00     0.091 H 
ATOM     23  O1  non d ame     -34.518  10.032  31.832  0.00  0.00    -0.218 OA
ATOM     24  N1  non d ame     -33.705  11.057  31.942  0.00  0.00    -0.123 NA
BRANCH  21  25
ATOM     25  C3  non d ame     -35.063   8.131  30.265  0.00  0.00    -0.029 C 
ATOM     26  H2  non d ame     -35.033   7.374  31.049  0.00  0.00     0.036 H 
ATOM     27  H3  non d ame     -36.099   8.393  30.053  0.00  0.00     0.036 H 
ATOM     28  H4  non d ame     -34.594   7.739  29.364  0.00  0.00     0.036 H 
ENDBRANCH  21  25
ENDBRANCH  16  19
ENDBRANCH  13  15
BRANCH  13  29
ATOM     29  C8  non d ame     -30.325  14.046  28.438  0.00  0.00    -0.049 C 
ATOM     30  H7  non d ame     -29.655  14.864  28.177  0.00  0.00     0.030 H 
ATOM     31  H8  non d ame     -29.742  13.140  28.608  0.00  0.00     0.030 H 
ATOM     32  H9  non d ame     -31.029  13.878  27.624  0.00  0.00     0.030 H 
ENDBRANCH  13  29
ENDBRANCH  10  13
ENDBRANCH   7   9
BRANCH   7  33
ATOM     33  C11 non d ame     -32.429  18.196  27.137  0.00  0.00    -0.033 C 
ATOM     34  H12 non d ame     -31.365  17.993  27.262  0.00  0.00     0.042 H 
BRANCH  33  35
ATOM     35  C12 non d ame     -32.832  17.719  25.706  0.00  0.00    -0.071 C 
ATOM     36  H13 non d ame     -33.832  18.084  25.470  0.00  0.00     0.028 H 
ATOM     37  H14 non d ame     -32.121  18.110  24.980  0.00  0.00     0.028 H 
ATOM     38  H15 non d ame     -32.827  16.630  25.671  0.00  0.00     0.028 H 
ENDBRANCH  33  35
BRANCH  33  39
ATOM     39  C13 non d ame     -32.650  19.733  27.304  0.00  0.00    -0.071 C 
ATOM     40  H16 non d ame     -32.584  19.997  28.360  0.00  0.00     0.028 H 
ATOM     41  H17 non d ame     -31.885  20.274  26.746  0.00  0.00     0.028 H 
ATOM     42  H18 non d ame     -33.634  20.003  26.923  0.00  0.00     0.028 H 
ENDBRANCH  33  39
ENDBRANCH   7  33
ENDBRANCH   4   7
ENDBRANCH   1   3
BRANCH   1  43
ATOM     43  C15 non d ame     -36.750  14.427  26.524  0.00  0.00     0.240 C 
ATOM     44  O5  non d ame     -37.849  14.067  26.799  0.00  0.00    -0.271 OA
ATOM     45  N6  non d ame     -35.703  13.420  26.190  0.00  0.00    -0.355 N 
ATOM     46  H46 non d ame     -34.767  13.714  25.949  0.00  0.00     0.162 HD
BRANCH  45  47
ATOM     47  C20 non d ame     -36.038  11.979  26.209  0.00  0.00     0.013 C 
ATOM     48  H30 non d ame     -36.961  11.857  26.775  0.00  0.00     0.072 H 
BRANCH  47  49
ATOM     49  C21 non d ame     -34.917  11.215  26.877  0.00  0.00    -0.038 C 
ATOM     50  H31 non d ame     -35.307  10.913  27.851  0.00  0.00     0.036 H 
ATOM     51  H32 non d ame     -34.606  10.460  26.157  0.00  0.00     0.036 H 
BRANCH  49  52
ATOM     52  C22 non d ame     -33.677  12.091  27.157  0.00  0.00     0.018 C 
ATOM     53  H33 non d ame     -33.936  13.089  26.806  0.00  0.00     0.048 H 
ATOM     54  H34 non d ame     -33.434  11.929  28.208  0.00  0.00     0.048 H 
BRANCH  52  55
ATOM     55  C23 non d ame     -32.417  11.667  26.355  0.00  0.00     0.259 C 
ATOM     56  O7  non d ame     -31.505  11.135  26.900  0.00  0.00    -0.265 OA
BRANCH  55  57
ATOM     57  O8  non d ame     -32.356  11.935  24.959  0.00  0.00    -0.317 OA
BRANCH  57  58
ATOM     58  C29 non d ame     -31.060  11.737  24.385  0.00  0.00     0.052 C 
ATOM     59  H47 non d ame     -30.391  11.549  25.224  0.00  0.00     0.082 H 
ATOM     60  H48 non d ame     -31.192  10.979  23.612  0.00  0.00     0.082 H 
BRANCH  58  61
ATOM     61  C35 non d ame     -30.630  13.063  23.703  0.00  0.00    -0.034 A 
ATOM     62  C30 non d ame     -30.909  14.282  24.314  0.00  0.00    -0.075 A 
ATOM     63  C31 non d ame     -30.523  15.474  23.701  0.00  0.00    -0.082 A 
ATOM     64  H49 non d ame     -31.429  14.304  25.271  0.00  0.00     0.084 H 
ATOM     65  C32 non d ame     -29.859  15.444  22.472  0.00  0.00    -0.083 A 
ATOM     66  H50 non d ame     -30.741  16.428  24.183  0.00  0.00     0.083 H 
ATOM     67  C33 non d ame     -29.586  14.226  21.865  0.00  0.00    -0.082 A 
ATOM     68  H51 non d ame     -29.553  16.371  21.987  0.00  0.00     0.083 H 
ATOM     69  C34 non d ame     -29.968  13.032  22.475  0.00  0.00    -0.075 A 
ATOM     70  H52 non d ame     -29.069  14.205  20.905  0.00  0.00     0.083 H 
ATOM     71  H53 non d ame     -29.749  12.079  21.992  0.00  0.00     0.084 H 
ENDBRANCH  58  61
ENDBRANCH  57  58
ENDBRANCH  55  57
ENDBRANCH  52  55
ENDBRANCH  49  52
ENDBRANCH  47  49
BRANCH  47  72
ATOM     72  C24 non d ame     -36.220  11.472  24.780  0.00  0.00    -0.039 C 
ATOM     73  H35 non d ame     -35.688  12.185  24.149  0.00  0.00     0.036 H 
ATOM     74  H36 non d ame     -35.910  10.427  24.802  0.00  0.00     0.036 H 
BRANCH  72  75
ATOM     75  C25 non d ame     -37.758  11.500  24.333  0.00  0.00    -0.001 C 
ATOM     76  C26 non d ame     -38.175  10.052  23.675  0.00  0.00    -0.035 C 
ATOM     77  C27 non d ame     -38.762  10.271  22.474  0.00  0.00     0.085 C 
ATOM     78  H38 non d ame     -37.280   9.484  23.422  0.00  0.00     0.036 H 
ATOM     79  H39 non d ame     -38.967   9.588  24.264  0.00  0.00     0.036 H 
ATOM     80  N5  non d ame     -38.488  11.709  22.104  0.00  0.00    -0.049 N 
ATOM     81  H40 non d ame     -38.242   9.619  21.772  0.00  0.00     0.075 H 
ATOM     82  H41 non d ame     -39.831  10.147  22.644  0.00  0.00     0.075 H 
ATOM     83  C28 non d ame     -37.974  12.425  23.457  0.00  0.00     0.193 C 
ATOM     84  H42 non d ame     -37.728  11.694  21.439  0.00  0.00     0.280 HD
ATOM     85  H43 non d ame     -39.377  12.112  21.845  0.00  0.00     0.280 HD
ATOM     86  H44 non d ame     -38.634  13.082  24.022  0.00  0.00     0.129 H 
ATOM     87  H37 non d ame     -38.408  11.896  25.112  0.00  0.00     0.046 H 
BRANCH  83  88
ATOM     88  O6  non d ame     -36.802  13.199  23.191  0.00  0.00    -0.369 OA
ATOM     89  H45 non d ame     -36.073  12.612  22.976  0.00  0.00     0.212 HD
ENDBRANCH  83  88
ENDBRANCH  72  75
ENDBRANCH  47  72
ENDBRANCH  45  47
ENDBRANCH   1  43
BRANCH   1  90
ATOM     90  C16 non d ame     -36.601  16.494  25.101  0.00  0.00    -0.035 C 
ATOM     91  H21 non d ame     -35.595  16.690  24.732  0.00  0.00     0.037 H 
ATOM     92  H22 non d ame     -37.236  15.770  24.591  0.00  0.00     0.037 H 
BRANCH  90  93
ATOM     93  C17 non d ame     -37.361  17.858  25.056  0.00  0.00    -0.059 C 
ATOM     94  H23 non d ame     -37.929  17.889  24.127  0.00  0.00     0.038 H 
BRANCH  93  95
ATOM     95  C18 non d ame     -38.370  18.010  26.238  0.00  0.00    -0.073 C 
ATOM     96  H24 non d ame     -38.468  19.063  26.500  0.00  0.00     0.028 H 
ATOM     97  H25 non d ame     -39.342  17.619  25.939  0.00  0.00     0.028 H 
ATOM     98  H26 non d ame     -38.005  17.454  27.101  0.00  0.00     0.028 H 
ENDBRANCH  93  95
BRANCH  93  99
ATOM     99  C19 non d ame     -36.377  19.030  25.026  0.00  0.00    -0.073 C 
ATOM    100  H27 non d ame     -36.261  19.434  26.033  0.00  0.00     0.028 H 
ATOM    101  H28 non d ame     -35.409  18.684  24.661  0.00  0.00     0.028 H 
ATOM    102  H29 non d ame     -36.757  19.807  24.364  0.00  0.00     0.028 H 
ENDBRANCH  93  99
ENDBRANCH  90  93
ENDBRANCH   1  90
TORSDOF 26
ENDMDL
MODEL 8
REMARK VINA RESULT:      -6.9      2.920      9.081
REMARK  26 active torsions:
REMARK  status: ('A' for Active; 'I' for Inactive)
REMARK    1  A    between atoms: C2_2  and  C3_3 
REMARK    2  A    between atoms: C4_6  and  C5_7 
REMARK       I    between atoms: C5_7  and  N2_9 
REMARK    3  A    between atoms: N2_9  and  C6_10 
REMARK    4  A    between atoms: C6_10  and  C7_11 
REMARK    5  A    between atoms: C6_10  and  C8_13 
REMARK       I    between atoms: C7_11  and  N3_14 
REMARK    6  A    between atoms: N3_14  and  C9_15 
REMARK    7  A    between atoms: C9_15  and  C10_16 
REMARK    8  A    between atoms: C9_15  and  C11_18 
REMARK       I    between atoms: C10_16  and  N4_21 
REMARK    9  A    between atoms: C11_18  and  C12_19 
REMARK   10  A    between atoms: C11_18  and  C13_20 
REMARK   11  A    between atoms: N4_21  and  C14_22 
REMARK   12  A    between atoms: C14_22  and  C15_23 
REMARK   13  A    between atoms: C14_22  and  C16_25 
REMARK       I    between atoms: C15_23  and  N6_40 
REMARK   14  A    between atoms: C16_25  and  C17_26 
REMARK   15  A    between atoms: C17_26  and  C18_27 
REMARK   16  A    between atoms: C17_26  and  C19_28 
REMARK   17  A    between atoms: C20_29  and  C21_30 
REMARK   18  A    between atoms: C20_29  and  C24_33 
REMARK   19  A    between atoms: C20_29  and  N6_40 
REMARK   20  A    between atoms: C21_30  and  C22_31 
REMARK   21  A    between atoms: C22_31  and  C23_32 
REMARK   22  A    between atoms: C23_32  and  O8_43 
REMARK   23  A    between atoms: C24_33  and  C25_34 
REMARK   24  A    between atoms: C28_38  and  O6_39 
REMARK   25  A    between atoms: C29_42  and  O8_43 
REMARK   26  A    between atoms: C29_42  and  C35_49 
ROOT
ATOM      1  C14 non d ame     -33.701   6.964  27.931  0.00  0.00     0.089 C 
ATOM      2  H20 non d ame     -33.188   6.652  28.841  0.00  0.00     0.087 H 
ENDROOT
BRANCH   1   3
ATOM      3  N4  non d ame     -34.246   8.292  28.171  0.00  0.00    -0.346 N 
ATOM      4  C10 non d ame     -34.766   8.668  29.536  0.00  0.00     0.241 C 
ATOM      5  O4  non d ame     -34.739   7.883  30.425  0.00  0.00    -0.271 OA
ATOM      6  H19 non d ame     -34.263   8.945  27.400  0.00  0.00     0.163 HD
BRANCH   4   7
ATOM      7  C9  non d ame     -35.321  10.049  29.767  0.00  0.00     0.092 C 
ATOM      8  H11 non d ame     -35.500  10.190  30.833  0.00  0.00     0.088 H 
BRANCH   7   9
ATOM      9  N3  non d ame     -34.331  11.049  29.357  0.00  0.00    -0.346 N 
ATOM     10  C7  non d ame     -33.293  11.452  30.273  0.00  0.00     0.240 C 
ATOM     11  O3  non d ame     -33.240  10.983  31.344  0.00  0.00    -0.271 OA
ATOM     12  H10 non d ame     -34.365  11.463  28.438  0.00  0.00     0.163 HD
BRANCH  10  13
ATOM     13  C6  non d ame     -32.243  12.520  29.832  0.00  0.00     0.086 C 
ATOM     14  H6  non d ame     -31.751  12.264  28.894  0.00  0.00     0.086 H 
BRANCH  13  15
ATOM     15  N2  non d ame     -32.923  13.786  29.614  0.00  0.00    -0.343 N 
ATOM     16  C5  non d ame     -32.352  14.759  28.680  0.00  0.00     0.273 C 
ATOM     17  O2  non d ame     -31.345  14.515  28.112  0.00  0.00    -0.266 OA
ATOM     18  H5  non d ame     -33.781  13.988  30.106  0.00  0.00     0.163 HD
BRANCH  16  19
ATOM     19  C4  non d ame     -33.060  16.101  28.438  0.00  0.00     0.154 A 
ATOM     20  C1  non d ame     -32.451  17.357  28.126  0.00  0.00    -0.017 A 
ATOM     21  C2  non d ame     -33.528  18.264  28.003  0.00  0.00     0.077 A 
ATOM     22  H1  non d ame     -31.390  17.578  28.009  0.00  0.00     0.091 H 
ATOM     23  O1  non d ame     -34.623  17.595  28.218  0.00  0.00    -0.218 OA
ATOM     24  N1  non d ame     -34.376  16.331  28.475  0.00  0.00    -0.123 NA
BRANCH  21  25
ATOM     25  C3  non d ame     -33.424  19.748  27.677  0.00  0.00    -0.029 C 
ATOM     26  H2  non d ame     -32.378  20.015  27.527  0.00  0.00     0.036 H 
ATOM     27  H3  non d ame     -33.986  19.960  26.768  0.00  0.00     0.036 H 
ATOM     28  H4  non d ame     -33.833  20.330  28.502  0.00  0.00     0.036 H 
ENDBRANCH  21  25
ENDBRANCH  16  19
ENDBRANCH  13  15
BRANCH  13  29
ATOM     29  C8  non d ame     -31.197  12.674  30.907  0.00  0.00    -0.049 C 
ATOM     30  H7  non d ame     -31.663  13.052  31.817  0.00  0.00     0.030 H 
ATOM     31  H8  non d ame     -30.740  11.705  31.110  0.00  0.00     0.030 H 
ATOM     32  H9  non d ame     -30.432  13.374  30.572  0.00  0.00     0.030 H 
ENDBRANCH  13  29
ENDBRANCH  10  13
ENDBRANCH   7   9
BRANCH   7  33
ATOM     33  C11 non d ame     -36.619  10.233  28.928  0.00  0.00    -0.033 C 
ATOM     34  H12 non d ame     -36.859   9.268  28.479  0.00  0.00     0.042 H 
BRANCH  33  35
ATOM     35  C12 non d ame     -37.826  10.645  29.827  0.00  0.00    -0.071 C 
ATOM     36  H13 non d ame     -38.677  10.902  29.198  0.00  0.00     0.028 H 
ATOM     37  H14 non d ame     -38.093   9.814  30.479  0.00  0.00     0.028 H 
ATOM     38  H15 non d ame     -37.549  11.508  30.433  0.00  0.00     0.028 H 
ENDBRANCH  33  35
BRANCH  33  39
ATOM     39  C13 non d ame     -36.397  11.260  27.772  0.00  0.00    -0.071 C 
ATOM     40  H16 non d ame     -35.933  12.163  28.172  0.00  0.00     0.028 H 
ATOM     41  H17 non d ame     -35.746  10.822  27.015  0.00  0.00     0.028 H 
ATOM     42  H18 non d ame     -37.356  11.513  27.321  0.00  0.00     0.028 H 
ENDBRANCH  33  39
ENDBRANCH   7  33
ENDBRANCH   4   7
ENDBRANCH   1   3
BRANCH   1  43
ATOM     43  C15 non d ame     -32.741   7.035  26.710  0.00  0.00     0.240 C 
ATOM     44  O5  non d ame     -31.693   6.477  26.749  0.00  0.00    -0.271 OA
ATOM     45  N6  non d ame     -33.133   7.792  25.487  0.00  0.00    -0.355 N 
ATOM     46  H46 non d ame     -34.024   8.266  25.441  0.00  0.00     0.162 HD
BRANCH  45  47
ATOM     47  C20 non d ame     -32.210   7.849  24.332  0.00  0.00     0.013 C 
ATOM     48  H30 non d ame     -31.248   7.449  24.653  0.00  0.00     0.072 H 
BRANCH  47  49
ATOM     49  C21 non d ame     -32.051   9.286  23.890  0.00  0.00    -0.038 C 
ATOM     50  H31 non d ame     -31.001   9.532  24.059  0.00  0.00     0.036 H 
ATOM     51  H32 non d ame     -32.467   9.332  22.884  0.00  0.00     0.036 H 
BRANCH  49  52
ATOM     52  C22 non d ame     -32.873  10.272  24.748  0.00  0.00     0.018 C 
ATOM     53  H33 non d ame     -33.126  11.099  24.086  0.00  0.00     0.048 H 
ATOM     54  H34 non d ame     -33.665   9.676  25.203  0.00  0.00     0.048 H 
BRANCH  52  55
ATOM     55  C23 non d ame     -32.074  10.894  25.926  0.00  0.00     0.259 C 
ATOM     56  O7  non d ame     -32.255  10.524  27.040  0.00  0.00    -0.265 OA
BRANCH  55  57
ATOM     57  O8  non d ame     -31.130  11.926  25.660  0.00  0.00    -0.317 OA
BRANCH  57  58
ATOM     58  C29 non d ame     -31.714  13.135  25.166  0.00  0.00     0.052 C 
ATOM     59  H47 non d ame     -32.691  12.851  24.774  0.00  0.00     0.082 H 
ATOM     60  H48 non d ame     -31.641  13.853  25.982  0.00  0.00     0.082 H 
BRANCH  58  61
ATOM     61  C35 non d ame     -30.841  13.641  23.986  0.00  0.00    -0.034 A 
ATOM     62  C30 non d ame     -30.632  15.005  23.809  0.00  0.00    -0.075 A 
ATOM     63  C31 non d ame     -29.848  15.460  22.750  0.00  0.00    -0.082 A 
ATOM     64  H49 non d ame     -31.084  15.718  24.499  0.00  0.00     0.084 H 
ATOM     65  C32 non d ame     -29.273  14.544  21.864  0.00  0.00    -0.083 A 
ATOM     66  H50 non d ame     -29.686  16.530  22.615  0.00  0.00     0.083 H 
ATOM     67  C33 non d ame     -29.487  13.184  22.043  0.00  0.00    -0.082 A 
ATOM     68  H51 non d ame     -28.658  14.892  21.034  0.00  0.00     0.083 H 
ATOM     69  C34 non d ame     -30.268  12.726  23.101  0.00  0.00    -0.075 A 
ATOM     70  H52 non d ame     -29.038  12.473  21.349  0.00  0.00     0.083 H 
ATOM     71  H53 non d ame     -30.430  11.656  23.236  0.00  0.00     0.084 H 
ENDBRANCH  58  61
ENDBRANCH  57  58
ENDBRANCH  55  57
ENDBRANCH  52  55
ENDBRANCH  49  52
ENDBRANCH  47  49
BRANCH  47  72
ATOM     72  C24 non d ame     -32.772   7.019  23.180  0.00  0.00    -0.039 C 
ATOM     73  H35 non d ame     -32.038   6.231  23.007  0.00  0.00     0.036 H 
ATOM     74  H36 non d ame     -33.788   6.761  23.477  0.00  0.00     0.036 H 
BRANCH  72  75
ATOM     75  C25 non d ame     -32.877   7.874  21.830  0.00  0.00    -0.001 C 
ATOM     76  C26 non d ame     -34.454   8.059  21.406  0.00  0.00    -0.035 C 
ATOM     77  C27 non d ame     -34.605   7.687  20.112  0.00  0.00     0.085 C 
ATOM     78  H38 non d ame     -35.074   7.346  21.950  0.00  0.00     0.036 H 
ATOM     79  H39 non d ame     -34.718   9.116  21.399  0.00  0.00     0.036 H 
ATOM     80  N5  non d ame     -33.345   6.958  19.713  0.00  0.00    -0.049 N 
ATOM     81  H40 non d ame     -35.439   6.985  20.106  0.00  0.00     0.075 H 
ATOM     82  H41 non d ame     -34.671   8.617  19.548  0.00  0.00     0.075 H 
ATOM     83  C28 non d ame     -32.257   7.291  20.858  0.00  0.00     0.193 C 
ATOM     84  H42 non d ame     -33.560   5.972  19.751  0.00  0.00     0.280 HD
ATOM     85  H43 non d ame     -33.037   7.374  18.845  0.00  0.00     0.280 HD
ATOM     86  H44 non d ame     -31.460   8.010  20.672  0.00  0.00     0.129 H 
ATOM     87  H37 non d ame     -32.263   8.774  21.862  0.00  0.00     0.046 H 
BRANCH  83  88
ATOM     88  O6  non d ame     -31.601   6.093  21.278  0.00  0.00    -0.369 OA
ATOM     89  H45 non d ame     -31.866   5.367  20.709  0.00  0.00     0.212 HD
ENDBRANCH  83  88
ENDBRANCH  72  75
ENDBRANCH  47  72
ENDBRANCH  45  47
ENDBRANCH   1  43
BRANCH   1  90
ATOM     90  C16 non d ame     -34.843   6.007  27.630  0.00  0.00    -0.035 C 
ATOM     91  H21 non d ame     -35.719   6.441  28.110  0.00  0.00     0.037 H 
ATOM     92  H22 non d ame     -34.827   5.870  26.549  0.00  0.00     0.037 H 
BRANCH  90  93
ATOM     93  C17 non d ame     -34.655   4.589  28.257  0.00  0.00    -0.059 C 
ATOM     94  H23 non d ame     -35.630   4.247  28.601  0.00  0.00     0.038 H 
BRANCH  93  95
ATOM     95  C18 non d ame     -34.124   3.550  27.218  0.00  0.00    -0.073 C 
ATOM     96  H24 non d ame     -34.629   3.701  26.264  0.00  0.00     0.028 H 
ATOM     97  H25 non d ame     -33.051   3.686  27.085  0.00  0.00     0.028 H 
ATOM     98  H26 non d ame     -34.321   2.542  27.579  0.00  0.00     0.028 H 
ENDBRANCH  93  95
BRANCH  93  99
ATOM     99  C19 non d ame     -33.737   4.651  29.481  0.00  0.00    -0.073 C 
ATOM    100  H27 non d ame     -34.104   5.411  30.173  0.00  0.00     0.028 H 
ATOM    101  H28 non d ame     -33.730   3.681  29.980  0.00  0.00     0.028 H 
ATOM    102  H29 non d ame     -32.726   4.903  29.165  0.00  0.00     0.028 H 
ENDBRANCH  93  99
ENDBRANCH  90  93
ENDBRANCH   1  90
TORSDOF 26
ENDMDL
MODEL 9
REMARK VINA RESULT:      -6.8      2.482      7.012
REMARK  26 active torsions:
REMARK  status: ('A' for Active; 'I' for Inactive)
REMARK    1  A    between atoms: C2_2  and  C3_3 
REMARK    2  A    between atoms: C4_6  and  C5_7 
REMARK       I    between atoms: C5_7  and  N2_9 
REMARK    3  A    between atoms: N2_9  and  C6_10 
REMARK    4  A    between atoms: C6_10  and  C7_11 
REMARK    5  A    between atoms: C6_10  and  C8_13 
REMARK       I    between atoms: C7_11  and  N3_14 
REMARK    6  A    between atoms: N3_14  and  C9_15 
REMARK    7  A    between atoms: C9_15  and  C10_16 
REMARK    8  A    between atoms: C9_15  and  C11_18 
REMARK       I    between atoms: C10_16  and  N4_21 
REMARK    9  A    between atoms: C11_18  and  C12_19 
REMARK   10  A    between atoms: C11_18  and  C13_20 
REMARK   11  A    between atoms: N4_21  and  C14_22 
REMARK   12  A    between atoms: C14_22  and  C15_23 
REMARK   13  A    between atoms: C14_22  and  C16_25 
REMARK       I    between atoms: C15_23  and  N6_40 
REMARK   14  A    between atoms: C16_25  and  C17_26 
REMARK   15  A    between atoms: C17_26  and  C18_27 
REMARK   16  A    between atoms: C17_26  and  C19_28 
REMARK   17  A    between atoms: C20_29  and  C21_30 
REMARK   18  A    between atoms: C20_29  and  C24_33 
REMARK   19  A    between atoms: C20_29  and  N6_40 
REMARK   20  A    between atoms: C21_30  and  C22_31 
REMARK   21  A    between atoms: C22_31  and  C23_32 
REMARK   22  A    between atoms: C23_32  and  O8_43 
REMARK   23  A    between atoms: C24_33  and  C25_34 
REMARK   24  A    between atoms: C28_38  and  O6_39 
REMARK   25  A    between atoms: C29_42  and  O8_43 
REMARK   26  A    between atoms: C29_42  and  C35_49 
ROOT
ATOM      1  C14 non d ame     -32.464   9.425  24.523  0.00  0.00     0.089 C 
ATOM      2  H20 non d ame     -32.123   8.533  25.050  0.00  0.00     0.087 H 
ENDROOT
BRANCH   1   3
ATOM      3  N4  non d ame     -33.806   9.727  24.999  0.00  0.00    -0.346 N 
ATOM      4  C10 non d ame     -34.692   8.628  25.529  0.00  0.00     0.241 C 
ATOM      5  O4  non d ame     -34.305   7.507  25.559  0.00  0.00    -0.271 OA
ATOM      6  H19 non d ame     -34.117  10.688  24.963  0.00  0.00     0.163 HD
BRANCH   4   7
ATOM      7  C9  non d ame     -36.075   8.960  26.023  0.00  0.00     0.092 C 
ATOM      8  H11 non d ame     -36.620   8.035  26.213  0.00  0.00     0.088 H 
BRANCH   7   9
ATOM      9  N3  non d ame     -35.981   9.678  27.296  0.00  0.00    -0.346 N 
ATOM     10  C7  non d ame     -36.166   8.969  28.539  0.00  0.00     0.240 C 
ATOM     11  O3  non d ame     -36.394   7.821  28.531  0.00  0.00    -0.271 OA
ATOM     12  H10 non d ame     -35.787  10.669  27.319  0.00  0.00     0.163 HD
BRANCH  10  13
ATOM     13  C6  non d ame     -36.068   9.740  29.892  0.00  0.00     0.086 C 
ATOM     14  H6  non d ame     -35.815   9.090  30.730  0.00  0.00     0.086 H 
BRANCH  13  15
ATOM     15  N2  non d ame     -35.004  10.726  29.796  0.00  0.00    -0.343 N 
ATOM     16  C5  non d ame     -33.777  10.542  30.574  0.00  0.00     0.273 C 
ATOM     17  O2  non d ame     -33.656   9.599  31.276  0.00  0.00    -0.266 OA
ATOM     18  H5  non d ame     -35.117  11.531  29.197  0.00  0.00     0.163 HD
BRANCH  16  19
ATOM     19  C4  non d ame     -32.644  11.576  30.481  0.00  0.00     0.154 A 
ATOM     20  C1  non d ame     -32.721  12.896  29.933  0.00  0.00    -0.017 A 
ATOM     21  C2  non d ame     -31.422  13.429  30.086  0.00  0.00     0.077 A 
ATOM     22  H1  non d ame     -33.585  13.390  29.491  0.00  0.00     0.091 H 
ATOM     23  O1  non d ame     -30.693  12.516  30.659  0.00  0.00    -0.218 OA
ATOM     24  N1  non d ame     -31.384  11.425  30.898  0.00  0.00    -0.123 NA
BRANCH  21  25
ATOM     25  C3  non d ame     -30.961  14.817  29.662  0.00  0.00    -0.029 C 
ATOM     26  H2  non d ame     -30.202  15.177  30.356  0.00  0.00     0.036 H 
ATOM     27  H3  non d ame     -30.540  14.769  28.658  0.00  0.00     0.036 H 
ATOM     28  H4  non d ame     -31.810  15.499  29.667  0.00  0.00     0.036 H 
ENDBRANCH  21  25
ENDBRANCH  16  19
ENDBRANCH  13  15
BRANCH  13  29
ATOM     29  C8  non d ame     -37.380  10.422  30.182  0.00  0.00    -0.049 C 
ATOM     30  H7  non d ame     -37.231  11.190  30.941  0.00  0.00     0.030 H 
ATOM     31  H8  non d ame     -37.759  10.883  29.269  0.00  0.00     0.030 H 
ATOM     32  H9  non d ame     -38.100   9.688  30.544  0.00  0.00     0.030 H 
ENDBRANCH  13  29
ENDBRANCH  10  13
ENDBRANCH   7   9
BRANCH   7  33
ATOM     33  C11 non d ame     -36.797   9.858  24.976  0.00  0.00    -0.033 C 
ATOM     34  H12 non d ame     -36.069  10.114  24.205  0.00  0.00     0.042 H 
BRANCH  33  35
ATOM     35  C12 non d ame     -37.967   9.094  24.281  0.00  0.00    -0.071 C 
ATOM     36  H13 non d ame     -37.848   9.153  23.199  0.00  0.00     0.028 H 
ATOM     37  H14 non d ame     -37.954   8.050  24.591  0.00  0.00     0.028 H 
ATOM     38  H15 non d ame     -38.917   9.547  24.566  0.00  0.00     0.028 H 
ENDBRANCH  33  35
BRANCH  33  39
ATOM     39  C13 non d ame     -37.297  11.187  25.629  0.00  0.00    -0.071 C 
ATOM     40  H16 non d ame     -36.557  11.540  26.347  0.00  0.00     0.028 H 
ATOM     41  H17 non d ame     -37.441  11.941  24.854  0.00  0.00     0.028 H 
ATOM     42  H18 non d ame     -38.243  11.008  26.139  0.00  0.00     0.028 H 
ENDBRANCH  33  39
ENDBRANCH   7  33
ENDBRANCH   4   7
ENDBRANCH   1   3
BRANCH   1  43
ATOM     43  C15 non d ame     -31.552  10.655  24.798  0.00  0.00     0.240 C 
ATOM     44  O5  non d ame     -30.767  10.621  25.689  0.00  0.00    -0.271 OA
ATOM     45  N6  non d ame     -31.651  11.872  23.943  0.00  0.00    -0.355 N 
ATOM     46  H46 non d ame     -32.312  11.910  23.180  0.00  0.00     0.162 HD
BRANCH  45  47
ATOM     47  C20 non d ame     -30.776  13.033  24.215  0.00  0.00     0.013 C 
ATOM     48  H30 non d ame     -30.050  12.735  24.972  0.00  0.00     0.072 H 
BRANCH  47  49
ATOM     49  C21 non d ame     -31.615  14.182  24.727  0.00  0.00    -0.038 C 
ATOM     50  H31 non d ame     -30.958  15.054  24.717  0.00  0.00     0.036 H 
ATOM     51  H32 non d ame     -32.521  14.176  24.123  0.00  0.00     0.036 H 
BRANCH  49  52
ATOM     52  C22 non d ame     -32.063  13.991  26.192  0.00  0.00     0.018 C 
ATOM     53  H33 non d ame     -31.544  13.103  26.546  0.00  0.00     0.048 H 
ATOM     54  H34 non d ame     -31.893  14.953  26.679  0.00  0.00     0.048 H 
BRANCH  52  55
ATOM     55  C23 non d ame     -33.580  13.694  26.349  0.00  0.00     0.259 C 
ATOM     56  O7  non d ame     -33.988  12.581  26.263  0.00  0.00    -0.265 OA
BRANCH  55  57
ATOM     57  O8  non d ame     -34.481  14.770  26.583  0.00  0.00    -0.317 OA
BRANCH  57  58
ATOM     58  C29 non d ame     -34.177  15.539  27.750  0.00  0.00     0.052 C 
ATOM     59  H47 non d ame     -35.122  15.652  28.282  0.00  0.00     0.082 H 
ATOM     60  H48 non d ame     -33.339  15.033  28.228  0.00  0.00     0.082 H 
BRANCH  58  61
ATOM     61  C35 non d ame     -33.704  16.944  27.288  0.00  0.00    -0.034 A 
ATOM     62  C30 non d ame     -34.054  17.417  26.028  0.00  0.00    -0.075 A 
ATOM     63  C31 non d ame     -33.628  18.678  25.613  0.00  0.00    -0.082 A 
ATOM     64  H49 non d ame     -34.660  16.800  25.365  0.00  0.00     0.084 H 
ATOM     65  C32 non d ame     -32.848  19.466  26.463  0.00  0.00    -0.083 A 
ATOM     66  H50 non d ame     -33.905  19.047  24.625  0.00  0.00     0.083 H 
ATOM     67  C33 non d ame     -32.499  18.988  27.719  0.00  0.00    -0.082 A 
ATOM     68  H51 non d ame     -32.512  20.454  26.147  0.00  0.00     0.083 H 
ATOM     69  C34 non d ame     -32.924  17.729  28.138  0.00  0.00    -0.075 A 
ATOM     70  H52 non d ame     -31.888  19.604  28.380  0.00  0.00     0.083 H 
ATOM     71  H53 non d ame     -32.646  17.362  29.127  0.00  0.00     0.084 H 
ENDBRANCH  58  61
ENDBRANCH  57  58
ENDBRANCH  55  57
ENDBRANCH  52  55
ENDBRANCH  49  52
ENDBRANCH  47  49
BRANCH  47  72
ATOM     72  C24 non d ame     -30.062  13.454  22.933  0.00  0.00    -0.039 C 
ATOM     73  H35 non d ame     -29.010  13.212  23.095  0.00  0.00     0.036 H 
ATOM     74  H36 non d ame     -30.612  12.974  22.124  0.00  0.00     0.036 H 
BRANCH  72  75
ATOM     75  C25 non d ame     -30.153  15.035  22.694  0.00  0.00    -0.001 C 
ATOM     76  C26 non d ame     -31.140  15.351  21.418  0.00  0.00    -0.035 C 
ATOM     77  C27 non d ame     -30.492  16.174  20.559  0.00  0.00     0.085 C 
ATOM     78  H38 non d ame     -31.299  14.445  20.834  0.00  0.00     0.036 H 
ATOM     79  H39 non d ame     -31.994  15.946  21.744  0.00  0.00     0.036 H 
ATOM     80  N5  non d ame     -29.039  16.183  20.968  0.00  0.00    -0.049 N 
ATOM     81  H40 non d ame     -30.582  15.702  19.580  0.00  0.00     0.075 H 
ATOM     82  H41 non d ame     -30.914  17.164  20.728  0.00  0.00     0.075 H 
ATOM     83  C28 non d ame     -28.990  15.539  22.447  0.00  0.00     0.193 C 
ATOM     84  H42 non d ame     -28.558  15.563  20.331  0.00  0.00     0.280 HD
ATOM     85  H43 non d ame     -28.766  17.154  21.030  0.00  0.00     0.280 HD
ATOM     86  H44 non d ame     -28.859  16.173  23.323  0.00  0.00     0.129 H 
ATOM     87  H37 non d ame     -30.345  15.581  23.617  0.00  0.00     0.046 H 
BRANCH  83  88
ATOM     88  O6  non d ame     -27.951  14.560  22.525  0.00  0.00    -0.369 OA
ATOM     89  H45 non d ame     -28.319  13.689  22.364  0.00  0.00     0.212 HD
ENDBRANCH  83  88
ENDBRANCH  72  75
ENDBRANCH  47  72
ENDBRANCH  45  47
ENDBRANCH   1  43
BRANCH   1  90
ATOM     90  C16 non d ame     -32.518   9.152  23.029  0.00  0.00    -0.035 C 
ATOM     91  H21 non d ame     -33.554   9.327  22.740  0.00  0.00     0.037 H 
ATOM     92  H22 non d ame     -31.722   9.757  22.596  0.00  0.00     0.037 H 
BRANCH  90  93
ATOM     93  C17 non d ame     -32.200   7.670  22.651  0.00  0.00    -0.059 C 
ATOM     94  H23 non d ame     -32.860   7.030  23.236  0.00  0.00     0.038 H 
BRANCH  93  95
ATOM     95  C18 non d ame     -32.468   7.377  21.140  0.00  0.00    -0.073 C 
ATOM     96  H24 non d ame     -32.825   6.354  21.025  0.00  0.00     0.028 H 
ATOM     97  H25 non d ame     -33.224   8.068  20.764  0.00  0.00     0.028 H 
ATOM     98  H26 non d ame     -31.545   7.506  20.575  0.00  0.00     0.028 H 
ENDBRANCH  93  95
BRANCH  93  99
ATOM     99  C19 non d ame     -30.762   7.306  23.029  0.00  0.00    -0.073 C 
ATOM    100  H27 non d ame     -30.582   7.570  24.071  0.00  0.00     0.028 H 
ATOM    101  H28 non d ame     -30.611   6.234  22.896  0.00  0.00     0.028 H 
ATOM    102  H29 non d ame     -30.069   7.851  22.390  0.00  0.00     0.028 H 
ENDBRANCH  93  99
ENDBRANCH  90  93
ENDBRANCH   1  90
TORSDOF 26
ENDMDL
MODEL 10
REMARK VINA RESULT:      -6.8      2.558      7.574
REMARK  26 active torsions:
REMARK  status: ('A' for Active; 'I' for Inactive)
REMARK    1  A    between atoms: C2_2  and  C3_3 
REMARK    2  A    between atoms: C4_6  and  C5_7 
REMARK       I    between atoms: C5_7  and  N2_9 
REMARK    3  A    between atoms: N2_9  and  C6_10 
REMARK    4  A    between atoms: C6_10  and  C7_11 
REMARK    5  A    between atoms: C6_10  and  C8_13 
REMARK       I    between atoms: C7_11  and  N3_14 
REMARK    6  A    between atoms: N3_14  and  C9_15 
REMARK    7  A    between atoms: C9_15  and  C10_16 
REMARK    8  A    between atoms: C9_15  and  C11_18 
REMARK       I    between atoms: C10_16  and  N4_21 
REMARK    9  A    between atoms: C11_18  and  C12_19 
REMARK   10  A    between atoms: C11_18  and  C13_20 
REMARK   11  A    between atoms: N4_21  and  C14_22 
REMARK   12  A    between atoms: C14_22  and  C15_23 
REMARK   13  A    between atoms: C14_22  and  C16_25 
REMARK       I    between atoms: C15_23  and  N6_40 
REMARK   14  A    between atoms: C16_25  and  C17_26 
REMARK   15  A    between atoms: C17_26  and  C18_27 
REMARK   16  A    between atoms: C17_26  and  C19_28 
REMARK   17  A    between atoms: C20_29  and  C21_30 
REMARK   18  A    between atoms: C20_29  and  C24_33 
REMARK   19  A    between atoms: C20_29  and  N6_40 
REMARK   20  A    between atoms: C21_30  and  C22_31 
REMARK   21  A    between atoms: C22_31  and  C23_32 
REMARK   22  A    between atoms: C23_32  and  O8_43 
REMARK   23  A    between atoms: C24_33  and  C25_34 
REMARK   24  A    between atoms: C28_38  and  O6_39 
REMARK   25  A    between atoms: C29_42  and  O8_43 
REMARK   26  A    between atoms: C29_42  and  C35_49 
ROOT
ATOM      1  C14 non d ame     -31.511  14.891  24.264  0.00  0.00     0.089 C 
ATOM      2  H20 non d ame     -32.407  14.957  23.646  0.00  0.00     0.087 H 
ENDROOT
BRANCH   1   3
ATOM      3  N4  non d ame     -31.730  15.717  25.442  0.00  0.00    -0.346 N 
ATOM      4  C10 non d ame     -33.068  16.372  25.675  0.00  0.00     0.241 C 
ATOM      5  O4  non d ame     -33.953  16.222  24.899  0.00  0.00    -0.271 OA
ATOM      6  H19 non d ame     -30.963  15.833  26.089  0.00  0.00     0.163 HD
BRANCH   4   7
ATOM      7  C9  non d ame     -33.278  17.218  26.903  0.00  0.00     0.092 C 
ATOM      8  H11 non d ame     -34.348  17.321  27.089  0.00  0.00     0.088 H 
BRANCH   7   9
ATOM      9  N3  non d ame     -32.698  16.544  28.067  0.00  0.00    -0.346 N 
ATOM     10  C7  non d ame     -33.012  15.161  28.330  0.00  0.00     0.240 C 
ATOM     11  O3  non d ame     -33.730  14.576  27.614  0.00  0.00    -0.271 OA
ATOM     12  H10 non d ame     -32.078  17.035  28.694  0.00  0.00     0.163 HD
BRANCH  10  13
ATOM     13  C6  non d ame     -32.393  14.449  29.573  0.00  0.00     0.086 C 
ATOM     14  H6  non d ame     -32.396  15.077  30.463  0.00  0.00     0.086 H 
BRANCH  13  15
ATOM     15  N2  non d ame     -33.192  13.276  29.889  0.00  0.00    -0.343 N 
ATOM     16  C5  non d ame     -32.631  12.232  30.751  0.00  0.00     0.273 C 
ATOM     17  O2  non d ame     -31.536  12.345  31.181  0.00  0.00    -0.266 OA
ATOM     18  H5  non d ame     -34.125  13.186  29.514  0.00  0.00     0.163 HD
BRANCH  16  19
ATOM     19  C4  non d ame     -33.464  10.988  31.094  0.00  0.00     0.154 A 
ATOM     20  C1  non d ame     -33.651   9.822  30.287  0.00  0.00    -0.017 A 
ATOM     21  C2  non d ame     -34.493   8.982  31.050  0.00  0.00     0.077 A 
ATOM     22  H1  non d ame     -33.240   9.617  29.298  0.00  0.00     0.091 H 
ATOM     23  O1  non d ame     -34.751   9.602  32.164  0.00  0.00    -0.218 OA
ATOM     24  N1  non d ame     -34.162  10.775  32.213  0.00  0.00    -0.123 NA
BRANCH  21  25
ATOM     25  C3  non d ame     -35.002   7.606  30.642  0.00  0.00    -0.029 C 
ATOM     26  H2  non d ame     -36.069   7.535  30.855  0.00  0.00     0.036 H 
ATOM     27  H3  non d ame     -34.834   7.457  29.576  0.00  0.00     0.036 H 
ATOM     28  H4  non d ame     -34.469   6.840  31.204  0.00  0.00     0.036 H 
ENDBRANCH  21  25
ENDBRANCH  16  19
ENDBRANCH  13  15
BRANCH  13  29
ATOM     29  C8  non d ame     -30.974  14.040  29.268  0.00  0.00    -0.049 C 
ATOM     30  H7  non d ame     -30.940  12.971  29.059  0.00  0.00     0.030 H 
ATOM     31  H8  non d ame     -30.618  14.591  28.397  0.00  0.00     0.030 H 
ATOM     32  H9  non d ame     -30.339  14.264  30.125  0.00  0.00     0.030 H 
ENDBRANCH  13  29
ENDBRANCH  10  13
ENDBRANCH   7   9
BRANCH   7  33
ATOM     33  C11 non d ame     -32.585  18.597  26.706  0.00  0.00    -0.033 C 
ATOM     34  H12 non d ame     -31.566  18.407  26.367  0.00  0.00     0.042 H 
BRANCH  33  35
ATOM     35  C12 non d ame     -33.296  19.441  25.602  0.00  0.00    -0.071 C 
ATOM     36  H13 non d ame     -33.403  18.841  24.699  0.00  0.00     0.028 H 
ATOM     37  H14 non d ame     -34.281  19.744  25.956  0.00  0.00     0.028 H 
ATOM     38  H15 non d ame     -32.701  20.327  25.381  0.00  0.00     0.028 H 
ENDBRANCH  33  35
BRANCH  33  39
ATOM     39  C13 non d ame     -32.506  19.382  28.055  0.00  0.00    -0.071 C 
ATOM     40  H16 non d ame     -32.300  20.433  27.853  0.00  0.00     0.028 H 
ATOM     41  H17 non d ame     -33.455  19.292  28.585  0.00  0.00     0.028 H 
ATOM     42  H18 non d ame     -31.708  18.967  28.670  0.00  0.00     0.028 H 
ENDBRANCH  33  39
ENDBRANCH   7  33
ENDBRANCH   4   7
ENDBRANCH   1   3
BRANCH   1  43
ATOM     43  C15 non d ame     -31.222  13.434  24.726  0.00  0.00     0.240 C 
ATOM     44  O5  non d ame     -30.823  13.232  25.828  0.00  0.00    -0.271 OA
ATOM     45  N6  non d ame     -31.451  12.290  23.800  0.00  0.00    -0.355 N 
ATOM     46  H46 non d ame     -31.795  12.449  22.863  0.00  0.00     0.162 HD
BRANCH  45  47
ATOM     47  C20 non d ame     -31.173  10.910  24.255  0.00  0.00     0.013 C 
ATOM     48  H30 non d ame     -31.056  10.932  25.339  0.00  0.00     0.072 H 
BRANCH  47  49
ATOM     49  C21 non d ame     -29.899  10.417  23.608  0.00  0.00    -0.038 C 
ATOM     50  H31 non d ame     -29.378  11.312  23.264  0.00  0.00     0.036 H 
ATOM     51  H32 non d ame     -29.431   9.761  24.341  0.00  0.00     0.036 H 
BRANCH  49  52
ATOM     52  C22 non d ame     -30.158   9.555  22.354  0.00  0.00     0.018 C 
ATOM     53  H33 non d ame     -31.185   9.204  22.443  0.00  0.00     0.048 H 
ATOM     54  H34 non d ame     -29.867  10.176  21.505  0.00  0.00     0.048 H 
BRANCH  52  55
ATOM     55  C23 non d ame     -29.274   8.280  22.276  0.00  0.00     0.259 C 
ATOM     56  O7  non d ame     -28.124   8.360  21.987  0.00  0.00    -0.265 OA
BRANCH  55  57
ATOM     57  O8  non d ame     -29.858   7.010  22.539  0.00  0.00    -0.317 OA
BRANCH  57  58
ATOM     58  C29 non d ame     -31.226   6.904  22.134  0.00  0.00     0.052 C 
ATOM     59  H47 non d ame     -31.562   7.926  21.961  0.00  0.00     0.082 H 
ATOM     60  H48 non d ame     -31.238   6.179  21.320  0.00  0.00     0.082 H 
BRANCH  58  61
ATOM     61  C35 non d ame     -32.033   6.318  23.324  0.00  0.00    -0.034 A 
ATOM     62  C30 non d ame     -33.271   5.723  23.100  0.00  0.00    -0.075 A 
ATOM     63  C31 non d ame     -33.996   5.197  24.169  0.00  0.00    -0.082 A 
ATOM     64  H49 non d ame     -33.673   5.669  22.088  0.00  0.00     0.084 H 
ATOM     65  C32 non d ame     -33.480   5.269  25.465  0.00  0.00    -0.083 A 
ATOM     66  H50 non d ame     -34.965   4.730  23.989  0.00  0.00     0.083 H 
ATOM     67  C33 non d ame     -32.246   5.867  25.684  0.00  0.00    -0.082 A 
ATOM     68  H51 non d ame     -34.040   4.860  26.305  0.00  0.00     0.083 H 
ATOM     69  C34 non d ame     -31.517   6.392  24.619  0.00  0.00    -0.075 A 
ATOM     70  H52 non d ame     -31.847   5.924  26.697  0.00  0.00     0.083 H 
ATOM     71  H53 non d ame     -30.548   6.859  24.799  0.00  0.00     0.084 H 
ENDBRANCH  58  61
ENDBRANCH  57  58
ENDBRANCH  55  57
ENDBRANCH  52  55
ENDBRANCH  49  52
ENDBRANCH  47  49
BRANCH  47  72
ATOM     72  C24 non d ame     -32.332   9.994  23.865  0.00  0.00    -0.039 C 
ATOM     73  H35 non d ame     -32.629  10.313  22.865  0.00  0.00     0.036 H 
ATOM     74  H36 non d ame     -31.966   8.980  24.028  0.00  0.00     0.036 H 
BRANCH  72  75
ATOM     75  C25 non d ame     -33.598  10.199  24.824  0.00  0.00    -0.001 C 
ATOM     76  C26 non d ame     -33.331   9.463  26.269  0.00  0.00    -0.035 C 
ATOM     77  C27 non d ame     -34.387   8.663  26.553  0.00  0.00     0.085 C 
ATOM     78  H38 non d ame     -32.498   8.765  26.185  0.00  0.00     0.036 H 
ATOM     79  H39 non d ame     -33.347  10.199  27.072  0.00  0.00     0.036 H 
ATOM     80  N5  non d ame     -35.196   8.533  25.285  0.00  0.00    -0.049 N 
ATOM     81  H40 non d ame     -33.959   7.691  26.802  0.00  0.00     0.075 H 
ATOM     82  H41 non d ame     -34.973   9.206  27.294  0.00  0.00     0.075 H 
ATOM     83  C28 non d ame     -34.668   9.698  24.300  0.00  0.00     0.193 C 
ATOM     84  H42 non d ame     -34.958   7.638  24.883  0.00  0.00     0.280 HD
ATOM     85  H43 non d ame     -36.154   8.735  25.536  0.00  0.00     0.280 HD
ATOM     86  H44 non d ame     -35.255  10.602  24.145  0.00  0.00     0.129 H 
ATOM     87  H37 non d ame     -33.933  11.236  24.850  0.00  0.00     0.046 H 
BRANCH  83  88
ATOM     88  O6  non d ame     -34.430   9.168  22.994  0.00  0.00    -0.369 OA
ATOM     89  H45 non d ame     -33.735   9.673  22.565  0.00  0.00     0.212 HD
ENDBRANCH  83  88
ENDBRANCH  72  75
ENDBRANCH  47  72
ENDBRANCH  45  47
ENDBRANCH   1  43
BRANCH   1  90
ATOM     90  C16 non d ame     -30.315  15.430  23.495  0.00  0.00    -0.035 C 
ATOM     91  H21 non d ame     -30.528  16.486  23.333  0.00  0.00     0.037 H 
ATOM     92  H22 non d ame     -29.442  15.134  24.076  0.00  0.00     0.037 H 
BRANCH  90  93
ATOM     93  C17 non d ame     -30.140  14.794  22.080  0.00  0.00    -0.059 C 
ATOM     94  H23 non d ame     -30.983  14.124  21.911  0.00  0.00     0.038 H 
BRANCH  93  95
ATOM     95  C18 non d ame     -30.149  15.868  20.946  0.00  0.00    -0.073 C 
ATOM     96  H24 non d ame     -30.068  16.862  21.386  0.00  0.00     0.028 H 
ATOM     97  H25 non d ame     -29.305  15.697  20.277  0.00  0.00     0.028 H 
ATOM     98  H26 non d ame     -31.079  15.794  20.382  0.00  0.00     0.028 H 
ENDBRANCH  93  95
BRANCH  93  99
ATOM     99  C19 non d ame     -28.867  13.945  22.016  0.00  0.00    -0.073 C 
ATOM    100  H27 non d ame     -28.073  14.517  21.534  0.00  0.00     0.028 H 
ATOM    101  H28 non d ame     -28.558  13.676  23.026  0.00  0.00     0.028 H 
ATOM    102  H29 non d ame     -29.062  13.040  21.443  0.00  0.00     0.028 H 
ENDBRANCH  93  99
ENDBRANCH  90  93
ENDBRANCH   1  90
TORSDOF 26
ENDMDL
MODEL 11
REMARK VINA RESULT:      -6.8      2.849      6.759
REMARK  26 active torsions:
REMARK  status: ('A' for Active; 'I' for Inactive)
REMARK    1  A    between atoms: C2_2  and  C3_3 
REMARK    2  A    between atoms: C4_6  and  C5_7 
REMARK       I    between atoms: C5_7  and  N2_9 
REMARK    3  A    between atoms: N2_9  and  C6_10 
REMARK    4  A    between atoms: C6_10  and  C7_11 
REMARK    5  A    between atoms: C6_10  and  C8_13 
REMARK       I    between atoms: C7_11  and  N3_14 
REMARK    6  A    between atoms: N3_14  and  C9_15 
REMARK    7  A    between atoms: C9_15  and  C10_16 
REMARK    8  A    between atoms: C9_15  and  C11_18 
REMARK       I    between atoms: C10_16  and  N4_21 
REMARK    9  A    between atoms: C11_18  and  C12_19 
REMARK   10  A    between atoms: C11_18  and  C13_20 
REMARK   11  A    between atoms: N4_21  and  C14_22 
REMARK   12  A    between atoms: C14_22  and  C15_23 
REMARK   13  A    between atoms: C14_22  and  C16_25 
REMARK       I    between atoms: C15_23  and  N6_40 
REMARK   14  A    between atoms: C16_25  and  C17_26 
REMARK   15  A    between atoms: C17_26  and  C18_27 
REMARK   16  A    between atoms: C17_26  and  C19_28 
REMARK   17  A    between atoms: C20_29  and  C21_30 
REMARK   18  A    between atoms: C20_29  and  C24_33 
REMARK   19  A    between atoms: C20_29  and  N6_40 
REMARK   20  A    between atoms: C21_30  and  C22_31 
REMARK   21  A    between atoms: C22_31  and  C23_32 
REMARK   22  A    between atoms: C23_32  and  O8_43 
REMARK   23  A    between atoms: C24_33  and  C25_34 
REMARK   24  A    between atoms: C28_38  and  O6_39 
REMARK   25  A    between atoms: C29_42  and  O8_43 
REMARK   26  A    between atoms: C29_42  and  C35_49 
ROOT
ATOM      1  C14 non d ame     -32.897   9.922  25.272  0.00  0.00     0.089 C 
ATOM      2  H20 non d ame     -33.104   9.558  26.279  0.00  0.00     0.087 H 
ENDROOT
BRANCH   1   3
ATOM      3  N4  non d ame     -34.116  10.538  24.769  0.00  0.00    -0.346 N 
ATOM      4  C10 non d ame     -35.360  10.571  25.621  0.00  0.00     0.241 C 
ATOM      5  O4  non d ame     -35.357  10.092  26.707  0.00  0.00    -0.271 OA
ATOM      6  H19 non d ame     -34.098  10.938  23.842  0.00  0.00     0.163 HD
BRANCH   4   7
ATOM      7  C9  non d ame     -36.610  11.219  25.087  0.00  0.00     0.092 C 
ATOM      8  H11 non d ame     -37.370  11.233  25.870  0.00  0.00     0.088 H 
BRANCH   7   9
ATOM      9  N3  non d ame     -36.327  12.612  24.733  0.00  0.00    -0.346 N 
ATOM     10  C7  non d ame     -36.590  13.665  25.682  0.00  0.00     0.240 C 
ATOM     11  O3  non d ame     -37.031  13.409  26.736  0.00  0.00    -0.271 OA
ATOM     12  H10 non d ame     -35.949  12.849  23.827  0.00  0.00     0.163 HD
BRANCH  10  13
ATOM     13  C6  non d ame     -36.289  15.147  25.298  0.00  0.00     0.086 C 
ATOM     14  H6  non d ame     -37.038  15.569  24.628  0.00  0.00     0.086 H 
BRANCH  13  15
ATOM     15  N2  non d ame     -36.305  15.959  26.504  0.00  0.00    -0.343 N 
ATOM     16  C5  non d ame     -36.796  17.338  26.439  0.00  0.00     0.273 C 
ATOM     17  O2  non d ame     -37.173  17.784  25.412  0.00  0.00    -0.266 OA
ATOM     18  H5  non d ame     -35.977  15.570  27.376  0.00  0.00     0.163 HD
BRANCH  16  19
ATOM     19  C4  non d ame     -36.820  18.206  27.706  0.00  0.00     0.154 A 
ATOM     20  C1  non d ame     -37.569  19.407  27.918  0.00  0.00    -0.017 A 
ATOM     21  C2  non d ame     -37.244  19.812  29.232  0.00  0.00     0.077 A 
ATOM     22  H1  non d ame     -38.244  19.909  27.225  0.00  0.00     0.091 H 
ATOM     23  O1  non d ame     -36.408  18.937  29.711  0.00  0.00    -0.218 OA
ATOM     24  N1  non d ame     -36.145  17.991  28.839  0.00  0.00    -0.123 NA
BRANCH  21  25
ATOM     25  C3  non d ame     -37.776  21.042  29.954  0.00  0.00    -0.029 C 
ATOM     26  H2  non d ame     -37.633  20.924  31.028  0.00  0.00     0.036 H 
ATOM     27  H3  non d ame     -37.236  21.926  29.611  0.00  0.00     0.036 H 
ATOM     28  H4  non d ame     -38.837  21.159  29.740  0.00  0.00     0.036 H 
ENDBRANCH  21  25
ENDBRANCH  16  19
ENDBRANCH  13  15
BRANCH  13  29
ATOM     29  C8  non d ame     -34.937  15.233  24.636  0.00  0.00    -0.049 C 
ATOM     30  H7  non d ame     -34.301  14.428  25.002  0.00  0.00     0.030 H 
ATOM     31  H8  non d ame     -35.056  15.139  23.556  0.00  0.00     0.030 H 
ATOM     32  H9  non d ame     -34.479  16.194  24.869  0.00  0.00     0.030 H 
ENDBRANCH  13  29
ENDBRANCH  10  13
ENDBRANCH   7   9
BRANCH   7  33
ATOM     33  C11 non d ame     -37.091  10.451  23.821  0.00  0.00    -0.033 C 
ATOM     34  H12 non d ame     -36.240  10.367  23.145  0.00  0.00     0.042 H 
BRANCH  33  35
ATOM     35  C12 non d ame     -37.553   9.003  24.175  0.00  0.00    -0.071 C 
ATOM     36  H13 non d ame     -38.626   8.912  24.003  0.00  0.00     0.028 H 
ATOM     37  H14 non d ame     -37.023   8.289  23.545  0.00  0.00     0.028 H 
ATOM     38  H15 non d ame     -37.335   8.797  25.222  0.00  0.00     0.028 H 
ENDBRANCH  33  35
BRANCH  33  39
ATOM     39  C13 non d ame     -38.218  11.241  23.082  0.00  0.00    -0.071 C 
ATOM     40  H16 non d ame     -37.953  12.298  23.039  0.00  0.00     0.028 H 
ATOM     41  H17 non d ame     -38.332  10.852  22.070  0.00  0.00     0.028 H 
ATOM     42  H18 non d ame     -39.158  11.124  23.622  0.00  0.00     0.028 H 
ENDBRANCH  33  39
ENDBRANCH   7  33
ENDBRANCH   4   7
ENDBRANCH   1   3
BRANCH   1  43
ATOM     43  C15 non d ame     -31.761  10.984  25.252  0.00  0.00     0.240 C 
ATOM     44  O5  non d ame     -30.731  10.758  25.802  0.00  0.00    -0.271 OA
ATOM     45  N6  non d ame     -31.951  12.279  24.540  0.00  0.00    -0.355 N 
ATOM     46  H46 non d ame     -32.820  12.480  24.065  0.00  0.00     0.162 HD
BRANCH  45  47
ATOM     47  C20 non d ame     -30.861  13.278  24.529  0.00  0.00     0.013 C 
ATOM     48  H30 non d ame     -30.025  12.868  25.097  0.00  0.00     0.072 H 
BRANCH  47  49
ATOM     49  C21 non d ame     -31.347  14.556  25.174  0.00  0.00    -0.038 C 
ATOM     50  H31 non d ame     -30.595  15.310  24.937  0.00  0.00     0.036 H 
ATOM     51  H32 non d ame     -32.374  14.685  24.835  0.00  0.00     0.036 H 
BRANCH  49  52
ATOM     52  C22 non d ame     -31.403  14.466  26.714  0.00  0.00     0.018 C 
ATOM     53  H33 non d ame     -30.879  13.548  26.976  0.00  0.00     0.048 H 
ATOM     54  H34 non d ame     -31.035  15.426  27.079  0.00  0.00     0.048 H 
BRANCH  52  55
ATOM     55  C23 non d ame     -32.842  14.316  27.281  0.00  0.00     0.259 C 
ATOM     56  O7  non d ame     -33.401  13.269  27.238  0.00  0.00    -0.265 OA
BRANCH  55  57
ATOM     57  O8  non d ame     -33.492  15.451  27.841  0.00  0.00    -0.317 OA
BRANCH  57  58
ATOM     58  C29 non d ame     -32.596  16.425  28.386  0.00  0.00     0.052 C 
ATOM     59  H47 non d ame     -32.907  16.564  29.421  0.00  0.00     0.082 H 
ATOM     60  H48 non d ame     -31.593  16.061  28.162  0.00  0.00     0.082 H 
BRANCH  58  61
ATOM     61  C35 non d ame     -32.816  17.759  27.623  0.00  0.00    -0.034 A 
ATOM     62  C30 non d ame     -33.098  17.743  26.261  0.00  0.00    -0.075 A 
ATOM     63  C31 non d ame     -33.296  18.942  25.575  0.00  0.00    -0.082 A 
ATOM     64  H49 non d ame     -33.164  16.794  25.730  0.00  0.00     0.084 H 
ATOM     65  C32 non d ame     -33.208  20.158  26.257  0.00  0.00    -0.083 A 
ATOM     66  H50 non d ame     -33.518  18.926  24.508  0.00  0.00     0.083 H 
ATOM     67  C33 non d ame     -32.923  20.168  27.616  0.00  0.00    -0.082 A 
ATOM     68  H51 non d ame     -33.362  21.099  25.729  0.00  0.00     0.083 H 
ATOM     69  C34 non d ame     -32.727  18.973  28.305  0.00  0.00    -0.075 A 
ATOM     70  H52 non d ame     -32.853  21.119  28.145  0.00  0.00     0.083 H 
ATOM     71  H53 non d ame     -32.505  18.990  29.372  0.00  0.00     0.084 H 
ENDBRANCH  58  61
ENDBRANCH  57  58
ENDBRANCH  55  57
ENDBRANCH  52  55
ENDBRANCH  49  52
ENDBRANCH  47  49
BRANCH  47  72
ATOM     72  C24 non d ame     -30.435  13.563  23.090  0.00  0.00    -0.039 C 
ATOM     73  H35 non d ame     -29.457  13.092  22.979  0.00  0.00     0.036 H 
ATOM     74  H36 non d ame     -31.270  13.236  22.471  0.00  0.00     0.036 H 
BRANCH  72  75
ATOM     75  C25 non d ame     -30.238  15.131  22.829  0.00  0.00    -0.001 C 
ATOM     76  C26 non d ame     -31.308  15.648  21.693  0.00  0.00    -0.035 C 
ATOM     77  C27 non d ame     -30.633  16.325  20.734  0.00  0.00     0.085 C 
ATOM     78  H38 non d ame     -31.726  14.796  21.158  0.00  0.00     0.036 H 
ATOM     79  H39 non d ame     -31.970  16.402  22.120  0.00  0.00     0.036 H 
ATOM     80  N5  non d ame     -29.166  16.036  20.939  0.00  0.00    -0.049 N 
ATOM     81  H40 non d ame     -30.952  15.886  19.788  0.00  0.00     0.075 H 
ATOM     82  H41 non d ame     -30.819  17.380  20.936  0.00  0.00     0.075 H 
ATOM     83  C28 non d ame     -29.042  15.389  22.413  0.00  0.00     0.193 C 
ATOM     84  H42 non d ame     -28.913  15.335  20.258  0.00  0.00     0.280 HD
ATOM     85  H43 non d ame     -28.696  16.931  20.941  0.00  0.00     0.280 HD
ATOM     86  H44 non d ame     -28.665  15.978  23.247  0.00  0.00     0.129 H 
ATOM     87  H37 non d ame     -30.184  15.700  23.757  0.00  0.00     0.046 H 
BRANCH  83  88
ATOM     88  O6  non d ame     -28.222  14.219  22.370  0.00  0.00    -0.369 OA
ATOM     89  H45 non d ame     -27.688  14.232  21.573  0.00  0.00     0.212 HD
ENDBRANCH  83  88
ENDBRANCH  72  75
ENDBRANCH  47  72
ENDBRANCH  45  47
ENDBRANCH   1  43
BRANCH   1  90
ATOM     90  C16 non d ame     -32.523   8.756  24.370  0.00  0.00    -0.035 C 
ATOM     91  H21 non d ame     -31.526   8.453  24.688  0.00  0.00     0.037 H 
ATOM     92  H22 non d ame     -33.354   8.056  24.445  0.00  0.00     0.037 H 
BRANCH  90  93
ATOM     93  C17 non d ame     -32.405   9.143  22.862  0.00  0.00    -0.059 C 
ATOM     94  H23 non d ame     -32.656  10.199  22.770  0.00  0.00     0.038 H 
BRANCH  93  95
ATOM     95  C18 non d ame     -30.954   8.947  22.315  0.00  0.00    -0.073 C 
ATOM     96  H24 non d ame     -30.863   7.956  21.872  0.00  0.00     0.028 H 
ATOM     97  H25 non d ame     -30.747   9.703  21.557  0.00  0.00     0.028 H 
ATOM     98  H26 non d ame     -30.241   9.047  23.133  0.00  0.00     0.028 H 
ENDBRANCH  93  95
BRANCH  93  99
ATOM     99  C19 non d ame     -33.414   8.361  22.017  0.00  0.00    -0.073 C 
ATOM    100  H27 non d ame     -34.000   9.056  21.414  0.00  0.00     0.028 H 
ATOM    101  H28 non d ame     -32.883   7.672  21.360  0.00  0.00     0.028 H 
ATOM    102  H29 non d ame     -34.078   7.798  22.672  0.00  0.00     0.028 H 
ENDBRANCH  93  99
ENDBRANCH  90  93
ENDBRANCH   1  90
TORSDOF 26
ENDMDL
MODEL 12
REMARK VINA RESULT:      -6.8      2.514      7.853
REMARK  26 active torsions:
REMARK  status: ('A' for Active; 'I' for Inactive)
REMARK    1  A    between atoms: C2_2  and  C3_3 
REMARK    2  A    between atoms: C4_6  and  C5_7 
REMARK       I    between atoms: C5_7  and  N2_9 
REMARK    3  A    between atoms: N2_9  and  C6_10 
REMARK    4  A    between atoms: C6_10  and  C7_11 
REMARK    5  A    between atoms: C6_10  and  C8_13 
REMARK       I    between atoms: C7_11  and  N3_14 
REMARK    6  A    between atoms: N3_14  and  C9_15 
REMARK    7  A    between atoms: C9_15  and  C10_16 
REMARK    8  A    between atoms: C9_15  and  C11_18 
REMARK       I    between atoms: C10_16  and  N4_21 
REMARK    9  A    between atoms: C11_18  and  C12_19 
REMARK   10  A    between atoms: C11_18  and  C13_20 
REMARK   11  A    between atoms: N4_21  and  C14_22 
REMARK   12  A    between atoms: C14_22  and  C15_23 
REMARK   13  A    between atoms: C14_22  and  C16_25 
REMARK       I    between atoms: C15_23  and  N6_40 
REMARK   14  A    between atoms: C16_25  and  C17_26 
REMARK   15  A    between atoms: C17_26  and  C18_27 
REMARK   16  A    between atoms: C17_26  and  C19_28 
REMARK   17  A    between atoms: C20_29  and  C21_30 
REMARK   18  A    between atoms: C20_29  and  C24_33 
REMARK   19  A    between atoms: C20_29  and  N6_40 
REMARK   20  A    between atoms: C21_30  and  C22_31 
REMARK   21  A    between atoms: C22_31  and  C23_32 
REMARK   22  A    between atoms: C23_32  and  O8_43 
REMARK   23  A    between atoms: C24_33  and  C25_34 
REMARK   24  A    between atoms: C28_38  and  O6_39 
REMARK   25  A    between atoms: C29_42  and  O8_43 
REMARK   26  A    between atoms: C29_42  and  C35_49 
ROOT
ATOM      1  C14 non d ame     -36.460  16.038  26.381  0.00  0.00     0.089 C 
ATOM      2  H20 non d ame     -37.078  16.596  27.086  0.00  0.00     0.087 H 
ENDROOT
BRANCH   1   3
ATOM      3  N4  non d ame     -35.073  16.209  26.786  0.00  0.00    -0.346 N 
ATOM      4  C10 non d ame     -34.710  17.200  27.864  0.00  0.00     0.241 C 
ATOM      5  O4  non d ame     -35.551  17.851  28.388  0.00  0.00    -0.271 OA
ATOM      6  H19 non d ame     -34.371  15.646  26.325  0.00  0.00     0.163 HD
BRANCH   4   7
ATOM      7  C9  non d ame     -33.269  17.358  28.273  0.00  0.00     0.092 C 
ATOM      8  H11 non d ame     -33.224  17.865  29.238  0.00  0.00     0.088 H 
BRANCH   7   9
ATOM      9  N3  non d ame     -32.662  16.037  28.449  0.00  0.00    -0.346 N 
ATOM     10  C7  non d ame     -31.746  15.803  29.539  0.00  0.00     0.240 C 
ATOM     11  O3  non d ame     -31.486  16.669  30.283  0.00  0.00    -0.271 OA
ATOM     12  H10 non d ame     -32.875  15.281  27.815  0.00  0.00     0.163 HD
BRANCH  10  13
ATOM     13  C6  non d ame     -31.100  14.394  29.720  0.00  0.00     0.086 C 
ATOM     14  H6  non d ame     -30.443  14.340  30.588  0.00  0.00     0.086 H 
BRANCH  13  15
ATOM     15  N2  non d ame     -32.154  13.417  29.935  0.00  0.00    -0.343 N 
ATOM     16  C5  non d ame     -31.848  12.168  30.638  0.00  0.00     0.273 C 
ATOM     17  O2  non d ame     -30.750  11.959  31.023  0.00  0.00    -0.266 OA
ATOM     18  H5  non d ame     -33.089  13.603  29.600  0.00  0.00     0.163 HD
BRANCH  16  19
ATOM     19  C4  non d ame     -32.953  11.127  30.874  0.00  0.00     0.154 A 
ATOM     20  C1  non d ame     -33.327  10.052  30.008  0.00  0.00    -0.017 A 
ATOM     21  C2  non d ame     -34.384   9.396  30.677  0.00  0.00     0.077 A 
ATOM     22  H1  non d ame     -32.899   9.788  29.041  0.00  0.00     0.091 H 
ATOM     23  O1  non d ame     -34.583  10.027  31.798  0.00  0.00    -0.218 OA
ATOM     24  N1  non d ame     -33.761  11.042  31.934  0.00  0.00    -0.123 NA
BRANCH  21  25
ATOM     25  C3  non d ame     -35.146   8.175  30.181  0.00  0.00    -0.029 C 
ATOM     26  H2  non d ame     -35.104   7.388  30.934  0.00  0.00     0.036 H 
ATOM     27  H3  non d ame     -36.186   8.445  29.997  0.00  0.00     0.036 H 
ATOM     28  H4  non d ame     -34.696   7.816  29.256  0.00  0.00     0.036 H 
ENDBRANCH  21  25
ENDBRANCH  16  19
ENDBRANCH  13  15
BRANCH  13  29
ATOM     29  C8  non d ame     -30.310  14.039  28.486  0.00  0.00    -0.049 C 
ATOM     30  H7  non d ame     -30.508  13.002  28.214  0.00  0.00     0.030 H 
ATOM     31  H8  non d ame     -30.607  14.692  27.665  0.00  0.00     0.030 H 
ATOM     32  H9  non d ame     -29.247  14.166  28.686  0.00  0.00     0.030 H 
ENDBRANCH  13  29
ENDBRANCH  10  13
ENDBRANCH   7   9
BRANCH   7  33
ATOM     33  C11 non d ame     -32.499  18.138  27.168  0.00  0.00    -0.033 C 
ATOM     34  H12 non d ame     -31.448  18.166  27.458  0.00  0.00     0.042 H 
BRANCH  33  35
ATOM     35  C12 non d ame     -32.586  17.408  25.791  0.00  0.00    -0.071 C 
ATOM     36  H13 non d ame     -33.052  16.432  25.926  0.00  0.00     0.028 H 
ATOM     37  H14 non d ame     -33.184  18.004  25.102  0.00  0.00     0.028 H 
ATOM     38  H15 non d ame     -31.583  17.279  25.384  0.00  0.00     0.028 H 
ENDBRANCH  33  35
BRANCH  33  39
ATOM     39  C13 non d ame     -33.010  19.610  27.062  0.00  0.00    -0.071 C 
ATOM     40  H16 non d ame     -32.167  20.296  27.151  0.00  0.00     0.028 H 
ATOM     41  H17 non d ame     -33.499  19.758  26.098  0.00  0.00     0.028 H 
ATOM     42  H18 non d ame     -33.723  19.806  27.862  0.00  0.00     0.028 H 
ENDBRANCH  33  39
ENDBRANCH   7  33
ENDBRANCH   4   7
ENDBRANCH   1   3
BRANCH   1  43
ATOM     43  C15 non d ame     -36.793  14.519  26.383  0.00  0.00     0.240 C 
ATOM     44  O5  non d ame     -37.770  14.129  26.936  0.00  0.00    -0.271 OA
ATOM     45  N6  non d ame     -35.900  13.551  25.685  0.00  0.00    -0.355 N 
ATOM     46  H46 non d ame     -35.070  13.872  25.207  0.00  0.00     0.162 HD
BRANCH  45  47
ATOM     47  C20 non d ame     -36.231  12.109  25.694  0.00  0.00     0.013 C 
ATOM     48  H30 non d ame     -37.030  11.953  26.418  0.00  0.00     0.072 H 
BRANCH  47  49
ATOM     49  C21 non d ame     -35.007  11.318  26.095  0.00  0.00    -0.038 C 
ATOM     50  H31 non d ame     -35.384  10.447  26.635  0.00  0.00     0.036 H 
ATOM     51  H32 non d ame     -34.430  11.184  25.181  0.00  0.00     0.036 H 
BRANCH  49  52
ATOM     52  C22 non d ame     -34.096  12.081  27.081  0.00  0.00     0.018 C 
ATOM     53  H33 non d ame     -34.714  12.872  27.502  0.00  0.00     0.048 H 
ATOM     54  H34 non d ame     -33.666  11.320  27.734  0.00  0.00     0.048 H 
BRANCH  52  55
ATOM     55  C23 non d ame     -32.894  12.791  26.401  0.00  0.00     0.259 C 
ATOM     56  O7  non d ame     -32.920  13.962  26.199  0.00  0.00    -0.265 OA
BRANCH  55  57
ATOM     57  O8  non d ame     -31.763  12.023  26.006  0.00  0.00    -0.317 OA
BRANCH  57  58
ATOM     58  C29 non d ame     -31.259  12.355  24.709  0.00  0.00     0.052 C 
ATOM     59  H47 non d ame     -32.007  13.008  24.260  0.00  0.00     0.082 H 
ATOM     60  H48 non d ame     -30.244  12.717  24.870  0.00  0.00     0.082 H 
BRANCH  58  61
ATOM     61  C35 non d ame     -31.187  11.047  23.874  0.00  0.00    -0.034 A 
ATOM     62  C30 non d ame     -30.146  10.854  22.972  0.00  0.00    -0.075 A 
ATOM     63  C31 non d ame     -30.081   9.680  22.222  0.00  0.00    -0.082 A 
ATOM     64  H49 non d ame     -29.382  11.622  22.851  0.00  0.00     0.084 H 
ATOM     65  C32 non d ame     -31.063   8.698  22.377  0.00  0.00    -0.083 A 
ATOM     66  H50 non d ame     -29.263   9.531  21.517  0.00  0.00     0.083 H 
ATOM     67  C33 non d ame     -32.102   8.897  23.276  0.00  0.00    -0.082 A 
ATOM     68  H51 non d ame     -31.019   7.777  21.795  0.00  0.00     0.083 H 
ATOM     69  C34 non d ame     -32.169  10.068  24.029  0.00  0.00    -0.075 A 
ATOM     70  H52 non d ame     -32.868   8.131  23.393  0.00  0.00     0.083 H 
ATOM     71  H53 non d ame     -32.988  10.216  24.734  0.00  0.00     0.084 H 
ENDBRANCH  58  61
ENDBRANCH  57  58
ENDBRANCH  55  57
ENDBRANCH  52  55
ENDBRANCH  49  52
ENDBRANCH  47  49
BRANCH  47  72
ATOM     72  C24 non d ame     -36.686  11.675  24.302  0.00  0.00    -0.039 C 
ATOM     73  H35 non d ame     -36.061  12.236  23.605  0.00  0.00     0.036 H 
ATOM     74  H36 non d ame     -36.648  10.586  24.311  0.00  0.00     0.036 H 
BRANCH  72  75
ATOM     75  C25 non d ame     -38.206  12.093  24.017  0.00  0.00    -0.001 C 
ATOM     76  C26 non d ame     -39.058  10.785  23.503  0.00  0.00    -0.035 C 
ATOM     77  C27 non d ame     -39.706  11.109  22.358  0.00  0.00     0.085 C 
ATOM     78  H38 non d ame     -38.377   9.992  23.195  0.00  0.00     0.036 H 
ATOM     79  H39 non d ame     -39.868  10.569  24.201  0.00  0.00     0.036 H 
ATOM     80  N5  non d ame     -39.115  12.408  21.869  0.00  0.00    -0.049 N 
ATOM     81  H40 non d ame     -39.460  10.317  21.650  0.00  0.00     0.075 H 
ATOM     82  H41 non d ame     -40.743  11.278  22.648  0.00  0.00     0.075 H 
ATOM     83  C28 non d ame     -38.276  13.011  23.110  0.00  0.00     0.193 C 
ATOM     84  H42 non d ame     -38.469  12.169  21.130  0.00  0.00     0.280 HD
ATOM     85  H43 non d ame     -39.894  13.023  21.678  0.00  0.00     0.280 HD
ATOM     86  H44 non d ame     -38.673  13.838  23.697  0.00  0.00     0.129 H 
ATOM     87  H37 non d ame     -38.634  12.675  24.833  0.00  0.00     0.046 H 
BRANCH  83  88
ATOM     88  O6  non d ame     -36.985  13.437  22.672  0.00  0.00    -0.369 OA
ATOM     89  H45 non d ame     -36.967  13.470  21.713  0.00  0.00     0.212 HD
ENDBRANCH  83  88
ENDBRANCH  72  75
ENDBRANCH  47  72
ENDBRANCH  45  47
ENDBRANCH   1  43
BRANCH   1  90
ATOM     90  C16 non d ame     -36.641  16.600  24.980  0.00  0.00    -0.035 C 
ATOM     91  H21 non d ame     -35.635  16.688  24.572  0.00  0.00     0.037 H 
ATOM     92  H22 non d ame     -37.368  15.947  24.499  0.00  0.00     0.037 H 
BRANCH  90  93
ATOM     93  C17 non d ame     -37.253  18.037  24.956  0.00  0.00    -0.059 C 
ATOM     94  H23 non d ame     -37.899  18.137  25.827  0.00  0.00     0.038 H 
BRANCH  93  95
ATOM     95  C18 non d ame     -36.156  19.146  25.044  0.00  0.00    -0.073 C 
ATOM     96  H24 non d ame     -35.686  19.115  26.027  0.00  0.00     0.028 H 
ATOM     97  H25 non d ame     -35.401  18.973  24.276  0.00  0.00     0.028 H 
ATOM     98  H26 non d ame     -36.612  20.123  24.890  0.00  0.00     0.028 H 
ENDBRANCH  93  95
BRANCH  93  99
ATOM     99  C19 non d ame     -38.129  18.237  23.716  0.00  0.00    -0.073 C 
ATOM    100  H27 non d ame     -37.687  19.003  23.078  0.00  0.00     0.028 H 
ATOM    101  H28 non d ame     -38.195  17.300  23.163  0.00  0.00     0.028 H 
ATOM    102  H29 non d ame     -39.126  18.549  24.022  0.00  0.00     0.028 H 
ENDBRANCH  93  99
ENDBRANCH  90  93
ENDBRANCH   1  90
TORSDOF 26
ENDMDL
MODEL 13
REMARK VINA RESULT:      -6.8      2.298      7.242
REMARK  26 active torsions:
REMARK  status: ('A' for Active; 'I' for Inactive)
REMARK    1  A    between atoms: C2_2  and  C3_3 
REMARK    2  A    between atoms: C4_6  and  C5_7 
REMARK       I    between atoms: C5_7  and  N2_9 
REMARK    3  A    between atoms: N2_9  and  C6_10 
REMARK    4  A    between atoms: C6_10  and  C7_11 
REMARK    5  A    between atoms: C6_10  and  C8_13 
REMARK       I    between atoms: C7_11  and  N3_14 
REMARK    6  A    between atoms: N3_14  and  C9_15 
REMARK    7  A    between atoms: C9_15  and  C10_16 
REMARK    8  A    between atoms: C9_15  and  C11_18 
REMARK       I    between atoms: C10_16  and  N4_21 
REMARK    9  A    between atoms: C11_18  and  C12_19 
REMARK   10  A    between atoms: C11_18  and  C13_20 
REMARK   11  A    between atoms: N4_21  and  C14_22 
REMARK   12  A    between atoms: C14_22  and  C15_23 
REMARK   13  A    between atoms: C14_22  and  C16_25 
REMARK       I    between atoms: C15_23  and  N6_40 
REMARK   14  A    between atoms: C16_25  and  C17_26 
REMARK   15  A    between atoms: C17_26  and  C18_27 
REMARK   16  A    between atoms: C17_26  and  C19_28 
REMARK   17  A    between atoms: C20_29  and  C21_30 
REMARK   18  A    between atoms: C20_29  and  C24_33 
REMARK   19  A    between atoms: C20_29  and  N6_40 
REMARK   20  A    between atoms: C21_30  and  C22_31 
REMARK   21  A    between atoms: C22_31  and  C23_32 
REMARK   22  A    between atoms: C23_32  and  O8_43 
REMARK   23  A    between atoms: C24_33  and  C25_34 
REMARK   24  A    between atoms: C28_38  and  O6_39 
REMARK   25  A    between atoms: C29_42  and  O8_43 
REMARK   26  A    between atoms: C29_42  and  C35_49 
ROOT
ATOM      1  C14 non d ame     -32.286   9.529  25.359  0.00  0.00     0.089 C 
ATOM      2  H20 non d ame     -31.588   8.710  25.537  0.00  0.00     0.087 H 
ENDROOT
BRANCH   1   3
ATOM      3  N4  non d ame     -33.313   9.460  26.388  0.00  0.00    -0.346 N 
ATOM      4  C10 non d ame     -33.267   8.379  27.439  0.00  0.00     0.241 C 
ATOM      5  O4  non d ame     -32.396   7.574  27.434  0.00  0.00    -0.271 OA
ATOM      6  H19 non d ame     -34.047  10.153  26.373  0.00  0.00     0.163 HD
BRANCH   4   7
ATOM      7  C9  non d ame     -34.336   8.326  28.499  0.00  0.00     0.092 C 
ATOM      8  H11 non d ame     -34.191   7.435  29.110  0.00  0.00     0.088 H 
BRANCH   7   9
ATOM      9  N3  non d ame     -34.203   9.486  29.385  0.00  0.00    -0.346 N 
ATOM     10  C7  non d ame     -34.317   9.318  30.813  0.00  0.00     0.240 C 
ATOM     11  O3  non d ame     -34.517   8.257  31.266  0.00  0.00    -0.271 OA
ATOM     12  H10 non d ame     -34.032  10.407  29.010  0.00  0.00     0.163 HD
BRANCH  10  13
ATOM     13  C6  non d ame     -34.178  10.557  31.752  0.00  0.00     0.086 C 
ATOM     14  H6  non d ame     -33.415  10.422  32.518  0.00  0.00     0.086 H 
BRANCH  13  15
ATOM     15  N2  non d ame     -33.772  11.706  30.959  0.00  0.00    -0.343 N 
ATOM     16  C5  non d ame     -32.350  11.926  30.684  0.00  0.00     0.273 C 
ATOM     17  O2  non d ame     -31.541  11.175  31.107  0.00  0.00    -0.266 OA
ATOM     18  H5  non d ame     -34.469  12.344  30.604  0.00  0.00     0.163 HD
BRANCH  16  19
ATOM     19  C4  non d ame     -31.906  13.134  29.846  0.00  0.00     0.154 A 
ATOM     20  C1  non d ame     -32.664  14.314  29.561  0.00  0.00    -0.017 A 
ATOM     21  C2  non d ame     -31.814  15.109  28.760  0.00  0.00     0.077 A 
ATOM     22  H1  non d ame     -33.677  14.556  29.884  0.00  0.00     0.091 H 
ATOM     23  O1  non d ame     -30.699  14.454  28.611  0.00  0.00    -0.218 OA
ATOM     24  N1  non d ame     -30.730  13.299  29.235  0.00  0.00    -0.123 NA
BRANCH  21  25
ATOM     25  C3  non d ame     -32.141  16.478  28.180  0.00  0.00    -0.029 C 
ATOM     26  H2  non d ame     -32.922  16.377  27.426  0.00  0.00     0.036 H 
ATOM     27  H3  non d ame     -32.490  17.136  28.977  0.00  0.00     0.036 H 
ATOM     28  H4  non d ame     -31.248  16.903  27.724  0.00  0.00     0.036 H 
ENDBRANCH  21  25
ENDBRANCH  16  19
ENDBRANCH  13  15
BRANCH  13  29
ATOM     29  C8  non d ame     -35.500  10.834  32.422  0.00  0.00    -0.049 C 
ATOM     30  H7  non d ame     -36.211  10.051  32.161  0.00  0.00     0.030 H 
ATOM     31  H8  non d ame     -35.361  10.852  33.504  0.00  0.00     0.030 H 
ATOM     32  H9  non d ame     -35.882  11.799  32.089  0.00  0.00     0.030 H 
ENDBRANCH  13  29
ENDBRANCH  10  13
ENDBRANCH   7   9
BRANCH   7  33
ATOM     33  C11 non d ame     -35.738   8.351  27.823  0.00  0.00    -0.033 C 
ATOM     34  H12 non d ame     -35.584   8.292  26.745  0.00  0.00     0.042 H 
BRANCH  33  35
ATOM     35  C12 non d ame     -36.593   7.115  28.243  0.00  0.00    -0.071 C 
ATOM     36  H13 non d ame     -37.649   7.385  28.237  0.00  0.00     0.028 H 
ATOM     37  H14 non d ame     -36.423   6.300  27.539  0.00  0.00     0.028 H 
ATOM     38  H15 non d ame     -36.306   6.797  29.245  0.00  0.00     0.028 H 
ENDBRANCH  33  35
BRANCH  33  39
ATOM     39  C13 non d ame     -36.485   9.688  28.132  0.00  0.00    -0.071 C 
ATOM     40  H16 non d ame     -36.466  10.327  27.249  0.00  0.00     0.028 H 
ATOM     41  H17 non d ame     -37.519   9.473  28.403  0.00  0.00     0.028 H 
ATOM     42  H18 non d ame     -35.992  10.196  28.960  0.00  0.00     0.028 H 
ENDBRANCH  33  39
ENDBRANCH   7  33
ENDBRANCH   4   7
ENDBRANCH   1   3
BRANCH   1  43
ATOM     43  C15 non d ame     -31.594  10.920  25.442  0.00  0.00     0.240 C 
ATOM     44  O5  non d ame     -30.885  11.173  26.362  0.00  0.00    -0.271 OA
ATOM     45  N6  non d ame     -31.808  11.933  24.370  0.00  0.00    -0.355 N 
ATOM     46  H46 non d ame     -32.404  11.727  23.581  0.00  0.00     0.162 HD
BRANCH  45  47
ATOM     47  C20 non d ame     -31.142  13.250  24.463  0.00  0.00     0.013 C 
ATOM     48  H30 non d ame     -30.441  13.214  25.297  0.00  0.00     0.072 H 
BRANCH  47  49
ATOM     49  C21 non d ame     -32.181  14.320  24.707  0.00  0.00    -0.038 C 
ATOM     50  H31 non d ame     -31.630  15.190  25.068  0.00  0.00     0.036 H 
ATOM     51  H32 non d ame     -32.759  14.385  23.786  0.00  0.00     0.036 H 
BRANCH  49  52
ATOM     52  C22 non d ame     -33.179  13.943  25.824  0.00  0.00     0.018 C 
ATOM     53  H33 non d ame     -33.288  12.861  25.769  0.00  0.00     0.048 H 
ATOM     54  H34 non d ame     -32.792  14.406  26.733  0.00  0.00     0.048 H 
BRANCH  52  55
ATOM     55  C23 non d ame     -34.602  14.529  25.617  0.00  0.00     0.259 C 
ATOM     56  O7  non d ame     -35.370  14.004  24.878  0.00  0.00    -0.265 OA
BRANCH  55  57
ATOM     57  O8  non d ame     -34.975  15.714  26.311  0.00  0.00    -0.317 OA
BRANCH  57  58
ATOM     58  C29 non d ame     -35.208  16.839  25.457  0.00  0.00     0.052 C 
ATOM     59  H47 non d ame     -34.680  16.619  24.530  0.00  0.00     0.082 H 
ATOM     60  H48 non d ame     -36.288  16.985  25.448  0.00  0.00     0.082 H 
BRANCH  58  61
ATOM     61  C35 non d ame     -34.551  18.083  26.114  0.00  0.00    -0.034 A 
ATOM     62  C30 non d ame     -33.457  18.694  25.508  0.00  0.00    -0.075 A 
ATOM     63  C31 non d ame     -32.867  19.811  26.098  0.00  0.00    -0.082 A 
ATOM     64  H49 non d ame     -33.063  18.298  24.572  0.00  0.00     0.084 H 
ATOM     65  C32 non d ame     -33.372  20.315  27.299  0.00  0.00    -0.083 A 
ATOM     66  H50 non d ame     -32.010  20.288  25.620  0.00  0.00     0.083 H 
ATOM     67  C33 non d ame     -34.461  19.700  27.901  0.00  0.00    -0.082 A 
ATOM     68  H51 non d ame     -32.917  21.188  27.765  0.00  0.00     0.083 H 
ATOM     69  C34 non d ame     -35.056  18.585  27.314  0.00  0.00    -0.075 A 
ATOM     70  H52 non d ame     -34.852  20.095  28.839  0.00  0.00     0.083 H 
ATOM     71  H53 non d ame     -35.912  18.108  27.793  0.00  0.00     0.084 H 
ENDBRANCH  58  61
ENDBRANCH  57  58
ENDBRANCH  55  57
ENDBRANCH  52  55
ENDBRANCH  49  52
ENDBRANCH  47  49
BRANCH  47  72
ATOM     72  C24 non d ame     -30.400  13.547  23.161  0.00  0.00    -0.039 C 
ATOM     73  H35 non d ame     -29.382  13.189  23.319  0.00  0.00     0.036 H 
ATOM     74  H36 non d ame     -31.014  13.112  22.372  0.00  0.00     0.036 H 
BRANCH  72  75
ATOM     75  C25 non d ame     -30.310  15.121  22.875  0.00  0.00    -0.001 C 
ATOM     76  C26 non d ame     -31.261  15.512  21.593  0.00  0.00    -0.035 C 
ATOM     77  C27 non d ame     -30.528  16.228  20.708  0.00  0.00     0.085 C 
ATOM     78  H38 non d ame     -31.527  14.614  21.036  0.00  0.00     0.036 H 
ATOM     79  H39 non d ame     -32.038  16.211  21.904  0.00  0.00     0.036 H 
ATOM     80  N5  non d ame     -29.081  16.081  21.112  0.00  0.00    -0.049 N 
ATOM     81  H40 non d ame     -30.679  15.741  19.743  0.00  0.00     0.075 H 
ATOM     82  H41 non d ame     -30.832  17.265  20.848  0.00  0.00     0.075 H 
ATOM     83  C28 non d ame     -29.098  15.479  22.610  0.00  0.00     0.193 C 
ATOM     84  H42 non d ame     -28.679  15.391  20.493  0.00  0.00     0.280 HD
ATOM     85  H43 non d ame     -28.697  17.015  21.145  0.00  0.00     0.280 HD
ATOM     86  H44 non d ame     -28.889  16.119  23.466  0.00  0.00     0.129 H 
ATOM     87  H37 non d ame     -30.431  15.713  23.782  0.00  0.00     0.046 H 
BRANCH  83  88
ATOM     88  O6  non d ame     -28.179  14.390  22.714  0.00  0.00    -0.369 OA
ATOM     89  H45 non d ame     -27.295  14.730  22.872  0.00  0.00     0.212 HD
ENDBRANCH  83  88
ENDBRANCH  72  75
ENDBRANCH  47  72
ENDBRANCH  45  47
ENDBRANCH   1  43
BRANCH   1  90
ATOM     90  C16 non d ame     -32.937   9.363  23.996  0.00  0.00    -0.035 C 
ATOM     91  H21 non d ame     -33.934   8.973  24.197  0.00  0.00     0.037 H 
ATOM     92  H22 non d ame     -32.820  10.326  23.500  0.00  0.00     0.037 H 
BRANCH  90  93
ATOM     93  C17 non d ame     -32.229   8.309  23.086  0.00  0.00    -0.059 C 
ATOM     94  H23 non d ame     -32.939   8.002  22.319  0.00  0.00     0.038 H 
BRANCH  93  95
ATOM     95  C18 non d ame     -30.975   8.901  22.366  0.00  0.00    -0.073 C 
ATOM     96  H24 non d ame     -30.285   8.096  22.117  0.00  0.00     0.028 H 
ATOM     97  H25 non d ame     -31.287   9.406  21.451  0.00  0.00     0.028 H 
ATOM     98  H26 non d ame     -30.480   9.614  23.024  0.00  0.00     0.028 H 
ENDBRANCH  93  95
BRANCH  93  99
ATOM     99  C19 non d ame     -31.856   7.059  23.887  0.00  0.00    -0.073 C 
ATOM    100  H27 non d ame     -32.603   6.282  23.718  0.00  0.00     0.028 H 
ATOM    101  H28 non d ame     -30.879   6.698  23.564  0.00  0.00     0.028 H 
ATOM    102  H29 non d ame     -31.819   7.304  24.948  0.00  0.00     0.028 H 
ENDBRANCH  93  99
ENDBRANCH  90  93
ENDBRANCH   1  90
TORSDOF 26
ENDMDL
MODEL 14
REMARK VINA RESULT:      -6.7      2.024      5.675
REMARK  26 active torsions:
REMARK  status: ('A' for Active; 'I' for Inactive)
REMARK    1  A    between atoms: C2_2  and  C3_3 
REMARK    2  A    between atoms: C4_6  and  C5_7 
REMARK       I    between atoms: C5_7  and  N2_9 
REMARK    3  A    between atoms: N2_9  and  C6_10 
REMARK    4  A    between atoms: C6_10  and  C7_11 
REMARK    5  A    between atoms: C6_10  and  C8_13 
REMARK       I    between atoms: C7_11  and  N3_14 
REMARK    6  A    between atoms: N3_14  and  C9_15 
REMARK    7  A    between atoms: C9_15  and  C10_16 
REMARK    8  A    between atoms: C9_15  and  C11_18 
REMARK       I    between atoms: C10_16  and  N4_21 
REMARK    9  A    between atoms: C11_18  and  C12_19 
REMARK   10  A    between atoms: C11_18  and  C13_20 
REMARK   11  A    between atoms: N4_21  and  C14_22 
REMARK   12  A    between atoms: C14_22  and  C15_23 
REMARK   13  A    between atoms: C14_22  and  C16_25 
REMARK       I    between atoms: C15_23  and  N6_40 
REMARK   14  A    between atoms: C16_25  and  C17_26 
REMARK   15  A    between atoms: C17_26  and  C18_27 
REMARK   16  A    between atoms: C17_26  and  C19_28 
REMARK   17  A    between atoms: C20_29  and  C21_30 
REMARK   18  A    between atoms: C20_29  and  C24_33 
REMARK   19  A    between atoms: C20_29  and  N6_40 
REMARK   20  A    between atoms: C21_30  and  C22_31 
REMARK   21  A    between atoms: C22_31  and  C23_32 
REMARK   22  A    between atoms: C23_32  and  O8_43 
REMARK   23  A    between atoms: C24_33  and  C25_34 
REMARK   24  A    between atoms: C28_38  and  O6_39 
REMARK   25  A    between atoms: C29_42  and  O8_43 
REMARK   26  A    between atoms: C29_42  and  C35_49 
ROOT
ATOM      1  C14 non d ame     -32.269   9.732  24.700  0.00  0.00     0.089 C 
ATOM      2  H20 non d ame     -31.979   8.927  25.376  0.00  0.00     0.087 H 
ENDROOT
BRANCH   1   3
ATOM      3  N4  non d ame     -33.655  10.068  24.989  0.00  0.00    -0.346 N 
ATOM      4  C10 non d ame     -34.231   9.815  26.360  0.00  0.00     0.241 C 
ATOM      5  O4  non d ame     -33.560   9.336  27.213  0.00  0.00    -0.271 OA
ATOM      6  H19 non d ame     -34.209  10.473  24.248  0.00  0.00     0.163 HD
BRANCH   4   7
ATOM      7  C9  non d ame     -35.665  10.176  26.642  0.00  0.00     0.092 C 
ATOM      8  H11 non d ame     -35.788  10.350  27.711  0.00  0.00     0.088 H 
BRANCH   7   9
ATOM      9  N3  non d ame     -35.999  11.428  25.958  0.00  0.00    -0.346 N 
ATOM     10  C7  non d ame     -36.881  12.380  26.587  0.00  0.00     0.240 C 
ATOM     11  O3  non d ame     -37.333  12.153  27.643  0.00  0.00    -0.271 OA
ATOM     12  H10 non d ame     -35.619  11.636  25.046  0.00  0.00     0.163 HD
BRANCH  10  13
ATOM     13  C6  non d ame     -37.236  13.710  25.852  0.00  0.00     0.086 C 
ATOM     14  H6  non d ame     -38.195  14.122  26.166  0.00  0.00     0.086 H 
BRANCH  13  15
ATOM     15  N2  non d ame     -36.229  14.708  26.173  0.00  0.00    -0.343 N 
ATOM     16  C5  non d ame     -36.632  15.954  26.830  0.00  0.00     0.273 C 
ATOM     17  O2  non d ame     -37.768  16.144  27.093  0.00  0.00    -0.266 OA
ATOM     18  H5  non d ame     -35.261  14.538  25.941  0.00  0.00     0.163 HD
BRANCH  16  19
ATOM     19  C4  non d ame     -35.578  17.017  27.176  0.00  0.00     0.154 A 
ATOM     20  C1  non d ame     -34.728  17.720  26.266  0.00  0.00    -0.017 A 
ATOM     21  C2  non d ame     -33.951  18.575  27.080  0.00  0.00     0.077 A 
ATOM     22  H1  non d ame     -34.679  17.625  25.181  0.00  0.00     0.091 H 
ATOM     23  O1  non d ame     -34.323  18.380  28.312  0.00  0.00    -0.218 OA
ATOM     24  N1  non d ame     -35.270  17.474  28.393  0.00  0.00    -0.123 NA
BRANCH  21  25
ATOM     25  C3  non d ame     -32.880  19.547  26.603  0.00  0.00    -0.029 C 
ATOM     26  H2  non d ame     -32.056  19.559  27.317  0.00  0.00     0.036 H 
ATOM     27  H3  non d ame     -32.510  19.230  25.628  0.00  0.00     0.036 H 
ATOM     28  H4  non d ame     -33.305  20.546  26.522  0.00  0.00     0.036 H 
ENDBRANCH  21  25
ENDBRANCH  16  19
ENDBRANCH  13  15
BRANCH  13  29
ATOM     29  C8  non d ame     -37.270  13.471  24.364  0.00  0.00    -0.049 C 
ATOM     30  H7  non d ame     -36.312  13.752  23.928  0.00  0.00     0.030 H 
ATOM     31  H8  non d ame     -37.462  12.416  24.170  0.00  0.00     0.030 H 
ATOM     32  H9  non d ame     -38.063  14.073  23.918  0.00  0.00     0.030 H 
ENDBRANCH  13  29
ENDBRANCH  10  13
ENDBRANCH   7   9
BRANCH   7  33
ATOM     33  C11 non d ame     -36.596   9.040  26.125  0.00  0.00    -0.033 C 
ATOM     34  H12 non d ame     -35.979   8.154  25.973  0.00  0.00     0.042 H 
BRANCH  33  35
ATOM     35  C12 non d ame     -37.690   8.676  27.177  0.00  0.00    -0.071 C 
ATOM     36  H13 non d ame     -37.212   8.395  28.115  0.00  0.00     0.028 H 
ATOM     37  H14 non d ame     -38.335   9.539  27.343  0.00  0.00     0.028 H 
ATOM     38  H15 non d ame     -38.285   7.841  26.809  0.00  0.00     0.028 H 
ENDBRANCH  33  35
BRANCH  33  39
ATOM     39  C13 non d ame     -37.236   9.424  24.752  0.00  0.00    -0.071 C 
ATOM     40  H16 non d ame     -36.530  10.020  24.175  0.00  0.00     0.028 H 
ATOM     41  H17 non d ame     -37.483   8.516  24.200  0.00  0.00     0.028 H 
ATOM     42  H18 non d ame     -38.145  10.001  24.923  0.00  0.00     0.028 H 
ENDBRANCH  33  39
ENDBRANCH   7  33
ENDBRANCH   4   7
ENDBRANCH   1   3
BRANCH   1  43
ATOM     43  C15 non d ame     -31.398  11.006  24.894  0.00  0.00     0.240 C 
ATOM     44  O5  non d ame     -30.690  11.098  25.844  0.00  0.00    -0.271 OA
ATOM     45  N6  non d ame     -31.440  12.107  23.891  0.00  0.00    -0.355 N 
ATOM     46  H46 non d ame     -32.034  12.038  23.077  0.00  0.00     0.162 HD
BRANCH  45  47
ATOM     47  C20 non d ame     -30.605  13.312  24.089  0.00  0.00     0.013 C 
ATOM     48  H30 non d ame     -29.878  13.091  24.871  0.00  0.00     0.072 H 
BRANCH  47  49
ATOM     49  C21 non d ame     -31.485  14.466  24.513  0.00  0.00    -0.038 C 
ATOM     50  H31 non d ame     -30.963  15.369  24.190  0.00  0.00     0.036 H 
ATOM     51  H32 non d ame     -32.476  14.240  24.120  0.00  0.00     0.036 H 
BRANCH  49  52
ATOM     52  C22 non d ame     -31.636  14.574  26.045  0.00  0.00     0.018 C 
ATOM     53  H33 non d ame     -30.861  13.933  26.464  0.00  0.00     0.048 H 
ATOM     54  H34 non d ame     -31.636  15.643  26.266  0.00  0.00     0.048 H 
BRANCH  52  55
ATOM     55  C23 non d ame     -32.985  14.025  26.583  0.00  0.00     0.259 C 
ATOM     56  O7  non d ame     -33.561  13.163  26.001  0.00  0.00    -0.265 OA
BRANCH  55  57
ATOM     57  O8  non d ame     -33.537  14.574  27.774  0.00  0.00    -0.317 OA
BRANCH  57  58
ATOM     58  C29 non d ame     -32.559  14.954  28.746  0.00  0.00     0.052 C 
ATOM     59  H47 non d ame     -31.691  15.285  28.177  0.00  0.00     0.082 H 
ATOM     60  H48 non d ame     -33.065  15.644  29.420  0.00  0.00     0.082 H 
BRANCH  58  61
ATOM     61  C35 non d ame     -32.164  13.685  29.549  0.00  0.00    -0.034 A 
ATOM     62  C30 non d ame     -30.839  13.481  29.922  0.00  0.00    -0.075 A 
ATOM     63  C31 non d ame     -30.484  12.341  30.643  0.00  0.00    -0.082 A 
ATOM     64  H49 non d ame     -30.079  14.213  29.649  0.00  0.00     0.084 H 
ATOM     65  C32 non d ame     -31.460  11.403  30.989  0.00  0.00    -0.083 A 
ATOM     66  H50 non d ame     -29.445  12.185  30.935  0.00  0.00     0.083 H 
ATOM     67  C33 non d ame     -32.780  11.609  30.612  0.00  0.00    -0.082 A 
ATOM     68  H51 non d ame     -31.191  10.510  31.553  0.00  0.00     0.083 H 
ATOM     69  C34 non d ame     -33.139  12.748  29.893  0.00  0.00    -0.075 A 
ATOM     70  H52 non d ame     -33.539  10.874  30.882  0.00  0.00     0.083 H 
ATOM     71  H53 non d ame     -34.179  12.903  29.602  0.00  0.00     0.084 H 
ENDBRANCH  58  61
ENDBRANCH  57  58
ENDBRANCH  55  57
ENDBRANCH  52  55
ENDBRANCH  49  52
ENDBRANCH  47  49
BRANCH  47  72
ATOM     72  C24 non d ame     -29.891  13.666  22.786  0.00  0.00    -0.039 C 
ATOM     73  H35 non d ame     -28.840  13.783  23.055  0.00  0.00     0.036 H 
ATOM     74  H36 non d ame     -30.188  12.896  22.075  0.00  0.00     0.036 H 
BRANCH  72  75
ATOM     75  C25 non d ame     -30.389  15.070  22.199  0.00  0.00    -0.001 C 
ATOM     76  C26 non d ame     -31.065  14.849  20.717  0.00  0.00    -0.035 C 
ATOM     77  C27 non d ame     -30.497  15.715  19.845  0.00  0.00     0.085 C 
ATOM     78  H38 non d ame     -30.789  13.871  20.323  0.00  0.00     0.036 H 
ATOM     79  H39 non d ame     -32.111  15.154  20.734  0.00  0.00     0.036 H 
ATOM     80  N5  non d ame     -29.269  16.278  20.518  0.00  0.00    -0.049 N 
ATOM     81  H40 non d ame     -30.188  15.109  18.992  0.00  0.00     0.075 H 
ATOM     82  H41 non d ame     -31.226  16.514  19.710  0.00  0.00     0.075 H 
ATOM     83  C28 non d ame     -29.408  15.903  22.082  0.00  0.00     0.193 C 
ATOM     84  H42 non d ame     -28.478  15.779  20.137  0.00  0.00     0.280 HD
ATOM     85  H43 non d ame     -29.326  17.282  20.422  0.00  0.00     0.280 HD
ATOM     86  H44 non d ame     -29.702  16.659  22.809  0.00  0.00     0.129 H 
ATOM     87  H37 non d ame     -30.966  15.641  22.927  0.00  0.00     0.046 H 
BRANCH  83  88
ATOM     88  O6  non d ame     -28.180  15.361  22.570  0.00  0.00    -0.369 OA
ATOM     89  H45 non d ame     -28.275  15.138  23.499  0.00  0.00     0.212 HD
ENDBRANCH  83  88
ENDBRANCH  72  75
ENDBRANCH  47  72
ENDBRANCH  45  47
ENDBRANCH   1  43
BRANCH   1  90
ATOM     90  C16 non d ame     -32.164   9.256  23.259  0.00  0.00    -0.035 C 
ATOM     91  H21 non d ame     -33.001   8.572  23.119  0.00  0.00     0.037 H 
ATOM     92  H22 non d ame     -32.097  10.163  22.660  0.00  0.00     0.037 H 
BRANCH  90  93
ATOM     93  C17 non d ame     -30.870   8.433  22.963  0.00  0.00    -0.059 C 
ATOM     94  H23 non d ame     -30.338   8.303  23.905  0.00  0.00     0.038 H 
BRANCH  93  95
ATOM     95  C18 non d ame     -31.191   7.014  22.395  0.00  0.00    -0.073 C 
ATOM     96  H24 non d ame     -31.312   6.311  23.219  0.00  0.00     0.028 H 
ATOM     97  H25 non d ame     -32.114   7.055  21.816  0.00  0.00     0.028 H 
ATOM     98  H26 non d ame     -30.374   6.685  21.754  0.00  0.00     0.028 H 
ENDBRANCH  93  95
BRANCH  93  99
ATOM     99  C19 non d ame     -29.940   9.200  22.018  0.00  0.00    -0.073 C 
ATOM    100  H27 non d ame     -30.458   9.396  21.078  0.00  0.00     0.028 H 
ATOM    101  H28 non d ame     -29.654  10.146  22.478  0.00  0.00     0.028 H 
ATOM    102  H29 non d ame     -29.048   8.605  21.825  0.00  0.00     0.028 H 
ENDBRANCH  93  99
ENDBRANCH  90  93
ENDBRANCH   1  90
TORSDOF 26
ENDMDL
MODEL 15
REMARK VINA RESULT:      -6.7      2.420      7.802
REMARK  26 active torsions:
REMARK  status: ('A' for Active; 'I' for Inactive)
REMARK    1  A    between atoms: C2_2  and  C3_3 
REMARK    2  A    between atoms: C4_6  and  C5_7 
REMARK       I    between atoms: C5_7  and  N2_9 
REMARK    3  A    between atoms: N2_9  and  C6_10 
REMARK    4  A    between atoms: C6_10  and  C7_11 
REMARK    5  A    between atoms: C6_10  and  C8_13 
REMARK       I    between atoms: C7_11  and  N3_14 
REMARK    6  A    between atoms: N3_14  and  C9_15 
REMARK    7  A    between atoms: C9_15  and  C10_16 
REMARK    8  A    between atoms: C9_15  and  C11_18 
REMARK       I    between atoms: C10_16  and  N4_21 
REMARK    9  A    between atoms: C11_18  and  C12_19 
REMARK   10  A    between atoms: C11_18  and  C13_20 
REMARK   11  A    between atoms: N4_21  and  C14_22 
REMARK   12  A    between atoms: C14_22  and  C15_23 
REMARK   13  A    between atoms: C14_22  and  C16_25 
REMARK       I    between atoms: C15_23  and  N6_40 
REMARK   14  A    between atoms: C16_25  and  C17_26 
REMARK   15  A    between atoms: C17_26  and  C18_27 
REMARK   16  A    between atoms: C17_26  and  C19_28 
REMARK   17  A    between atoms: C20_29  and  C21_30 
REMARK   18  A    between atoms: C20_29  and  C24_33 
REMARK   19  A    between atoms: C20_29  and  N6_40 
REMARK   20  A    between atoms: C21_30  and  C22_31 
REMARK   21  A    between atoms: C22_31  and  C23_32 
REMARK   22  A    between atoms: C23_32  and  O8_43 
REMARK   23  A    between atoms: C24_33  and  C25_34 
REMARK   24  A    between atoms: C28_38  and  O6_39 
REMARK   25  A    between atoms: C29_42  and  O8_43 
REMARK   26  A    between atoms: C29_42  and  C35_49 
ROOT
ATOM      1  C14 non d ame     -37.932  11.121  27.839  0.00  0.00     0.089 C 
ATOM      2  H20 non d ame     -37.851  10.169  27.315  0.00  0.00     0.087 H 
ENDROOT
BRANCH   1   3
ATOM      3  N4  non d ame     -37.138  11.020  29.054  0.00  0.00    -0.346 N 
ATOM      4  C10 non d ame     -35.889  10.174  29.081  0.00  0.00     0.241 C 
ATOM      5  O4  non d ame     -35.545   9.581  28.113  0.00  0.00    -0.271 OA
ATOM      6  H19 non d ame     -37.449  11.531  29.869  0.00  0.00     0.163 HD
BRANCH   4   7
ATOM      7  C9  non d ame     -35.077  10.086  30.346  0.00  0.00     0.092 C 
ATOM      8  H11 non d ame     -34.578   9.118  30.385  0.00  0.00     0.088 H 
BRANCH   7   9
ATOM      9  N3  non d ame     -34.032  11.113  30.329  0.00  0.00    -0.346 N 
ATOM     10  C7  non d ame     -32.771  10.847  29.681  0.00  0.00     0.240 C 
ATOM     11  O3  non d ame     -32.580   9.811  29.170  0.00  0.00    -0.271 OA
ATOM     12  H10 non d ame     -34.180  12.010  30.767  0.00  0.00     0.163 HD
BRANCH  10  13
ATOM     13  C6  non d ame     -31.660  11.943  29.669  0.00  0.00     0.086 C 
ATOM     14  H6  non d ame     -30.877  11.741  28.938  0.00  0.00     0.086 H 
BRANCH  13  15
ATOM     15  N2  non d ame     -32.258  13.215  29.298  0.00  0.00    -0.343 N 
ATOM     16  C5  non d ame     -31.433  14.239  28.651  0.00  0.00     0.273 C 
ATOM     17  O2  non d ame     -30.290  14.030  28.437  0.00  0.00    -0.266 OA
ATOM     18  H5  non d ame     -33.235  13.386  29.488  0.00  0.00     0.163 HD
BRANCH  16  19
ATOM     19  C4  non d ame     -32.052  15.587  28.253  0.00  0.00     0.154 A 
ATOM     20  C1  non d ame     -32.050  16.190  26.955  0.00  0.00    -0.017 A 
ATOM     21  C2  non d ame     -32.741  17.411  27.120  0.00  0.00     0.077 A 
ATOM     22  H1  non d ame     -31.612  15.802  26.035  0.00  0.00     0.091 H 
ATOM     23  O1  non d ame     -33.098  17.488  28.369  0.00  0.00    -0.218 OA
ATOM     24  N1  non d ame     -32.706  16.436  29.050  0.00  0.00    -0.123 NA
BRANCH  21  25
ATOM     25  C3  non d ame     -33.020  18.443  26.035  0.00  0.00    -0.029 C 
ATOM     26  H2  non d ame     -32.077  18.845  25.666  0.00  0.00     0.036 H 
ATOM     27  H3  non d ame     -33.559  17.970  25.214  0.00  0.00     0.036 H 
ATOM     28  H4  non d ame     -33.622  19.251  26.448  0.00  0.00     0.036 H 
ENDBRANCH  21  25
ENDBRANCH  16  19
ENDBRANCH  13  15
BRANCH  13  29
ATOM     29  C8  non d ame     -31.036  12.045  31.037  0.00  0.00    -0.049 C 
ATOM     30  H7  non d ame     -31.217  13.039  31.446  0.00  0.00     0.030 H 
ATOM     31  H8  non d ame     -31.478  11.296  31.695  0.00  0.00     0.030 H 
ATOM     32  H9  non d ame     -29.962  11.873  30.961  0.00  0.00     0.030 H 
ENDBRANCH  13  29
ENDBRANCH  10  13
ENDBRANCH   7   9
BRANCH   7  33
ATOM     33  C11 non d ame     -36.005  10.314  31.575  0.00  0.00    -0.033 C 
ATOM     34  H12 non d ame     -36.721  11.091  31.305  0.00  0.00     0.042 H 
BRANCH  33  35
ATOM     35  C12 non d ame     -36.817   9.028  31.922  0.00  0.00    -0.071 C 
ATOM     36  H13 non d ame     -36.545   8.685  32.921  0.00  0.00     0.028 H 
ATOM     37  H14 non d ame     -37.883   9.252  31.893  0.00  0.00     0.028 H 
ATOM     38  H15 non d ame     -36.589   8.247  31.197  0.00  0.00     0.028 H 
ENDBRANCH  33  35
BRANCH  33  39
ATOM     39  C13 non d ame     -35.188  10.819  32.807  0.00  0.00    -0.071 C 
ATOM     40  H16 non d ame     -35.541  11.808  33.098  0.00  0.00     0.028 H 
ATOM     41  H17 non d ame     -35.320  10.126  33.639  0.00  0.00     0.028 H 
ATOM     42  H18 non d ame     -34.132  10.873  32.545  0.00  0.00     0.028 H 
ENDBRANCH  33  39
ENDBRANCH   7  33
ENDBRANCH   4   7
ENDBRANCH   1   3
BRANCH   1  43
ATOM     43  C15 non d ame     -37.390  12.307  26.991  0.00  0.00     0.240 C 
ATOM     44  O5  non d ame     -38.118  12.883  26.249  0.00  0.00    -0.271 OA
ATOM     45  N6  non d ame     -35.966  12.730  27.110  0.00  0.00    -0.355 N 
ATOM     46  H46 non d ame     -35.340  12.251  27.741  0.00  0.00     0.162 HD
BRANCH  45  47
ATOM     47  C20 non d ame     -35.466  13.861  26.298  0.00  0.00     0.013 C 
ATOM     48  H30 non d ame     -36.113  13.960  25.427  0.00  0.00     0.072 H 
BRANCH  47  49
ATOM     49  C21 non d ame     -34.048  13.572  25.858  0.00  0.00    -0.038 C 
ATOM     50  H31 non d ame     -34.062  13.624  24.768  0.00  0.00     0.036 H 
ATOM     51  H32 non d ame     -33.418  14.253  26.428  0.00  0.00     0.036 H 
BRANCH  49  52
ATOM     52  C22 non d ame     -33.588  12.143  26.220  0.00  0.00     0.018 C 
ATOM     53  H33 non d ame     -33.722  12.054  27.297  0.00  0.00     0.048 H 
ATOM     54  H34 non d ame     -34.131  11.479  25.547  0.00  0.00     0.048 H 
BRANCH  52  55
ATOM     55  C23 non d ame     -32.080  11.884  25.952  0.00  0.00     0.259 C 
ATOM     56  O7  non d ame     -31.570  10.870  26.302  0.00  0.00    -0.265 OA
BRANCH  55  57
ATOM     57  O8  non d ame     -31.307  12.882  25.294  0.00  0.00    -0.317 OA
BRANCH  57  58
ATOM     58  C29 non d ame     -30.807  12.481  24.015  0.00  0.00     0.052 C 
ATOM     59  H47 non d ame     -29.810  12.083  24.201  0.00  0.00     0.082 H 
ATOM     60  H48 non d ame     -31.578  11.844  23.583  0.00  0.00     0.082 H 
BRANCH  58  61
ATOM     61  C35 non d ame     -30.671  13.752  23.134  0.00  0.00    -0.034 A 
ATOM     62  C30 non d ame     -31.371  14.908  23.466  0.00  0.00    -0.075 A 
ATOM     63  C31 non d ame     -31.250  16.049  22.674  0.00  0.00    -0.082 A 
ATOM     64  H49 non d ame     -32.015  14.919  24.345  0.00  0.00     0.084 H 
ATOM     65  C32 non d ame     -30.426  16.031  21.546  0.00  0.00    -0.083 A 
ATOM     66  H50 non d ame     -31.799  16.954  22.938  0.00  0.00     0.083 H 
ATOM     67  C33 non d ame     -29.732  14.875  21.217  0.00  0.00    -0.082 A 
ATOM     68  H51 non d ame     -30.325  16.919  20.922  0.00  0.00     0.083 H 
ATOM     69  C34 non d ame     -29.849  13.732  22.006  0.00  0.00    -0.075 A 
ATOM     70  H52 non d ame     -29.091  14.863  20.334  0.00  0.00     0.083 H 
ATOM     71  H53 non d ame     -29.299  12.829  21.742  0.00  0.00     0.084 H 
ENDBRANCH  58  61
ENDBRANCH  57  58
ENDBRANCH  55  57
ENDBRANCH  52  55
ENDBRANCH  49  52
ENDBRANCH  47  49
BRANCH  47  72
ATOM     72  C24 non d ame     -35.491  15.144  27.126  0.00  0.00    -0.039 C 
ATOM     73  H35 non d ame     -35.678  14.822  28.152  0.00  0.00     0.036 H 
ATOM     74  H36 non d ame     -34.567  15.666  26.879  0.00  0.00     0.036 H 
BRANCH  72  75
ATOM     75  C25 non d ame     -36.704  16.100  26.701  0.00  0.00    -0.001 C 
ATOM     76  C26 non d ame     -36.508  16.592  25.145  0.00  0.00    -0.035 C 
ATOM     77  C27 non d ame     -36.620  17.941  25.096  0.00  0.00     0.085 C 
ATOM     78  H38 non d ame     -35.485  16.408  24.820  0.00  0.00     0.036 H 
ATOM     79  H39 non d ame     -37.344  16.246  24.536  0.00  0.00     0.036 H 
ATOM     80  N5  non d ame     -36.545  18.441  26.518  0.00  0.00    -0.049 N 
ATOM     81  H40 non d ame     -35.740  18.286  24.551  0.00  0.00     0.075 H 
ATOM     82  H41 non d ame     -37.617  18.138  24.702  0.00  0.00     0.075 H 
ATOM     83  C28 non d ame     -36.762  17.146  27.457  0.00  0.00     0.193 C 
ATOM     84  H42 non d ame     -35.604  18.783  26.653  0.00  0.00     0.280 HD
ATOM     85  H43 non d ame     -37.331  19.064  26.643  0.00  0.00     0.280 HD
ATOM     86  H44 non d ame     -37.715  16.977  27.956  0.00  0.00     0.129 H 
ATOM     87  H37 non d ame     -37.673  15.683  26.972  0.00  0.00     0.046 H 
BRANCH  83  88
ATOM     88  O6  non d ame     -35.777  17.118  28.493  0.00  0.00    -0.369 OA
ATOM     89  H45 non d ame     -35.968  16.395  29.095  0.00  0.00     0.212 HD
ENDBRANCH  83  88
ENDBRANCH  72  75
ENDBRANCH  47  72
ENDBRANCH  45  47
ENDBRANCH   1  43
BRANCH   1  90
ATOM     90  C16 non d ame     -39.382  11.382  28.214  0.00  0.00    -0.035 C 
ATOM     91  H21 non d ame     -39.344  11.900  29.172  0.00  0.00     0.037 H 
ATOM     92  H22 non d ame     -39.821  11.873  27.346  0.00  0.00     0.037 H 
BRANCH  90  93
ATOM     93  C17 non d ame     -40.211  10.080  28.451  0.00  0.00    -0.059 C 
ATOM     94  H23 non d ame     -41.209  10.244  28.044  0.00  0.00     0.038 H 
BRANCH  93  95
ATOM     95  C18 non d ame     -39.594   8.846  27.719  0.00  0.00    -0.073 C 
ATOM     96  H24 non d ame     -38.904   9.188  26.948  0.00  0.00     0.028 H 
ATOM     97  H25 non d ame     -39.055   8.229  28.439  0.00  0.00     0.028 H 
ATOM     98  H26 non d ame     -40.389   8.259  27.261  0.00  0.00     0.028 H 
ENDBRANCH  93  95
BRANCH  93  99
ATOM     99  C19 non d ame     -40.373   9.800  29.948  0.00  0.00    -0.073 C 
ATOM    100  H27 non d ame     -39.999   8.800  30.173  0.00  0.00     0.028 H 
ATOM    101  H28 non d ame     -39.806  10.535  30.519  0.00  0.00     0.028 H 
ATOM    102  H29 non d ame     -41.426   9.864  30.218  0.00  0.00     0.028 H 
ENDBRANCH  93  99
ENDBRANCH  90  93
ENDBRANCH   1  90
TORSDOF 26
ENDMDL
MODEL 16
REMARK VINA RESULT:      -6.7      2.376      8.763
REMARK  26 active torsions:
REMARK  status: ('A' for Active; 'I' for Inactive)
REMARK    1  A    between atoms: C2_2  and  C3_3 
REMARK    2  A    between atoms: C4_6  and  C5_7 
REMARK       I    between atoms: C5_7  and  N2_9 
REMARK    3  A    between atoms: N2_9  and  C6_10 
REMARK    4  A    between atoms: C6_10  and  C7_11 
REMARK    5  A    between atoms: C6_10  and  C8_13 
REMARK       I    between atoms: C7_11  and  N3_14 
REMARK    6  A    between atoms: N3_14  and  C9_15 
REMARK    7  A    between atoms: C9_15  and  C10_16 
REMARK    8  A    between atoms: C9_15  and  C11_18 
REMARK       I    between atoms: C10_16  and  N4_21 
REMARK    9  A    between atoms: C11_18  and  C12_19 
REMARK   10  A    between atoms: C11_18  and  C13_20 
REMARK   11  A    between atoms: N4_21  and  C14_22 
REMARK   12  A    between atoms: C14_22  and  C15_23 
REMARK   13  A    between atoms: C14_22  and  C16_25 
REMARK       I    between atoms: C15_23  and  N6_40 
REMARK   14  A    between atoms: C16_25  and  C17_26 
REMARK   15  A    between atoms: C17_26  and  C18_27 
REMARK   16  A    between atoms: C17_26  and  C19_28 
REMARK   17  A    between atoms: C20_29  and  C21_30 
REMARK   18  A    between atoms: C20_29  and  C24_33 
REMARK   19  A    between atoms: C20_29  and  N6_40 
REMARK   20  A    between atoms: C21_30  and  C22_31 
REMARK   21  A    between atoms: C22_31  and  C23_32 
REMARK   22  A    between atoms: C23_32  and  O8_43 
REMARK   23  A    between atoms: C24_33  and  C25_34 
REMARK   24  A    between atoms: C28_38  and  O6_39 
REMARK   25  A    between atoms: C29_42  and  O8_43 
REMARK   26  A    between atoms: C29_42  and  C35_49 
ROOT
ATOM      1  C14 non d ame     -37.298  13.672  25.036  0.00  0.00     0.089 C 
ATOM      2  H20 non d ame     -38.283  13.670  25.505  0.00  0.00     0.087 H 
ENDROOT
BRANCH   1   3
ATOM      3  N4  non d ame     -36.787  15.033  25.099  0.00  0.00    -0.346 N 
ATOM      4  C10 non d ame     -37.346  16.012  26.100  0.00  0.00     0.241 C 
ATOM      5  O4  non d ame     -38.210  15.683  26.844  0.00  0.00    -0.271 OA
ATOM      6  H19 non d ame     -36.052  15.294  24.456  0.00  0.00     0.163 HD
BRANCH   4   7
ATOM      7  C9  non d ame     -36.800  17.414  26.155  0.00  0.00     0.092 C 
ATOM      8  H11 non d ame     -37.243  17.940  27.001  0.00  0.00     0.088 H 
BRANCH   7   9
ATOM      9  N3  non d ame     -35.353  17.368  26.383  0.00  0.00    -0.346 N 
ATOM     10  C7  non d ame     -34.796  17.924  27.592  0.00  0.00     0.240 C 
ATOM     11  O3  non d ame     -35.498  18.415  28.390  0.00  0.00    -0.271 OA
ATOM     12  H10 non d ame     -34.735  16.950  25.703  0.00  0.00     0.163 HD
BRANCH  10  13
ATOM     13  C6  non d ame     -33.254  17.875  27.828  0.00  0.00     0.086 C 
ATOM     14  H6  non d ame     -32.950  18.394  28.737  0.00  0.00     0.086 H 
BRANCH  13  15
ATOM     15  N2  non d ame     -32.847  16.488  27.985  0.00  0.00    -0.343 N 
ATOM     16  C5  non d ame     -32.079  16.092  29.169  0.00  0.00     0.273 C 
ATOM     17  O2  non d ame     -31.793  16.896  29.986  0.00  0.00    -0.266 OA
ATOM     18  H5  non d ame     -33.092  15.808  27.280  0.00  0.00     0.163 HD
BRANCH  16  19
ATOM     19  C4  non d ame     -31.643  14.630  29.348  0.00  0.00     0.154 A 
ATOM     20  C1  non d ame     -32.402  13.566  29.931  0.00  0.00    -0.017 A 
ATOM     21  C2  non d ame     -31.559  12.435  29.858  0.00  0.00     0.077 A 
ATOM     22  H1  non d ame     -33.409  13.608  30.345  0.00  0.00     0.091 H 
ATOM     23  O1  non d ame     -30.449  12.815  29.295  0.00  0.00    -0.218 OA
ATOM     24  N1  non d ame     -30.474  14.092  28.989  0.00  0.00    -0.123 NA
BRANCH  21  25
ATOM     25  C3  non d ame     -31.889  11.031  30.346  0.00  0.00    -0.029 C 
ATOM     26  H2  non d ame     -31.884  10.342  29.502  0.00  0.00     0.036 H 
ATOM     27  H3  non d ame     -31.144  10.715  31.076  0.00  0.00     0.036 H 
ATOM     28  H4  non d ame     -32.875  11.030  30.810  0.00  0.00     0.036 H 
ENDBRANCH  21  25
ENDBRANCH  16  19
ENDBRANCH  13  15
BRANCH  13  29
ATOM     29  C8  non d ame     -32.542  18.492  26.651  0.00  0.00    -0.049 C 
ATOM     30  H7  non d ame     -31.628  18.977  26.992  0.00  0.00     0.030 H 
ATOM     31  H8  non d ame     -32.293  17.713  25.929  0.00  0.00     0.030 H 
ATOM     32  H9  non d ame     -33.192  19.230  26.179  0.00  0.00     0.030 H 
ENDBRANCH  13  29
ENDBRANCH  10  13
ENDBRANCH   7   9
BRANCH   7  33
ATOM     33  C11 non d ame     -37.087  18.135  24.805  0.00  0.00    -0.033 C 
ATOM     34  H12 non d ame     -36.518  17.619  24.030  0.00  0.00     0.042 H 
BRANCH  33  35
ATOM     35  C12 non d ame     -38.596  18.042  24.419  0.00  0.00    -0.071 C 
ATOM     36  H13 non d ame     -39.117  18.931  24.775  0.00  0.00     0.028 H 
ATOM     37  H14 non d ame     -38.690  17.974  23.336  0.00  0.00     0.028 H 
ATOM     38  H15 non d ame     -39.035  17.157  24.879  0.00  0.00     0.028 H 
ENDBRANCH  33  35
BRANCH  33  39
ATOM     39  C13 non d ame     -36.604  19.620  24.850  0.00  0.00    -0.071 C 
ATOM     40  H16 non d ame     -35.541  19.650  25.091  0.00  0.00     0.028 H 
ATOM     41  H17 non d ame     -36.769  20.086  23.878  0.00  0.00     0.028 H 
ATOM     42  H18 non d ame     -37.165  20.162  25.610  0.00  0.00     0.028 H 
ENDBRANCH  33  39
ENDBRANCH   7  33
ENDBRANCH   4   7
ENDBRANCH   1   3
BRANCH   1  43
ATOM     43  C15 non d ame     -36.297  12.732  25.766  0.00  0.00     0.240 C 
ATOM     44  O5  non d ame     -36.135  12.839  26.939  0.00  0.00    -0.271 OA
ATOM     45  N6  non d ame     -35.549  11.692  25.006  0.00  0.00    -0.355 N 
ATOM     46  H46 non d ame     -35.683  11.588  24.011  0.00  0.00     0.162 HD
BRANCH  45  47
ATOM     47  C20 non d ame     -34.602  10.804  25.716  0.00  0.00     0.013 C 
ATOM     48  H30 non d ame     -34.787  10.903  26.785  0.00  0.00     0.072 H 
BRANCH  47  49
ATOM     49  C21 non d ame     -33.186  11.226  25.395  0.00  0.00    -0.038 C 
ATOM     50  H31 non d ame     -32.586  10.316  25.458  0.00  0.00     0.036 H 
ATOM     51  H32 non d ame     -33.247  11.774  24.456  0.00  0.00     0.036 H 
BRANCH  49  52
ATOM     52  C22 non d ame     -32.602  12.205  26.435  0.00  0.00     0.018 C 
ATOM     53  H33 non d ame     -33.367  12.312  27.203  0.00  0.00     0.048 H 
ATOM     54  H34 non d ame     -31.620  11.807  26.696  0.00  0.00     0.048 H 
BRANCH  52  55
ATOM     55  C23 non d ame     -32.350  13.633  25.879  0.00  0.00     0.259 C 
ATOM     56  O7  non d ame     -33.240  14.417  25.803  0.00  0.00    -0.265 OA
BRANCH  55  57
ATOM     57  O8  non d ame     -31.043  13.992  25.445  0.00  0.00    -0.317 OA
BRANCH  57  58
ATOM     58  C29 non d ame     -30.886  15.387  25.166  0.00  0.00     0.052 C 
ATOM     59  H47 non d ame     -31.872  15.828  25.305  0.00  0.00     0.082 H 
ATOM     60  H48 non d ame     -30.048  15.718  25.779  0.00  0.00     0.082 H 
BRANCH  58  61
ATOM     61  C35 non d ame     -30.489  15.534  23.672  0.00  0.00    -0.034 A 
ATOM     62  C30 non d ame     -29.228  15.131  23.243  0.00  0.00    -0.075 A 
ATOM     63  C31 non d ame     -28.872  15.264  21.901  0.00  0.00    -0.082 A 
ATOM     64  H49 non d ame     -28.520  14.713  23.957  0.00  0.00     0.084 H 
ATOM     65  C32 non d ame     -29.781  15.804  20.988  0.00  0.00    -0.083 A 
ATOM     66  H50 non d ame     -27.884  14.946  21.568  0.00  0.00     0.083 H 
ATOM     67  C33 non d ame     -31.037  16.208  21.422  0.00  0.00    -0.082 A 
ATOM     68  H51 non d ame     -29.511  15.911  19.938  0.00  0.00     0.083 H 
ATOM     69  C34 non d ame     -31.398  16.075  22.761  0.00  0.00    -0.075 A 
ATOM     70  H52 non d ame     -31.744  16.631  20.707  0.00  0.00     0.083 H 
ATOM     71  H53 non d ame     -32.386  16.393  23.093  0.00  0.00     0.084 H 
ENDBRANCH  58  61
ENDBRANCH  57  58
ENDBRANCH  55  57
ENDBRANCH  52  55
ENDBRANCH  49  52
ENDBRANCH  47  49
BRANCH  47  72
ATOM     72  C24 non d ame     -34.817   9.358  25.272  0.00  0.00    -0.039 C 
ATOM     73  H35 non d ame     -35.764   9.360  24.731  0.00  0.00     0.036 H 
ATOM     74  H36 non d ame     -33.898   9.073  24.760  0.00  0.00     0.036 H 
BRANCH  72  75
ATOM     75  C25 non d ame     -34.986   8.373  26.523  0.00  0.00    -0.001 C 
ATOM     76  C26 non d ame     -35.058   9.244  27.915  0.00  0.00    -0.035 C 
ATOM     77  C27 non d ame     -34.160   8.738  28.794  0.00  0.00     0.085 C 
ATOM     78  H38 non d ame     -34.701  10.259  27.741  0.00  0.00     0.036 H 
ATOM     79  H39 non d ame     -36.017   9.081  28.409  0.00  0.00     0.036 H 
ATOM     80  N5  non d ame     -33.254   7.815  28.016  0.00  0.00    -0.049 N 
ATOM     81  H40 non d ame     -33.580   9.594  29.143  0.00  0.00     0.075 H 
ATOM     82  H41 non d ame     -34.744   8.150  29.502  0.00  0.00     0.075 H 
ATOM     83  C28 non d ame     -33.995   7.548  26.607  0.00  0.00     0.193 C 
ATOM     84  H42 non d ame     -32.403   8.329  27.840  0.00  0.00     0.280 HD
ATOM     85  H43 non d ame     -33.221   6.946  28.532  0.00  0.00     0.280 HD
ATOM     86  H44 non d ame     -34.506   6.605  26.419  0.00  0.00     0.129 H 
ATOM     87  H37 non d ame     -35.767   7.630  26.362  0.00  0.00     0.046 H 
BRANCH  83  88
ATOM     88  O6  non d ame     -33.072   7.704  25.527  0.00  0.00    -0.369 OA
ATOM     89  H45 non d ame     -32.987   8.635  25.311  0.00  0.00     0.212 HD
ENDBRANCH  83  88
ENDBRANCH  72  75
ENDBRANCH  47  72
ENDBRANCH  45  47
ENDBRANCH   1  43
BRANCH   1  90
ATOM     90  C16 non d ame     -37.421  13.255  23.579  0.00  0.00    -0.035 C 
ATOM     91  H21 non d ame     -36.398  13.121  23.230  0.00  0.00     0.037 H 
ATOM     92  H22 non d ame     -38.112  12.412  23.577  0.00  0.00     0.037 H 
BRANCH  90  93
ATOM     93  C17 non d ame     -38.058  14.350  22.665  0.00  0.00    -0.059 C 
ATOM     94  H23 non d ame     -37.608  15.306  22.931  0.00  0.00     0.038 H 
BRANCH  93  95
ATOM     95  C18 non d ame     -37.771  14.093  21.151  0.00  0.00    -0.073 C 
ATOM     96  H24 non d ame     -36.737  13.771  21.026  0.00  0.00     0.028 H 
ATOM     97  H25 non d ame     -38.440  13.315  20.782  0.00  0.00     0.028 H 
ATOM     98  H26 non d ame     -37.937  15.011  20.588  0.00  0.00     0.028 H 
ENDBRANCH  93  95
BRANCH  93  99
ATOM     99  C19 non d ame     -39.562  14.468  22.921  0.00  0.00    -0.073 C 
ATOM    100  H27 non d ame     -39.819  15.513  23.103  0.00  0.00     0.028 H 
ATOM    101  H28 non d ame     -40.109  14.108  22.050  0.00  0.00     0.028 H 
ATOM    102  H29 non d ame     -39.831  13.870  23.791  0.00  0.00     0.028 H 
ENDBRANCH  93  99
ENDBRANCH  90  93
ENDBRANCH   1  90
TORSDOF 26
ENDMDL
MODEL 17
REMARK VINA RESULT:      -6.7      3.629      9.416
REMARK  26 active torsions:
REMARK  status: ('A' for Active; 'I' for Inactive)
REMARK    1  A    between atoms: C2_2  and  C3_3 
REMARK    2  A    between atoms: C4_6  and  C5_7 
REMARK       I    between atoms: C5_7  and  N2_9 
REMARK    3  A    between atoms: N2_9  and  C6_10 
REMARK    4  A    between atoms: C6_10  and  C7_11 
REMARK    5  A    between atoms: C6_10  and  C8_13 
REMARK       I    between atoms: C7_11  and  N3_14 
REMARK    6  A    between atoms: N3_14  and  C9_15 
REMARK    7  A    between atoms: C9_15  and  C10_16 
REMARK    8  A    between atoms: C9_15  and  C11_18 
REMARK       I    between atoms: C10_16  and  N4_21 
REMARK    9  A    between atoms: C11_18  and  C12_19 
REMARK   10  A    between atoms: C11_18  and  C13_20 
REMARK   11  A    between atoms: N4_21  and  C14_22 
REMARK   12  A    between atoms: C14_22  and  C15_23 
REMARK   13  A    between atoms: C14_22  and  C16_25 
REMARK       I    between atoms: C15_23  and  N6_40 
REMARK   14  A    between atoms: C16_25  and  C17_26 
REMARK   15  A    between atoms: C17_26  and  C18_27 
REMARK   16  A    between atoms: C17_26  and  C19_28 
REMARK   17  A    between atoms: C20_29  and  C21_30 
REMARK   18  A    between atoms: C20_29  and  C24_33 
REMARK   19  A    between atoms: C20_29  and  N6_40 
REMARK   20  A    between atoms: C21_30  and  C22_31 
REMARK   21  A    between atoms: C22_31  and  C23_32 
REMARK   22  A    between atoms: C23_32  and  O8_43 
REMARK   23  A    between atoms: C24_33  and  C25_34 
REMARK   24  A    between atoms: C28_38  and  O6_39 
REMARK   25  A    between atoms: C29_42  and  O8_43 
REMARK   26  A    between atoms: C29_42  and  C35_49 
ROOT
ATOM      1  C14 non d ame     -34.868   8.338  31.260  0.00  0.00     0.089 C 
ATOM      2  H20 non d ame     -34.401   8.350  32.245  0.00  0.00     0.087 H 
ENDROOT
BRANCH   1   3
ATOM      3  N4  non d ame     -34.009   9.093  30.360  0.00  0.00    -0.346 N 
ATOM      4  C10 non d ame     -33.487  10.449  30.763  0.00  0.00     0.241 C 
ATOM      5  O4  non d ame     -33.775  10.914  31.816  0.00  0.00    -0.271 OA
ATOM      6  H19 non d ame     -33.778   8.681  29.467  0.00  0.00     0.163 HD
BRANCH   4   7
ATOM      7  C9  non d ame     -32.594  11.214  29.821  0.00  0.00     0.092 C 
ATOM      8  H11 non d ame     -31.916  10.518  29.327  0.00  0.00     0.088 H 
BRANCH   7   9
ATOM      9  N3  non d ame     -33.408  11.842  28.778  0.00  0.00    -0.346 N 
ATOM     10  C7  non d ame     -33.402  11.307  27.438  0.00  0.00     0.240 C 
ATOM     11  O3  non d ame     -32.745  10.372  27.183  0.00  0.00    -0.271 OA
ATOM     12  H10 non d ame     -33.978  12.650  28.982  0.00  0.00     0.163 HD
BRANCH  10  13
ATOM     13  C6  non d ame     -34.268  11.982  26.330  0.00  0.00     0.086 C 
ATOM     14  H6  non d ame     -34.952  12.731  26.728  0.00  0.00     0.086 H 
BRANCH  13  15
ATOM     15  N2  non d ame     -33.389  12.673  25.401  0.00  0.00    -0.343 N 
ATOM     16  C5  non d ame     -32.850  13.987  25.760  0.00  0.00     0.273 C 
ATOM     17  O2  non d ame     -33.131  14.480  26.796  0.00  0.00    -0.266 OA
ATOM     18  H5  non d ame     -33.157  12.246  24.516  0.00  0.00     0.163 HD
BRANCH  16  19
ATOM     19  C4  non d ame     -31.919  14.728  24.788  0.00  0.00     0.154 A 
ATOM     20  C1  non d ame     -30.716  14.231  24.194  0.00  0.00    -0.017 A 
ATOM     21  C2  non d ame     -30.242  15.291  23.389  0.00  0.00     0.077 A 
ATOM     22  H1  non d ame     -30.256  13.252  24.328  0.00  0.00     0.091 H 
ATOM     23  O1  non d ame     -31.084  16.276  23.511  0.00  0.00    -0.218 OA
ATOM     24  N1  non d ame     -32.070  15.971  24.323  0.00  0.00    -0.123 NA
BRANCH  21  25
ATOM     25  C3  non d ame     -28.981  15.281  22.535  0.00  0.00    -0.029 C 
ATOM     26  H2  non d ame     -29.256  15.307  21.481  0.00  0.00     0.036 H 
ATOM     27  H3  non d ame     -28.375  16.155  22.773  0.00  0.00     0.036 H 
ATOM     28  H4  non d ame     -28.411  14.376  22.739  0.00  0.00     0.036 H 
ENDBRANCH  21  25
ENDBRANCH  16  19
ENDBRANCH  13  15
BRANCH  13  29
ATOM     29  C8  non d ame     -35.066  10.930  25.601  0.00  0.00    -0.049 C 
ATOM     30  H7  non d ame     -36.118  11.210  25.597  0.00  0.00     0.030 H 
ATOM     31  H8  non d ame     -34.707  10.850  24.575  0.00  0.00     0.030 H 
ATOM     32  H9  non d ame     -34.946   9.970  26.104  0.00  0.00     0.030 H 
ENDBRANCH  13  29
ENDBRANCH  10  13
ENDBRANCH   7   9
BRANCH   7  33
ATOM     33  C11 non d ame     -31.829  12.315  30.612  0.00  0.00    -0.033 C 
ATOM     34  H12 non d ame     -32.378  12.498  31.536  0.00  0.00     0.042 H 
BRANCH  33  35
ATOM     35  C12 non d ame     -30.395  11.840  31.005  0.00  0.00    -0.071 C 
ATOM     36  H13 non d ame     -29.655  12.442  30.477  0.00  0.00     0.028 H 
ATOM     37  H14 non d ame     -30.257  11.955  32.080  0.00  0.00     0.028 H 
ATOM     38  H15 non d ame     -30.271  10.792  30.732  0.00  0.00     0.028 H 
ENDBRANCH  33  35
BRANCH  33  39
ATOM     39  C13 non d ame     -31.782  13.652  29.805  0.00  0.00    -0.071 C 
ATOM     40  H16 non d ame     -32.796  13.955  29.543  0.00  0.00     0.028 H 
ATOM     41  H17 non d ame     -31.316  14.428  30.414  0.00  0.00     0.028 H 
ATOM     42  H18 non d ame     -31.199  13.508  28.896  0.00  0.00     0.028 H 
ENDBRANCH  33  39
ENDBRANCH   7  33
ENDBRANCH   4   7
ENDBRANCH   1   3
BRANCH   1  43
ATOM     43  C15 non d ame     -35.025   6.896  30.701  0.00  0.00     0.240 C 
ATOM     44  O5  non d ame     -35.654   6.092  31.310  0.00  0.00    -0.271 OA
ATOM     45  N6  non d ame     -34.400   6.518  29.402  0.00  0.00    -0.355 N 
ATOM     46  H46 non d ame     -33.868   7.195  28.873  0.00  0.00     0.162 HD
BRANCH  45  47
ATOM     47  C20 non d ame     -34.560   5.143  28.882  0.00  0.00     0.013 C 
ATOM     48  H30 non d ame     -34.922   4.516  29.698  0.00  0.00     0.072 H 
BRANCH  47  49
ATOM     49  C21 non d ame     -33.223   4.634  28.394  0.00  0.00    -0.038 C 
ATOM     50  H31 non d ame     -32.474   5.262  28.879  0.00  0.00     0.036 H 
ATOM     51  H32 non d ame     -33.232   3.560  28.576  0.00  0.00     0.036 H 
BRANCH  49  52
ATOM     52  C22 non d ame     -33.029   4.819  26.874  0.00  0.00     0.018 C 
ATOM     53  H33 non d ame     -32.405   3.986  26.552  0.00  0.00     0.048 H 
ATOM     54  H34 non d ame     -34.032   4.938  26.461  0.00  0.00     0.048 H 
BRANCH  52  55
ATOM     55  C23 non d ame     -32.253   6.109  26.493  0.00  0.00     0.259 C 
ATOM     56  O7  non d ame     -31.917   6.881  27.332  0.00  0.00    -0.265 OA
BRANCH  55  57
ATOM     57  O8  non d ame     -31.959   6.368  25.125  0.00  0.00    -0.317 OA
BRANCH  57  58
ATOM     58  C29 non d ame     -32.707   7.451  24.564  0.00  0.00     0.052 C 
ATOM     59  H47 non d ame     -33.381   6.998  23.837  0.00  0.00     0.082 H 
ATOM     60  H48 non d ame     -33.112   8.001  25.414  0.00  0.00     0.082 H 
BRANCH  58  61
ATOM     61  C35 non d ame     -31.717   8.376  23.807  0.00  0.00    -0.034 A 
ATOM     62  C30 non d ame     -31.791   9.756  23.970  0.00  0.00    -0.075 A 
ATOM     63  C31 non d ame     -30.901  10.587  23.289  0.00  0.00    -0.082 A 
ATOM     64  H49 non d ame     -32.544  10.186  24.629  0.00  0.00     0.084 H 
ATOM     65  C32 non d ame     -29.939  10.033  22.441  0.00  0.00    -0.083 A 
ATOM     66  H50 non d ame     -30.960  11.668  23.420  0.00  0.00     0.083 H 
ATOM     67  C33 non d ame     -29.872   8.656  22.280  0.00  0.00    -0.082 A 
ATOM     68  H51 non d ame     -29.239  10.676  21.906  0.00  0.00     0.083 H 
ATOM     69  C34 non d ame     -30.757   7.822  22.959  0.00  0.00    -0.075 A 
ATOM     70  H52 non d ame     -29.121   8.227  21.616  0.00  0.00     0.083 H 
ATOM     71  H53 non d ame     -30.697   6.741  22.828  0.00  0.00     0.084 H 
ENDBRANCH  58  61
ENDBRANCH  57  58
ENDBRANCH  55  57
ENDBRANCH  52  55
ENDBRANCH  49  52
ENDBRANCH  47  49
BRANCH  47  72
ATOM     72  C24 non d ame     -35.560   5.139  27.727  0.00  0.00    -0.039 C 
ATOM     73  H35 non d ame     -35.590   6.169  27.368  0.00  0.00     0.036 H 
ATOM     74  H36 non d ame     -35.232   4.340  27.063  0.00  0.00     0.036 H 
BRANCH  72  75
ATOM     75  C25 non d ame     -37.037   4.766  28.223  0.00  0.00    -0.001 C 
ATOM     76  C26 non d ame     -37.501   3.332  27.567  0.00  0.00    -0.035 C 
ATOM     77  C27 non d ame     -38.714   3.490  26.987  0.00  0.00     0.085 C 
ATOM     78  H38 non d ame     -36.850   3.074  26.732  0.00  0.00     0.036 H 
ATOM     79  H39 non d ame     -37.689   2.604  28.356  0.00  0.00     0.036 H 
ATOM     80  N5  non d ame     -38.972   4.975  26.899  0.00  0.00    -0.049 N 
ATOM     81  H40 non d ame     -38.610   3.088  25.978  0.00  0.00     0.075 H 
ATOM     82  H41 non d ame     -39.429   3.046  27.679  0.00  0.00     0.075 H 
ATOM     83  C28 non d ame     -37.890   5.672  27.874  0.00  0.00     0.193 C 
ATOM     84  H42 non d ame     -38.769   5.246  25.948  0.00  0.00     0.280 HD
ATOM     85  H43 non d ame     -39.895   5.128  27.282  0.00  0.00     0.280 HD
ATOM     86  H44 non d ame     -38.187   6.051  28.850  0.00  0.00     0.129 H 
ATOM     87  H37 non d ame     -37.152   4.880  29.301  0.00  0.00     0.046 H 
BRANCH  83  88
ATOM     88  O6  non d ame     -37.265   6.773  27.210  0.00  0.00    -0.369 OA
ATOM     89  H45 non d ame     -36.617   6.443  26.584  0.00  0.00     0.212 HD
ENDBRANCH  83  88
ENDBRANCH  72  75
ENDBRANCH  47  72
ENDBRANCH  45  47
ENDBRANCH   1  43
BRANCH   1  90
ATOM     90  C16 non d ame     -36.229   9.012  31.328  0.00  0.00    -0.035 C 
ATOM     91  H21 non d ame     -36.778   8.477  32.102  0.00  0.00     0.037 H 
ATOM     92  H22 non d ame     -36.020  10.075  31.445  0.00  0.00     0.037 H 
BRANCH  90  93
ATOM     93  C17 non d ame     -37.066   8.868  30.017  0.00  0.00    -0.059 C 
ATOM     94  H23 non d ame     -36.565   8.137  29.383  0.00  0.00     0.038 H 
BRANCH  93  95
ATOM     95  C18 non d ame     -38.512   8.347  30.295  0.00  0.00    -0.073 C 
ATOM     96  H24 non d ame     -38.486   7.615  31.102  0.00  0.00     0.028 H 
ATOM     97  H25 non d ame     -39.150   9.183  30.585  0.00  0.00     0.028 H 
ATOM     98  H26 non d ame     -38.911   7.882  29.394  0.00  0.00     0.028 H 
ENDBRANCH  93  95
BRANCH  93  99
ATOM     99  C19 non d ame     -37.103  10.190  29.245  0.00  0.00    -0.073 C 
ATOM    100  H27 non d ame     -37.202  11.019  29.947  0.00  0.00     0.028 H 
ATOM    101  H28 non d ame     -36.179  10.305  28.677  0.00  0.00     0.028 H 
ATOM    102  H29 non d ame     -37.951  10.188  28.561  0.00  0.00     0.028 H 
ENDBRANCH  93  99
ENDBRANCH  90  93
ENDBRANCH   1  90
TORSDOF 26
ENDMDL
MODEL 18
REMARK VINA RESULT:      -6.6      3.271      7.319
REMARK  26 active torsions:
REMARK  status: ('A' for Active; 'I' for Inactive)
REMARK    1  A    between atoms: C2_2  and  C3_3 
REMARK    2  A    between atoms: C4_6  and  C5_7 
REMARK       I    between atoms: C5_7  and  N2_9 
REMARK    3  A    between atoms: N2_9  and  C6_10 
REMARK    4  A    between atoms: C6_10  and  C7_11 
REMARK    5  A    between atoms: C6_10  and  C8_13 
REMARK       I    between atoms: C7_11  and  N3_14 
REMARK    6  A    between atoms: N3_14  and  C9_15 
REMARK    7  A    between atoms: C9_15  and  C10_16 
REMARK    8  A    between atoms: C9_15  and  C11_18 
REMARK       I    between atoms: C10_16  and  N4_21 
REMARK    9  A    between atoms: C11_18  and  C12_19 
REMARK   10  A    between atoms: C11_18  and  C13_20 
REMARK   11  A    between atoms: N4_21  and  C14_22 
REMARK   12  A    between atoms: C14_22  and  C15_23 
REMARK   13  A    between atoms: C14_22  and  C16_25 
REMARK       I    between atoms: C15_23  and  N6_40 
REMARK   14  A    between atoms: C16_25  and  C17_26 
REMARK   15  A    between atoms: C17_26  and  C18_27 
REMARK   16  A    between atoms: C17_26  and  C19_28 
REMARK   17  A    between atoms: C20_29  and  C21_30 
REMARK   18  A    between atoms: C20_29  and  C24_33 
REMARK   19  A    between atoms: C20_29  and  N6_40 
REMARK   20  A    between atoms: C21_30  and  C22_31 
REMARK   21  A    between atoms: C22_31  and  C23_32 
REMARK   22  A    between atoms: C23_32  and  O8_43 
REMARK   23  A    between atoms: C24_33  and  C25_34 
REMARK   24  A    between atoms: C28_38  and  O6_39 
REMARK   25  A    between atoms: C29_42  and  O8_43 
REMARK   26  A    between atoms: C29_42  and  C35_49 
ROOT
ATOM      1  C14 non d ame     -32.230   8.892  24.712  0.00  0.00     0.089 C 
ATOM      2  H20 non d ame     -31.210   8.531  24.842  0.00  0.00     0.087 H 
ENDROOT
BRANCH   1   3
ATOM      3  N4  non d ame     -33.105   7.729  24.677  0.00  0.00    -0.346 N 
ATOM      4  C10 non d ame     -32.528   6.339  24.773  0.00  0.00     0.241 C 
ATOM      5  O4  non d ame     -31.357   6.181  24.874  0.00  0.00    -0.271 OA
ATOM      6  H19 non d ame     -34.099   7.886  24.588  0.00  0.00     0.163 HD
BRANCH   4   7
ATOM      7  C9  non d ame     -33.449   5.148  24.741  0.00  0.00     0.092 C 
ATOM      8  H11 non d ame     -32.870   4.241  24.920  0.00  0.00     0.088 H 
BRANCH   7   9
ATOM      9  N3  non d ame     -34.429   5.258  25.824  0.00  0.00    -0.346 N 
ATOM     10  C7  non d ame     -34.252   4.497  27.037  0.00  0.00     0.240 C 
ATOM     11  O3  non d ame     -33.327   3.789  27.156  0.00  0.00    -0.271 OA
ATOM     12  H10 non d ame     -35.233   5.862  25.736  0.00  0.00     0.163 HD
BRANCH  10  13
ATOM     13  C6  non d ame     -35.301   4.615  28.186  0.00  0.00     0.086 C 
ATOM     14  H6  non d ame     -35.028   4.035  29.067  0.00  0.00     0.086 H 
BRANCH  13  15
ATOM     15  N2  non d ame     -35.379   6.004  28.610  0.00  0.00    -0.343 N 
ATOM     16  C5  non d ame     -35.122   6.345  30.011  0.00  0.00     0.273 C 
ATOM     17  O2  non d ame     -34.855   5.496  30.789  0.00  0.00    -0.266 OA
ATOM     18  H5  non d ame     -35.612   6.722  27.940  0.00  0.00     0.163 HD
BRANCH  16  19
ATOM     19  C4  non d ame     -35.200   7.808  30.473  0.00  0.00     0.154 A 
ATOM     20  C1  non d ame     -35.128   8.297  31.816  0.00  0.00    -0.017 A 
ATOM     21  C2  non d ame     -35.249   9.700  31.700  0.00  0.00     0.077 A 
ATOM     22  H1  non d ame     -35.009   7.722  32.734  0.00  0.00     0.091 H 
ATOM     23  O1  non d ame     -35.371   9.974  30.434  0.00  0.00    -0.218 OA
ATOM     24  N1  non d ame     -35.346   8.887  29.699  0.00  0.00    -0.123 NA
BRANCH  21  25
ATOM     25  C3  non d ame     -35.235  10.703  32.846  0.00  0.00    -0.029 C 
ATOM     26  H2  non d ame     -36.000  11.461  32.675  0.00  0.00     0.036 H 
ATOM     27  H3  non d ame     -35.439  10.187  33.784  0.00  0.00     0.036 H 
ATOM     28  H4  non d ame     -34.258  11.181  32.899  0.00  0.00     0.036 H 
ENDBRANCH  21  25
ENDBRANCH  16  19
ENDBRANCH  13  15
BRANCH  13  29
ATOM     29  C8  non d ame     -36.647   4.150  27.692  0.00  0.00    -0.049 C 
ATOM     30  H7  non d ame     -37.393   4.300  28.472  0.00  0.00     0.030 H 
ATOM     31  H8  non d ame     -36.927   4.723  26.808  0.00  0.00     0.030 H 
ATOM     32  H9  non d ame     -36.595   3.091  27.437  0.00  0.00     0.030 H 
ENDBRANCH  13  29
ENDBRANCH  10  13
ENDBRANCH   7   9
BRANCH   7  33
ATOM     33  C11 non d ame     -34.193   5.104  23.374  0.00  0.00    -0.033 C 
ATOM     34  H12 non d ame     -34.497   6.123  23.134  0.00  0.00     0.042 H 
BRANCH  33  35
ATOM     35  C12 non d ame     -33.252   4.613  22.229  0.00  0.00    -0.071 C 
ATOM     36  H13 non d ame     -33.240   3.523  22.212  0.00  0.00     0.028 H 
ATOM     37  H14 non d ame     -33.618   4.987  21.274  0.00  0.00     0.028 H 
ATOM     38  H15 non d ame     -32.243   4.985  22.403  0.00  0.00     0.028 H 
ENDBRANCH  33  35
BRANCH  33  39
ATOM     39  C13 non d ame     -35.481   4.225  23.466  0.00  0.00    -0.071 C 
ATOM     40  H16 non d ame     -35.763   4.100  24.512  0.00  0.00     0.028 H 
ATOM     41  H17 non d ame     -36.293   4.712  22.926  0.00  0.00     0.028 H 
ATOM     42  H18 non d ame     -35.287   3.249  23.023  0.00  0.00     0.028 H 
ENDBRANCH  33  39
ENDBRANCH   7  33
ENDBRANCH   4   7
ENDBRANCH   1   3
BRANCH   1  43
ATOM     43  C15 non d ame     -32.680   9.815  25.880  0.00  0.00     0.240 C 
ATOM     44  O5  non d ame     -33.126   9.338  26.873  0.00  0.00    -0.271 OA
ATOM     45  N6  non d ame     -32.546  11.295  25.765  0.00  0.00    -0.355 N 
ATOM     46  H46 non d ame     -32.163  11.712  24.928  0.00  0.00     0.162 HD
BRANCH  45  47
ATOM     47  C20 non d ame     -32.976  12.161  26.885  0.00  0.00     0.013 C 
ATOM     48  H30 non d ame     -33.446  11.526  27.637  0.00  0.00     0.072 H 
BRANCH  47  49
ATOM     49  C21 non d ame     -33.970  13.180  26.375  0.00  0.00    -0.038 C 
ATOM     50  H31 non d ame     -33.774  13.274  25.306  0.00  0.00     0.036 H 
ATOM     51  H32 non d ame     -34.945  12.839  26.722  0.00  0.00     0.036 H 
BRANCH  49  52
ATOM     52  C22 non d ame     -33.756  14.583  26.983  0.00  0.00     0.018 C 
ATOM     53  H33 non d ame     -34.721  14.879  27.391  0.00  0.00     0.048 H 
ATOM     54  H34 non d ame     -32.892  14.489  27.643  0.00  0.00     0.048 H 
BRANCH  52  55
ATOM     55  C23 non d ame     -33.379  15.668  25.938  0.00  0.00     0.259 C 
ATOM     56  O7  non d ame     -34.214  16.379  25.479  0.00  0.00    -0.265 OA
BRANCH  55  57
ATOM     57  O8  non d ame     -32.025  15.794  25.520  0.00  0.00    -0.317 OA
BRANCH  57  58
ATOM     58  C29 non d ame     -31.872  16.274  24.181  0.00  0.00     0.052 C 
ATOM     59  H47 non d ame     -32.875  16.289  23.757  0.00  0.00     0.082 H 
ATOM     60  H48 non d ame     -31.300  17.198  24.262  0.00  0.00     0.082 H 
BRANCH  58  61
ATOM     61  C35 non d ame     -31.022  15.239  23.396  0.00  0.00    -0.034 A 
ATOM     62  C30 non d ame     -31.002  13.906  23.797  0.00  0.00    -0.075 A 
ATOM     63  C31 non d ame     -30.239  12.977  23.092  0.00  0.00    -0.082 A 
ATOM     64  H49 non d ame     -31.583  13.591  24.663  0.00  0.00     0.084 H 
ATOM     65  C32 non d ame     -29.492  13.384  21.983  0.00  0.00    -0.083 A 
ATOM     66  H50 non d ame     -30.227  11.933  23.408  0.00  0.00     0.083 H 
ATOM     67  C33 non d ame     -29.512  14.715  21.589  0.00  0.00    -0.082 A 
ATOM     68  H51 non d ame     -28.894  12.663  21.426  0.00  0.00     0.083 H 
ATOM     69  C34 non d ame     -30.275  15.647  22.289  0.00  0.00    -0.075 A 
ATOM     70  H52 non d ame     -28.927  15.030  20.725  0.00  0.00     0.083 H 
ATOM     71  H53 non d ame     -30.287  16.690  21.972  0.00  0.00     0.084 H 
ENDBRANCH  58  61
ENDBRANCH  57  58
ENDBRANCH  55  57
ENDBRANCH  52  55
ENDBRANCH  49  52
ENDBRANCH  47  49
BRANCH  47  72
ATOM     72  C24 non d ame     -31.766  12.879  27.478  0.00  0.00    -0.039 C 
ATOM     73  H35 non d ame     -31.002  12.848  26.700  0.00  0.00     0.036 H 
ATOM     74  H36 non d ame     -32.144  13.838  27.832  0.00  0.00     0.036 H 
BRANCH  72  75
ATOM     75  C25 non d ame     -31.180  12.103  28.750  0.00  0.00    -0.001 C 
ATOM     76  C26 non d ame     -32.408  11.414  29.599  0.00  0.00    -0.035 C 
ATOM     77  C27 non d ame     -32.293  11.771  30.900  0.00  0.00     0.085 C 
ATOM     78  H38 non d ame     -33.361  11.848  29.298  0.00  0.00     0.036 H 
ATOM     79  H39 non d ame     -32.285  10.330  29.621  0.00  0.00     0.036 H 
ATOM     80  N5  non d ame     -31.295  12.902  30.961  0.00  0.00    -0.049 N 
ATOM     81  H40 non d ame     -33.275  12.148  31.187  0.00  0.00     0.075 H 
ATOM     82  H41 non d ame     -31.874  10.901  31.406  0.00  0.00     0.075 H 
ATOM     83  C28 non d ame     -30.540  12.905  29.534  0.00  0.00     0.193 C 
ATOM     84  H42 non d ame     -31.832  13.754  31.043  0.00  0.00     0.280 HD
ATOM     85  H43 non d ame     -30.627  12.656  31.678  0.00  0.00     0.280 HD
ATOM     86  H44 non d ame     -29.530  12.510  29.441  0.00  0.00     0.129 H 
ATOM     87  H37 non d ame     -30.336  11.464  28.491  0.00  0.00     0.046 H 
BRANCH  83  88
ATOM     88  O6  non d ame     -30.479  14.234  29.012  0.00  0.00    -0.369 OA
ATOM     89  H45 non d ame     -30.938  14.833  29.605  0.00  0.00     0.212 HD
ENDBRANCH  83  88
ENDBRANCH  72  75
ENDBRANCH  47  72
ENDBRANCH  45  47
ENDBRANCH   1  43
BRANCH   1  90
ATOM     90  C16 non d ame     -32.347   9.640  23.394  0.00  0.00    -0.035 C 
ATOM     91  H21 non d ame     -33.274   9.288  22.943  0.00  0.00     0.037 H 
ATOM     92  H22 non d ame     -32.232  10.694  23.649  0.00  0.00     0.037 H 
BRANCH  90  93
ATOM     93  C17 non d ame     -31.209   9.305  22.379  0.00  0.00    -0.059 C 
ATOM     94  H23 non d ame     -31.194  10.092  21.626  0.00  0.00     0.038 H 
BRANCH  93  95
ATOM     95  C18 non d ame     -29.803   9.269  23.061  0.00  0.00    -0.073 C 
ATOM     96  H24 non d ame     -29.551  10.265  23.426  0.00  0.00     0.028 H 
ATOM     97  H25 non d ame     -29.823   8.571  23.898  0.00  0.00     0.028 H 
ATOM     98  H26 non d ame     -29.056   8.948  22.336  0.00  0.00     0.028 H 
ENDBRANCH  93  95
BRANCH  93  99
ATOM     99  C19 non d ame     -31.494   7.987  21.653  0.00  0.00    -0.073 C 
ATOM    100  H27 non d ame     -32.009   8.193  20.714  0.00  0.00     0.028 H 
ATOM    101  H28 non d ame     -30.555   7.475  21.446  0.00  0.00     0.028 H 
ATOM    102  H29 non d ame     -32.121   7.355  22.281  0.00  0.00     0.028 H 
ENDBRANCH  93  99
ENDBRANCH  90  93
ENDBRANCH   1  90
TORSDOF 26
ENDMDL
MODEL 19
REMARK VINA RESULT:      -6.6      2.888      7.694
REMARK  26 active torsions:
REMARK  status: ('A' for Active; 'I' for Inactive)
REMARK    1  A    between atoms: C2_2  and  C3_3 
REMARK    2  A    between atoms: C4_6  and  C5_7 
REMARK       I    between atoms: C5_7  and  N2_9 
REMARK    3  A    between atoms: N2_9  and  C6_10 
REMARK    4  A    between atoms: C6_10  and  C7_11 
REMARK    5  A    between atoms: C6_10  and  C8_13 
REMARK       I    between atoms: C7_11  and  N3_14 
REMARK    6  A    between atoms: N3_14  and  C9_15 
REMARK    7  A    between atoms: C9_15  and  C10_16 
REMARK    8  A    between atoms: C9_15  and  C11_18 
REMARK       I    between atoms: C10_16  and  N4_21 
REMARK    9  A    between atoms: C11_18  and  C12_19 
REMARK   10  A    between atoms: C11_18  and  C13_20 
REMARK   11  A    between atoms: N4_21  and  C14_22 
REMARK   12  A    between atoms: C14_22  and  C15_23 
REMARK   13  A    between atoms: C14_22  and  C16_25 
REMARK       I    between atoms: C15_23  and  N6_40 
REMARK   14  A    between atoms: C16_25  and  C17_26 
REMARK   15  A    between atoms: C17_26  and  C18_27 
REMARK   16  A    between atoms: C17_26  and  C19_28 
REMARK   17  A    between atoms: C20_29  and  C21_30 
REMARK   18  A    between atoms: C20_29  and  C24_33 
REMARK   19  A    between atoms: C20_29  and  N6_40 
REMARK   20  A    between atoms: C21_30  and  C22_31 
REMARK   21  A    between atoms: C22_31  and  C23_32 
REMARK   22  A    between atoms: C23_32  and  O8_43 
REMARK   23  A    between atoms: C24_33  and  C25_34 
REMARK   24  A    between atoms: C28_38  and  O6_39 
REMARK   25  A    between atoms: C29_42  and  O8_43 
REMARK   26  A    between atoms: C29_42  and  C35_49 
ROOT
ATOM      1  C14 non d ame     -32.936   9.257  27.503  0.00  0.00     0.089 C 
ATOM      2  H20 non d ame     -31.910   8.888  27.476  0.00  0.00     0.087 H 
ENDROOT
BRANCH   1   3
ATOM      3  N4  non d ame     -32.882  10.680  27.804  0.00  0.00    -0.346 N 
ATOM      4  C10 non d ame     -31.783  11.539  27.231  0.00  0.00     0.241 C 
ATOM      5  O4  non d ame     -30.951  11.062  26.532  0.00  0.00    -0.271 OA
ATOM      6  H19 non d ame     -33.598  11.066  28.403  0.00  0.00     0.163 HD
BRANCH   4   7
ATOM      7  C9  non d ame     -31.746  13.010  27.548  0.00  0.00     0.092 C 
ATOM      8  H11 non d ame     -30.712  13.354  27.537  0.00  0.00     0.088 H 
BRANCH   7   9
ATOM      9  N3  non d ame     -32.462  13.754  26.508  0.00  0.00    -0.346 N 
ATOM     10  C7  non d ame     -31.727  14.394  25.445  0.00  0.00     0.240 C 
ATOM     11  O3  non d ame     -30.559  14.322  25.413  0.00  0.00    -0.271 OA
ATOM     12  H10 non d ame     -33.468  13.826  26.523  0.00  0.00     0.163 HD
BRANCH  10  13
ATOM     13  C6  non d ame     -32.494  15.187  24.341  0.00  0.00     0.086 C 
ATOM     14  H6  non d ame     -33.445  14.726  24.076  0.00  0.00     0.086 H 
BRANCH  13  15
ATOM     15  N2  non d ame     -32.800  16.516  24.843  0.00  0.00    -0.343 N 
ATOM     16  C5  non d ame     -34.059  16.744  25.558  0.00  0.00     0.273 C 
ATOM     17  O2  non d ame     -34.817  15.853  25.721  0.00  0.00    -0.266 OA
ATOM     18  H5  non d ame     -32.148  17.272  24.696  0.00  0.00     0.163 HD
BRANCH  16  19
ATOM     19  C4  non d ame     -34.395  18.144  26.095  0.00  0.00     0.154 A 
ATOM     20  C1  non d ame     -35.689  18.748  26.184  0.00  0.00    -0.017 A 
ATOM     21  C2  non d ame     -35.456  20.025  26.742  0.00  0.00     0.077 A 
ATOM     22  H1  non d ame     -36.649  18.326  25.889  0.00  0.00     0.091 H 
ATOM     23  O1  non d ame     -34.176  20.130  26.948  0.00  0.00    -0.218 OA
ATOM     24  N1  non d ame     -33.536  19.045  26.578  0.00  0.00    -0.123 NA
BRANCH  21  25
ATOM     25  C3  non d ame     -36.510  21.081  27.047  0.00  0.00    -0.029 C 
ATOM     26  H2  non d ame     -36.024  21.983  27.419  0.00  0.00     0.036 H 
ATOM     27  H3  non d ame     -37.063  21.316  26.137  0.00  0.00     0.036 H 
ATOM     28  H4  non d ame     -37.197  20.702  27.802  0.00  0.00     0.036 H 
ENDBRANCH  21  25
ENDBRANCH  16  19
ENDBRANCH  13  15
BRANCH  13  29
ATOM     29  C8  non d ame     -31.638  15.287  23.104  0.00  0.00    -0.049 C 
ATOM     30  H7  non d ame     -31.699  16.297  22.700  0.00  0.00     0.030 H 
ATOM     31  H8  non d ame     -30.602  15.061  23.360  0.00  0.00     0.030 H 
ATOM     32  H9  non d ame     -31.992  14.575  22.358  0.00  0.00     0.030 H 
ENDBRANCH  13  29
ENDBRANCH  10  13
ENDBRANCH   7   9
BRANCH   7  33
ATOM     33  C11 non d ame     -32.430  13.260  28.924  0.00  0.00    -0.033 C 
ATOM     34  H12 non d ame     -33.301  12.607  28.982  0.00  0.00     0.042 H 
BRANCH  33  35
ATOM     35  C12 non d ame     -31.483  12.887  30.107  0.00  0.00    -0.071 C 
ATOM     36  H13 non d ame     -31.789  13.427  31.003  0.00  0.00     0.028 H 
ATOM     37  H14 non d ame     -31.540  11.814  30.292  0.00  0.00     0.028 H 
ATOM     38  H15 non d ame     -30.458  13.158  29.853  0.00  0.00     0.028 H 
ENDBRANCH  33  35
BRANCH  33  39
ATOM     39  C13 non d ame     -32.927  14.737  29.042  0.00  0.00    -0.071 C 
ATOM     40  H16 non d ame     -32.763  15.096  30.058  0.00  0.00     0.028 H 
ATOM     41  H17 non d ame     -32.374  15.364  28.341  0.00  0.00     0.028 H 
ATOM     42  H18 non d ame     -33.990  14.782  28.807  0.00  0.00     0.028 H 
ENDBRANCH  33  39
ENDBRANCH   7  33
ENDBRANCH   4   7
ENDBRANCH   1   3
BRANCH   1  43
ATOM     43  C15 non d ame     -33.666   9.066  26.143  0.00  0.00     0.240 C 
ATOM     44  O5  non d ame     -34.697   9.621  25.943  0.00  0.00    -0.271 OA
ATOM     45  N6  non d ame     -33.073   8.198  25.086  0.00  0.00    -0.355 N 
ATOM     46  H46 non d ame     -32.194   7.726  25.243  0.00  0.00     0.162 HD
BRANCH  45  47
ATOM     47  C20 non d ame     -33.778   8.028  23.796  0.00  0.00     0.013 C 
ATOM     48  H30 non d ame     -34.725   8.564  23.859  0.00  0.00     0.072 H 
BRANCH  47  49
ATOM     49  C21 non d ame     -34.033   6.557  23.557  0.00  0.00    -0.038 C 
ATOM     50  H31 non d ame     -35.038   6.366  23.935  0.00  0.00     0.036 H 
ATOM     51  H32 non d ame     -33.805   6.386  22.505  0.00  0.00     0.036 H 
BRANCH  49  52
ATOM     52  C22 non d ame     -33.084   5.645  24.363  0.00  0.00     0.018 C 
ATOM     53  H33 non d ame     -32.734   4.889  23.661  0.00  0.00     0.048 H 
ATOM     54  H34 non d ame     -32.368   6.315  24.843  0.00  0.00     0.048 H 
BRANCH  52  55
ATOM     55  C23 non d ame     -33.784   4.871  25.513  0.00  0.00     0.259 C 
ATOM     56  O7  non d ame     -34.062   3.723  25.387  0.00  0.00    -0.265 OA
BRANCH  55  57
ATOM     57  O8  non d ame     -34.106   5.556  26.719  0.00  0.00    -0.317 OA
BRANCH  57  58
ATOM     58  C29 non d ame     -33.859   4.793  27.904  0.00  0.00     0.052 C 
ATOM     59  H47 non d ame     -34.037   3.754  27.628  0.00  0.00     0.082 H 
ATOM     60  H48 non d ame     -32.876   5.104  28.256  0.00  0.00     0.082 H 
BRANCH  58  61
ATOM     61  C35 non d ame     -34.913   5.205  28.967  0.00  0.00    -0.034 A 
ATOM     62  C30 non d ame     -36.235   5.420  28.590  0.00  0.00    -0.075 A 
ATOM     63  C31 non d ame     -37.182   5.791  29.544  0.00  0.00    -0.082 A 
ATOM     64  H49 non d ame     -36.529   5.300  27.547  0.00  0.00     0.084 H 
ATOM     65  C32 non d ame     -36.801   5.948  30.880  0.00  0.00    -0.083 A 
ATOM     66  H50 non d ame     -38.217   5.957  29.246  0.00  0.00     0.083 H 
ATOM     67  C33 non d ame     -35.481   5.735  31.251  0.00  0.00    -0.082 A 
ATOM     68  H51 non d ame     -37.536   6.236  31.632  0.00  0.00     0.083 H 
ATOM     69  C34 non d ame     -34.532   5.363  30.300  0.00  0.00    -0.075 A 
ATOM     70  H52 non d ame     -35.187   5.860  32.293  0.00  0.00     0.083 H 
ATOM     71  H53 non d ame     -33.497   5.196  30.600  0.00  0.00     0.084 H 
ENDBRANCH  58  61
ENDBRANCH  57  58
ENDBRANCH  55  57
ENDBRANCH  52  55
ENDBRANCH  49  52
ENDBRANCH  47  49
BRANCH  47  72
ATOM     72  C24 non d ame     -32.924   8.589  22.662  0.00  0.00    -0.039 C 
ATOM     73  H35 non d ame     -33.040   7.886  21.836  0.00  0.00     0.036 H 
ATOM     74  H36 non d ame     -33.243   9.625  22.545  0.00  0.00     0.036 H 
BRANCH  72  75
ATOM     75  C25 non d ame     -31.369   8.614  23.047  0.00  0.00    -0.001 C 
ATOM     76  C26 non d ame     -30.832  10.167  23.102  0.00  0.00    -0.035 C 
ATOM     77  C27 non d ame     -29.715  10.269  22.342  0.00  0.00     0.085 C 
ATOM     78  H38 non d ame     -31.541  10.827  22.603  0.00  0.00     0.036 H 
ATOM     79  H39 non d ame     -30.478  10.405  24.106  0.00  0.00     0.036 H 
ATOM     80  N5  non d ame     -29.629   9.011  21.512  0.00  0.00    -0.049 N 
ATOM     81  H40 non d ame     -29.889  11.119  21.681  0.00  0.00     0.075 H 
ATOM     82  H41 non d ame     -28.883  10.288  23.046  0.00  0.00     0.075 H 
ATOM     83  C28 non d ame     -30.662   7.967  22.181  0.00  0.00     0.193 C 
ATOM     84  H42 non d ame     -29.965   9.251  20.591  0.00  0.00     0.280 HD
ATOM     85  H43 non d ame     -28.690   8.655  21.630  0.00  0.00     0.280 HD
ATOM     86  H44 non d ame     -30.299   7.145  22.796  0.00  0.00     0.129 H 
ATOM     87  H37 non d ame     -31.146   7.981  23.905  0.00  0.00     0.046 H 
BRANCH  83  88
ATOM     88  O6  non d ame     -31.471   7.359  21.171  0.00  0.00    -0.369 OA
ATOM     89  H45 non d ame     -31.412   7.872  20.362  0.00  0.00     0.212 HD
ENDBRANCH  83  88
ENDBRANCH  72  75
ENDBRANCH  47  72
ENDBRANCH  45  47
ENDBRANCH   1  43
BRANCH   1  90
ATOM     90  C16 non d ame     -33.709   8.547  28.603  0.00  0.00    -0.035 C 
ATOM     91  H21 non d ame     -34.401   7.882  28.086  0.00  0.00     0.037 H 
ATOM     92  H22 non d ame     -32.952   8.134  29.268  0.00  0.00     0.037 H 
BRANCH  90  93
ATOM     93  C17 non d ame     -34.586   9.504  29.472  0.00  0.00    -0.059 C 
ATOM     94  H23 non d ame     -34.301  10.527  29.228  0.00  0.00     0.038 H 
BRANCH  93  95
ATOM     95  C18 non d ame     -36.110   9.347  29.166  0.00  0.00    -0.073 C 
ATOM     96  H24 non d ame     -36.610  10.305  29.307  0.00  0.00     0.028 H 
ATOM     97  H25 non d ame     -36.242   9.019  28.134  0.00  0.00     0.028 H 
ATOM     98  H26 non d ame     -36.542   8.608  29.839  0.00  0.00     0.028 H 
ENDBRANCH  93  95
BRANCH  93  99
ATOM     99  C19 non d ame     -34.307   9.297  30.963  0.00  0.00    -0.073 C 
ATOM    100  H27 non d ame     -35.213   8.947  31.458  0.00  0.00     0.028 H 
ATOM    101  H28 non d ame     -33.517   8.556  31.086  0.00  0.00     0.028 H 
ATOM    102  H29 non d ame     -33.991  10.241  31.407  0.00  0.00     0.028 H 
ENDBRANCH  93  99
ENDBRANCH  90  93
ENDBRANCH   1  90
TORSDOF 26
ENDMDL
MODEL 20
REMARK VINA RESULT:      -6.6      2.481      8.112
REMARK  26 active torsions:
REMARK  status: ('A' for Active; 'I' for Inactive)
REMARK    1  A    between atoms: C2_2  and  C3_3 
REMARK    2  A    between atoms: C4_6  and  C5_7 
REMARK       I    between atoms: C5_7  and  N2_9 
REMARK    3  A    between atoms: N2_9  and  C6_10 
REMARK    4  A    between atoms: C6_10  and  C7_11 
REMARK    5  A    between atoms: C6_10  and  C8_13 
REMARK       I    between atoms: C7_11  and  N3_14 
REMARK    6  A    between atoms: N3_14  and  C9_15 
REMARK    7  A    between atoms: C9_15  and  C10_16 
REMARK    8  A    between atoms: C9_15  and  C11_18 
REMARK       I    between atoms: C10_16  and  N4_21 
REMARK    9  A    between atoms: C11_18  and  C12_19 
REMARK   10  A    between atoms: C11_18  and  C13_20 
REMARK   11  A    between atoms: N4_21  and  C14_22 
REMARK   12  A    between atoms: C14_22  and  C15_23 
REMARK   13  A    between atoms: C14_22  and  C16_25 
REMARK       I    between atoms: C15_23  and  N6_40 
REMARK   14  A    between atoms: C16_25  and  C17_26 
REMARK   15  A    between atoms: C17_26  and  C18_27 
REMARK   16  A    between atoms: C17_26  and  C19_28 
REMARK   17  A    between atoms: C20_29  and  C21_30 
REMARK   18  A    between atoms: C20_29  and  C24_33 
REMARK   19  A    between atoms: C20_29  and  N6_40 
REMARK   20  A    between atoms: C21_30  and  C22_31 
REMARK   21  A    between atoms: C22_31  and  C23_32 
REMARK   22  A    between atoms: C23_32  and  O8_43 
REMARK   23  A    between atoms: C24_33  and  C25_34 
REMARK   24  A    between atoms: C28_38  and  O6_39 
REMARK   25  A    between atoms: C29_42  and  O8_43 
REMARK   26  A    between atoms: C29_42  and  C35_49 
ROOT
ATOM      1  C14 non d ame     -36.234   9.893  31.017  0.00  0.00     0.089 C 
ATOM      2  H20 non d ame     -36.662  10.739  31.557  0.00  0.00     0.087 H 
ENDROOT
BRANCH   1   3
ATOM      3  N4  non d ame     -36.878   9.836  29.714  0.00  0.00    -0.346 N 
ATOM      4  C10 non d ame     -38.121  10.646  29.441  0.00  0.00     0.241 C 
ATOM      5  O4  non d ame     -38.586  11.334  30.287  0.00  0.00    -0.271 OA
ATOM      6  H19 non d ame     -36.468   9.242  29.007  0.00  0.00     0.163 HD
BRANCH   4   7
ATOM      7  C9  non d ame     -38.770  10.578  28.084  0.00  0.00     0.092 C 
ATOM      8  H11 non d ame     -39.768  11.014  28.141  0.00  0.00     0.088 H 
BRANCH   7   9
ATOM      9  N3  non d ame     -38.000  11.383  27.132  0.00  0.00    -0.346 N 
ATOM     10  C7  non d ame     -38.445  12.711  26.785  0.00  0.00     0.240 C 
ATOM     11  O3  non d ame     -39.422  13.146  27.261  0.00  0.00    -0.271 OA
ATOM     12  H10 non d ame     -37.157  11.021  26.712  0.00  0.00     0.163 HD
BRANCH  10  13
ATOM     13  C6  non d ame     -37.622  13.562  25.768  0.00  0.00     0.086 C 
ATOM     14  H6  non d ame     -38.236  14.285  25.231  0.00  0.00     0.086 H 
BRANCH  13  15
ATOM     15  N2  non d ame     -36.621  14.325  26.495  0.00  0.00    -0.343 N 
ATOM     16  C5  non d ame     -36.234  15.652  26.011  0.00  0.00     0.273 C 
ATOM     17  O2  non d ame     -36.731  16.095  25.035  0.00  0.00    -0.266 OA
ATOM     18  H5  non d ame     -36.198  13.937  27.326  0.00  0.00     0.163 HD
BRANCH  16  19
ATOM     19  C4  non d ame     -35.178  16.470  26.770  0.00  0.00     0.154 A 
ATOM     20  C1  non d ame     -34.347  17.510  26.245  0.00  0.00    -0.017 A 
ATOM     21  C2  non d ame     -33.559  17.934  27.338  0.00  0.00     0.077 A 
ATOM     22  H1  non d ame     -34.318  17.897  25.226  0.00  0.00     0.091 H 
ATOM     23  O1  non d ame     -33.907  17.217  28.367  0.00  0.00    -0.218 OA
ATOM     24  N1  non d ame     -34.849  16.356  28.060  0.00  0.00    -0.123 NA
BRANCH  21  25
ATOM     25  C3  non d ame     -32.501  19.029  27.316  0.00  0.00    -0.029 C 
ATOM     26  H2  non d ame     -32.986  20.004  27.339  0.00  0.00     0.036 H 
ATOM     27  H3  non d ame     -31.853  18.926  28.187  0.00  0.00     0.036 H 
ATOM     28  H4  non d ame     -31.905  18.941  26.409  0.00  0.00     0.036 H 
ENDBRANCH  21  25
ENDBRANCH  16  19
ENDBRANCH  13  15
BRANCH  13  29
ATOM     29  C8  non d ame     -36.954  12.651  24.770  0.00  0.00    -0.049 C 
ATOM     30  H7  non d ame     -37.687  12.309  24.041  0.00  0.00     0.030 H 
ATOM     31  H8  non d ame     -36.159  13.195  24.258  0.00  0.00     0.030 H 
ATOM     32  H9  non d ame     -36.529  11.792  25.290  0.00  0.00     0.030 H 
ENDBRANCH  13  29
ENDBRANCH  10  13
ENDBRANCH   7   9
BRANCH   7  33
ATOM     33  C11 non d ame     -38.805   9.099  27.599  0.00  0.00    -0.033 C 
ATOM     34  H12 non d ame     -37.888   8.620  27.942  0.00  0.00     0.042 H 
BRANCH  33  35
ATOM     35  C12 non d ame     -40.005   8.323  28.228  0.00  0.00    -0.071 C 
ATOM     36  H13 non d ame     -39.884   8.282  29.310  0.00  0.00     0.028 H 
ATOM     37  H14 non d ame     -40.935   8.834  27.985  0.00  0.00     0.028 H 
ATOM     38  H15 non d ame     -40.031   7.309  27.827  0.00  0.00     0.028 H 
ENDBRANCH  33  35
BRANCH  33  39
ATOM     39  C13 non d ame     -38.836   9.022  26.039  0.00  0.00    -0.071 C 
ATOM     40  H16 non d ame     -37.907   9.428  25.637  0.00  0.00     0.028 H 
ATOM     41  H17 non d ame     -38.943   7.982  25.728  0.00  0.00     0.028 H 
ATOM     42  H18 non d ame     -39.679   9.601  25.663  0.00  0.00     0.028 H 
ENDBRANCH  33  39
ENDBRANCH   7  33
ENDBRANCH   4   7
ENDBRANCH   1   3
BRANCH   1  43
ATOM     43  C15 non d ame     -34.701  10.046  30.806  0.00  0.00     0.240 C 
ATOM     44  O5  non d ame     -33.949   9.355  31.415  0.00  0.00    -0.271 OA
ATOM     45  N6  non d ame     -34.169  11.046  29.838  0.00  0.00    -0.355 N 
ATOM     46  H46 non d ame     -34.799  11.634  29.311  0.00  0.00     0.162 HD
BRANCH  45  47
ATOM     47  C20 non d ame     -32.708  11.178  29.646  0.00  0.00     0.013 C 
ATOM     48  H30 non d ame     -32.242  10.250  29.979  0.00  0.00     0.072 H 
BRANCH  47  49
ATOM     49  C21 non d ame     -32.199  12.337  30.472  0.00  0.00    -0.038 C 
ATOM     50  H31 non d ame     -32.833  13.186  30.211  0.00  0.00     0.036 H 
ATOM     51  H32 non d ame     -32.168  11.976  31.500  0.00  0.00     0.036 H 
BRANCH  49  52
ATOM     52  C22 non d ame     -30.755  12.744  30.109  0.00  0.00     0.018 C 
ATOM     53  H33 non d ame     -30.210  12.774  31.051  0.00  0.00     0.048 H 
ATOM     54  H34 non d ame     -30.444  12.055  29.322  0.00  0.00     0.048 H 
BRANCH  52  55
ATOM     55  C23 non d ame     -30.640  14.169  29.500  0.00  0.00     0.259 C 
ATOM     56  O7  non d ame     -30.725  15.130  30.193  0.00  0.00    -0.265 OA
BRANCH  55  57
ATOM     57  O8  non d ame     -30.444  14.314  28.098  0.00  0.00    -0.317 OA
BRANCH  57  58
ATOM     58  C29 non d ame     -31.584  14.828  27.402  0.00  0.00     0.052 C 
ATOM     59  H47 non d ame     -32.414  14.177  27.676  0.00  0.00     0.082 H 
ATOM     60  H48 non d ame     -31.622  15.890  27.642  0.00  0.00     0.082 H 
BRANCH  58  61
ATOM     61  C35 non d ame     -31.324  14.677  25.879  0.00  0.00    -0.034 A 
ATOM     62  C30 non d ame     -31.191  13.411  25.318  0.00  0.00    -0.075 A 
ATOM     63  C31 non d ame     -30.957  13.276  23.949  0.00  0.00    -0.082 A 
ATOM     64  H49 non d ame     -31.269  12.526  25.948  0.00  0.00     0.084 H 
ATOM     65  C32 non d ame     -30.854  14.413  23.143  0.00  0.00    -0.083 A 
ATOM     66  H50 non d ame     -30.854  12.283  23.512  0.00  0.00     0.083 H 
ATOM     67  C33 non d ame     -30.985  15.674  23.709  0.00  0.00    -0.082 A 
ATOM     68  H51 non d ame     -30.672  14.316  22.073  0.00  0.00     0.083 H 
ATOM     69  C34 non d ame     -31.221  15.814  25.075  0.00  0.00    -0.075 A 
ATOM     70  H52 non d ame     -30.902  16.559  23.078  0.00  0.00     0.083 H 
ATOM     71  H53 non d ame     -31.323  16.807  25.512  0.00  0.00     0.084 H 
ENDBRANCH  58  61
ENDBRANCH  57  58
ENDBRANCH  55  57
ENDBRANCH  52  55
ENDBRANCH  49  52
ENDBRANCH  47  49
BRANCH  47  72
ATOM     72  C24 non d ame     -32.401  11.427  28.172  0.00  0.00    -0.039 C 
ATOM     73  H35 non d ame     -32.763  12.435  27.967  0.00  0.00     0.036 H 
ATOM     74  H36 non d ame     -31.342  11.195  28.053  0.00  0.00     0.036 H 
BRANCH  72  75
ATOM     75  C25 non d ame     -33.214  10.429  27.219  0.00  0.00    -0.001 C 
ATOM     76  C26 non d ame     -32.190   9.729  26.139  0.00  0.00    -0.035 C 
ATOM     77  C27 non d ame     -32.699   9.884  24.893  0.00  0.00     0.085 C 
ATOM     78  H38 non d ame     -31.251  10.281  26.102  0.00  0.00     0.036 H 
ATOM     79  H39 non d ame     -32.182   8.648  26.278  0.00  0.00     0.036 H 
ATOM     80  N5  non d ame     -33.804  10.907  24.991  0.00  0.00    -0.049 N 
ATOM     81  H40 non d ame     -31.885  10.296  24.295  0.00  0.00     0.075 H 
ATOM     82  H41 non d ame     -33.131   8.918  24.632  0.00  0.00     0.075 H 
ATOM     83  C28 non d ame     -34.136  11.053  26.564  0.00  0.00     0.193 C 
ATOM     84  H42 non d ame     -33.418  11.780  24.661  0.00  0.00     0.280 HD
ATOM     85  H43 non d ame     -34.608  10.505  24.529  0.00  0.00     0.280 HD
ATOM     86  H44 non d ame     -35.026  10.592  26.988  0.00  0.00     0.129 H 
ATOM     87  H37 non d ame     -33.871   9.766  27.781  0.00  0.00     0.046 H 
BRANCH  83  88
ATOM     88  O6  non d ame     -34.212  12.434  26.926  0.00  0.00    -0.369 OA
ATOM     89  H45 non d ame     -34.691  12.916  26.249  0.00  0.00     0.212 HD
ENDBRANCH  83  88
ENDBRANCH  72  75
ENDBRANCH  47  72
ENDBRANCH  45  47
ENDBRANCH   1  43
BRANCH   1  90
ATOM     90  C16 non d ame     -36.521   8.604  31.770  0.00  0.00    -0.035 C 
ATOM     91  H21 non d ame     -35.634   8.418  32.375  0.00  0.00     0.037 H 
ATOM     92  H22 non d ame     -37.486   8.760  32.252  0.00  0.00     0.037 H 
BRANCH  90  93
ATOM     93  C17 non d ame     -36.688   7.359  30.841  0.00  0.00    -0.059 C 
ATOM     94  H23 non d ame     -36.615   7.704  29.809  0.00  0.00     0.038 H 
BRANCH  93  95
ATOM     95  C18 non d ame     -35.564   6.299  31.069  0.00  0.00    -0.073 C 
ATOM     96  H24 non d ame     -34.946   6.225  30.175  0.00  0.00     0.028 H 
ATOM     97  H25 non d ame     -34.944   6.603  31.913  0.00  0.00     0.028 H 
ATOM     98  H26 non d ame     -36.015   5.330  31.281  0.00  0.00     0.028 H 
ENDBRANCH  93  95
BRANCH  93  99
ATOM     99  C19 non d ame     -38.073   6.730  31.013  0.00  0.00    -0.073 C 
ATOM    100  H27 non d ame     -38.288   6.609  32.075  0.00  0.00     0.028 H 
ATOM    101  H28 non d ame     -38.825   7.377  30.563  0.00  0.00     0.028 H 
ATOM    102  H29 non d ame     -38.093   5.756  30.524  0.00  0.00     0.028 H 
ENDBRANCH  93  99
ENDBRANCH  90  93
ENDBRANCH   1  90
TORSDOF 26
ENDMDL
