MODEL 1
REMARK VINA RESULT:      -7.3      0.000      0.000
REMARK  26 active torsions:
REMARK  status: ('A' for Active; 'I' for Inactive)
REMARK    1  A    between atoms: C2_2  and  C3_3 
REMARK    2  A    between atoms: C4_6  and  C5_7 
REMARK       I    between atoms: C5_7  and  N2_9 
REMARK    3  A    between atoms: N2_9  and  C6_10 
REMARK    4  A    between atoms: C6_10  and  C7_11 
REMARK    5  A    between atoms: C6_10  and  C8_13 
REMARK       I    between atoms: C7_11  and  N3_14 
REMARK    6  A    between atoms: N3_14  and  C9_15 
REMARK    7  A    between atoms: C9_15  and  C10_16 
REMARK    8  A    between atoms: C9_15  and  C11_18 
REMARK       I    between atoms: C10_16  and  N4_21 
REMARK    9  A    between atoms: C11_18  and  C12_19 
REMARK   10  A    between atoms: C11_18  and  C13_20 
REMARK   11  A    between atoms: N4_21  and  C14_22 
REMARK   12  A    between atoms: C14_22  and  C15_23 
REMARK   13  A    between atoms: C14_22  and  C16_25 
REMARK       I    between atoms: C15_23  and  N6_40 
REMARK   14  A    between atoms: C16_25  and  C17_26 
REMARK   15  A    between atoms: C17_26  and  C18_27 
REMARK   16  A    between atoms: C17_26  and  C19_28 
REMARK   17  A    between atoms: C20_29  and  C21_30 
REMARK   18  A    between atoms: C20_29  and  C24_33 
REMARK   19  A    between atoms: C20_29  and  N6_40 
REMARK   20  A    between atoms: C21_30  and  C22_31 
REMARK   21  A    between atoms: C22_31  and  C23_32 
REMARK   22  A    between atoms: C23_32  and  O8_43 
REMARK   23  A    between atoms: C24_33  and  C25_34 
REMARK   24  A    between atoms: C28_38  and  O6_39 
REMARK   25  A    between atoms: C29_42  and  O8_43 
REMARK   26  A    between atoms: C29_42  and  C35_49 
ROOT
ATOM      1  C14 non d ame     -32.948  10.391  25.601  0.00  0.00     0.089 C 
ATOM      2  H20 non d ame     -33.663  10.473  24.781  0.00  0.00     0.087 H 
ENDROOT
BRANCH   1   3
ATOM      3  N4  non d ame     -32.387   9.049  25.560  0.00  0.00    -0.346 N 
ATOM      4  C10 non d ame     -33.094   7.950  24.806  0.00  0.00     0.241 C 
ATOM      5  O4  non d ame     -34.115   8.169  24.243  0.00  0.00    -0.271 OA
ATOM      6  H19 non d ame     -31.518   8.882  26.047  0.00  0.00     0.163 HD
BRANCH   4   7
ATOM      7  C9  non d ame     -32.495   6.569  24.769  0.00  0.00     0.092 C 
ATOM      8  H11 non d ame     -31.430   6.633  24.993  0.00  0.00     0.088 H 
BRANCH   7   9
ATOM      9  N3  non d ame     -33.109   5.741  25.810  0.00  0.00    -0.346 N 
ATOM     10  C7  non d ame     -32.649   5.840  27.174  0.00  0.00     0.240 C 
ATOM     11  O3  non d ame     -31.784   6.579  27.449  0.00  0.00    -0.271 OA
ATOM     12  H10 non d ame     -33.854   5.098  25.588  0.00  0.00     0.163 HD
BRANCH  10  13
ATOM     13  C6  non d ame     -33.304   4.954  28.279  0.00  0.00     0.086 C 
ATOM     14  H6  non d ame     -32.673   4.845  29.161  0.00  0.00     0.086 H 
BRANCH  13  15
ATOM     15  N2  non d ame     -34.534   5.589  28.724  0.00  0.00    -0.343 N 
ATOM     16  C5  non d ame     -34.905   5.530  30.139  0.00  0.00     0.273 C 
ATOM     17  O2  non d ame     -34.209   4.967  30.911  0.00  0.00    -0.266 OA
ATOM     18  H5  non d ame     -35.124   6.064  28.056  0.00  0.00     0.163 HD
BRANCH  16  19
ATOM     19  C4  non d ame     -36.201   6.198  30.624  0.00  0.00     0.154 A 
ATOM     20  C1  non d ame     -36.468   7.600  30.719  0.00  0.00    -0.017 A 
ATOM     21  C2  non d ame     -37.788   7.687  31.214  0.00  0.00     0.077 A 
ATOM     22  H1  non d ame     -35.805   8.428  30.469  0.00  0.00     0.091 H 
ATOM     23  O1  non d ame     -38.221   6.470  31.378  0.00  0.00    -0.218 OA
ATOM     24  N1  non d ame     -37.312   5.584  31.040  0.00  0.00    -0.123 NA
BRANCH  21  25
ATOM     25  C3  non d ame     -38.562   8.967  31.501  0.00  0.00    -0.029 C 
ATOM     26  H2  non d ame     -37.872   9.811  31.522  0.00  0.00     0.036 H 
ATOM     27  H3  non d ame     -39.304   9.125  30.719  0.00  0.00     0.036 H 
ATOM     28  H4  non d ame     -39.061   8.881  32.465  0.00  0.00     0.036 H 
ENDBRANCH  21  25
ENDBRANCH  16  19
ENDBRANCH  13  15
BRANCH  13  29
ATOM     29  C8  non d ame     -33.602   3.586  27.719  0.00  0.00    -0.049 C 
ATOM     30  H7  non d ame     -33.114   3.475  26.751  0.00  0.00     0.030 H 
ATOM     31  H8  non d ame     -33.229   2.825  28.404  0.00  0.00     0.030 H 
ATOM     32  H9  non d ame     -34.679   3.470  27.598  0.00  0.00     0.030 H 
ENDBRANCH  13  29
ENDBRANCH  10  13
ENDBRANCH   7   9
BRANCH   7  33
ATOM     33  C11 non d ame     -32.760   5.926  23.376  0.00  0.00    -0.033 C 
ATOM     34  H12 non d ame     -33.603   6.452  22.927  0.00  0.00     0.042 H 
BRANCH  33  35
ATOM     35  C12 non d ame     -31.536   6.103  22.425  0.00  0.00    -0.071 C 
ATOM     36  H13 non d ame     -31.735   6.912  21.723  0.00  0.00     0.028 H 
ATOM     37  H14 non d ame     -30.651   6.341  23.013  0.00  0.00     0.028 H 
ATOM     38  H15 non d ame     -31.368   5.178  21.873  0.00  0.00     0.028 H 
ENDBRANCH  33  35
BRANCH  33  39
ATOM     39  C13 non d ame     -33.153   4.421  23.520  0.00  0.00    -0.071 C 
ATOM     40  H16 non d ame     -32.766   3.860  22.669  0.00  0.00     0.028 H 
ATOM     41  H17 non d ame     -32.730   4.021  24.442  0.00  0.00     0.028 H 
ATOM     42  H18 non d ame     -34.238   4.330  23.551  0.00  0.00     0.028 H 
ENDBRANCH  33  39
ENDBRANCH   7  33
ENDBRANCH   4   7
ENDBRANCH   1   3
BRANCH   1  43
ATOM     43  C15 non d ame     -31.788  11.417  25.474  0.00  0.00     0.240 C 
ATOM     44  O5  non d ame     -30.711  11.147  25.897  0.00  0.00    -0.271 OA
ATOM     45  N6  non d ame     -32.015  12.735  24.815  0.00  0.00    -0.355 N 
ATOM     46  H46 non d ame     -32.925  12.973  24.447  0.00  0.00     0.162 HD
BRANCH  45  47
ATOM     47  C20 non d ame     -30.901  13.700  24.700  0.00  0.00     0.013 C 
ATOM     48  H30 non d ame     -30.084  13.345  25.328  0.00  0.00     0.072 H 
BRANCH  47  49
ATOM     49  C21 non d ame     -31.365  15.059  25.175  0.00  0.00    -0.038 C 
ATOM     50  H31 non d ame     -30.890  15.209  26.146  0.00  0.00     0.036 H 
ATOM     51  H32 non d ame     -31.156  15.744  24.355  0.00  0.00     0.036 H 
BRANCH  49  52
ATOM     52  C22 non d ame     -32.888  15.120  25.420  0.00  0.00     0.018 C 
ATOM     53  H33 non d ame     -33.312  15.580  24.528  0.00  0.00     0.048 H 
ATOM     54  H34 non d ame     -33.182  14.108  25.703  0.00  0.00     0.048 H 
BRANCH  52  55
ATOM     55  C23 non d ame     -33.295  16.033  26.608  0.00  0.00     0.259 C 
ATOM     56  O7  non d ame     -33.647  17.152  26.417  0.00  0.00    -0.265 OA
BRANCH  55  57
ATOM     57  O8  non d ame     -33.230  15.522  27.934  0.00  0.00    -0.317 OA
BRANCH  57  58
ATOM     58  C29 non d ame     -33.653  14.160  28.054  0.00  0.00     0.052 C 
ATOM     59  H47 non d ame     -34.593  14.191  28.603  0.00  0.00     0.082 H 
ATOM     60  H48 non d ame     -33.624  13.752  27.044  0.00  0.00     0.082 H 
BRANCH  58  61
ATOM     61  C35 non d ame     -32.605  13.407  28.917  0.00  0.00    -0.034 A 
ATOM     62  C30 non d ame     -31.264  13.414  28.547  0.00  0.00    -0.075 A 
ATOM     63  C31 non d ame     -30.323  12.737  29.322  0.00  0.00    -0.082 A 
ATOM     64  H49 non d ame     -30.950  13.947  27.650  0.00  0.00     0.084 H 
ATOM     65  C32 non d ame     -30.728  12.050  30.470  0.00  0.00    -0.083 A 
ATOM     66  H50 non d ame     -29.272  12.745  29.030  0.00  0.00     0.083 H 
ATOM     67  C33 non d ame     -32.067  12.044  30.833  0.00  0.00    -0.082 A 
ATOM     68  H51 non d ame     -29.998  11.520  31.081  0.00  0.00     0.083 H 
ATOM     69  C34 non d ame     -33.011  12.721  30.063  0.00  0.00    -0.075 A 
ATOM     70  H52 non d ame     -32.381  11.506  31.728  0.00  0.00     0.083 H 
ATOM     71  H53 non d ame     -34.061  12.712  30.356  0.00  0.00     0.084 H 
ENDBRANCH  58  61
ENDBRANCH  57  58
ENDBRANCH  55  57
ENDBRANCH  52  55
ENDBRANCH  49  52
ENDBRANCH  47  49
BRANCH  47  72
ATOM     72  C24 non d ame     -30.448  13.796  23.244  0.00  0.00    -0.039 C 
ATOM     73  H35 non d ame     -29.488  13.279  23.206  0.00  0.00     0.036 H 
ATOM     74  H36 non d ame     -31.288  13.430  22.655  0.00  0.00     0.036 H 
BRANCH  72  75
ATOM     75  C25 non d ame     -30.186  15.313  22.803  0.00  0.00    -0.001 C 
ATOM     76  C26 non d ame     -31.275  15.757  21.654  0.00  0.00    -0.035 C 
ATOM     77  C27 non d ame     -30.607  16.289  20.602  0.00  0.00     0.085 C 
ATOM     78  H38 non d ame     -31.754  14.874  21.231  0.00  0.00     0.036 H 
ATOM     79  H39 non d ame     -31.883  16.587  22.015  0.00  0.00     0.036 H 
ATOM     80  N5  non d ame     -29.148  15.949  20.789  0.00  0.00    -0.049 N 
ATOM     81  H40 non d ame     -30.984  15.765  19.723  0.00  0.00     0.075 H 
ATOM     82  H41 non d ame     -30.734  17.367  20.691  0.00  0.00     0.075 H 
ATOM     83  C28 non d ame     -28.997  15.462  22.320  0.00  0.00     0.193 C 
ATOM     84  H42 non d ame     -28.956  15.165  20.182  0.00  0.00     0.280 HD
ATOM     85  H43 non d ame     -28.636  16.813  20.674  0.00  0.00     0.280 HD
ATOM     86  H44 non d ame     -28.560  16.119  23.070  0.00  0.00     0.129 H 
ATOM     87  H37 non d ame     -30.070  15.978  23.659  0.00  0.00     0.046 H 
BRANCH  83  88
ATOM     88  O6  non d ame     -28.236  14.254  22.381  0.00  0.00    -0.369 OA
ATOM     89  H45 non d ame     -28.684  13.568  21.882  0.00  0.00     0.212 HD
ENDBRANCH  83  88
ENDBRANCH  72  75
ENDBRANCH  47  72
ENDBRANCH  45  47
ENDBRANCH   1  43
BRANCH   1  90
ATOM     90  C16 non d ame     -33.663  10.588  26.928  0.00  0.00    -0.035 C 
ATOM     91  H21 non d ame     -32.934  11.067  27.581  0.00  0.00     0.037 H 
ATOM     92  H22 non d ame     -34.592  11.102  26.682  0.00  0.00     0.037 H 
BRANCH  90  93
ATOM     93  C17 non d ame     -34.069   9.252  27.627  0.00  0.00    -0.059 C 
ATOM     94  H23 non d ame     -33.551   8.440  27.116  0.00  0.00     0.038 H 
BRANCH  93  95
ATOM     95  C18 non d ame     -33.642   9.219  29.129  0.00  0.00    -0.073 C 
ATOM     96  H24 non d ame     -34.414   8.724  29.717  0.00  0.00     0.028 H 
ATOM     97  H25 non d ame     -32.704   8.671  29.229  0.00  0.00     0.028 H 
ATOM     98  H26 non d ame     -33.507  10.238  29.491  0.00  0.00     0.028 H 
ENDBRANCH  93  95
BRANCH  93  99
ATOM     99  C19 non d ame     -35.571   8.994  27.483  0.00  0.00    -0.073 C 
ATOM    100  H27 non d ame     -36.113   9.937  27.577  0.00  0.00     0.028 H 
ATOM    101  H28 non d ame     -35.773   8.556  26.506  0.00  0.00     0.028 H 
ATOM    102  H29 non d ame     -35.899   8.308  28.263  0.00  0.00     0.028 H 
ENDBRANCH  93  99
ENDBRANCH  90  93
ENDBRANCH   1  90
TORSDOF 26
ENDMDL
MODEL 2
REMARK VINA RESULT:      -7.0      3.931      8.373
REMARK  26 active torsions:
REMARK  status: ('A' for Active; 'I' for Inactive)
REMARK    1  A    between atoms: C2_2  and  C3_3 
REMARK    2  A    between atoms: C4_6  and  C5_7 
REMARK       I    between atoms: C5_7  and  N2_9 
REMARK    3  A    between atoms: N2_9  and  C6_10 
REMARK    4  A    between atoms: C6_10  and  C7_11 
REMARK    5  A    between atoms: C6_10  and  C8_13 
REMARK       I    between atoms: C7_11  and  N3_14 
REMARK    6  A    between atoms: N3_14  and  C9_15 
REMARK    7  A    between atoms: C9_15  and  C10_16 
REMARK    8  A    between atoms: C9_15  and  C11_18 
REMARK       I    between atoms: C10_16  and  N4_21 
REMARK    9  A    between atoms: C11_18  and  C12_19 
REMARK   10  A    between atoms: C11_18  and  C13_20 
REMARK   11  A    between atoms: N4_21  and  C14_22 
REMARK   12  A    between atoms: C14_22  and  C15_23 
REMARK   13  A    between atoms: C14_22  and  C16_25 
REMARK       I    between atoms: C15_23  and  N6_40 
REMARK   14  A    between atoms: C16_25  and  C17_26 
REMARK   15  A    between atoms: C17_26  and  C18_27 
REMARK   16  A    between atoms: C17_26  and  C19_28 
REMARK   17  A    between atoms: C20_29  and  C21_30 
REMARK   18  A    between atoms: C20_29  and  C24_33 
REMARK   19  A    between atoms: C20_29  and  N6_40 
REMARK   20  A    between atoms: C21_30  and  C22_31 
REMARK   21  A    between atoms: C22_31  and  C23_32 
REMARK   22  A    between atoms: C23_32  and  O8_43 
REMARK   23  A    between atoms: C24_33  and  C25_34 
REMARK   24  A    between atoms: C28_38  and  O6_39 
REMARK   25  A    between atoms: C29_42  and  O8_43 
REMARK   26  A    between atoms: C29_42  and  C35_49 
ROOT
ATOM      1  C14 non d ame     -36.443  15.866  26.505  0.00  0.00     0.089 C 
ATOM      2  H20 non d ame     -37.069  16.424  27.202  0.00  0.00     0.087 H 
ENDROOT
BRANCH   1   3
ATOM      3  N4  non d ame     -35.059  16.044  26.920  0.00  0.00    -0.346 N 
ATOM      4  C10 non d ame     -34.678  17.185  27.830  0.00  0.00     0.241 C 
ATOM      5  O4  non d ame     -35.501  17.949  28.212  0.00  0.00    -0.271 OA
ATOM      6  H19 non d ame     -34.373  15.384  26.582  0.00  0.00     0.163 HD
BRANCH   4   7
ATOM      7  C9  non d ame     -33.242  17.351  28.254  0.00  0.00     0.092 C 
ATOM      8  H11 non d ame     -33.210  17.850  29.223  0.00  0.00     0.088 H 
BRANCH   7   9
ATOM      9  N3  non d ame     -32.628  16.032  28.425  0.00  0.00    -0.346 N 
ATOM     10  C7  non d ame     -31.746  15.786  29.540  0.00  0.00     0.240 C 
ATOM     11  O3  non d ame     -31.520  16.640  30.308  0.00  0.00    -0.271 OA
ATOM     12  H10 non d ame     -32.812  15.286  27.769  0.00  0.00     0.163 HD
BRANCH  10  13
ATOM     13  C6  non d ame     -31.092  14.380  29.715  0.00  0.00     0.086 C 
ATOM     14  H6  non d ame     -30.426  14.330  30.576  0.00  0.00     0.086 H 
BRANCH  13  15
ATOM     15  N2  non d ame     -32.140  13.398  29.941  0.00  0.00    -0.343 N 
ATOM     16  C5  non d ame     -31.820  12.151  30.640  0.00  0.00     0.273 C 
ATOM     17  O2  non d ame     -30.718  11.947  31.014  0.00  0.00    -0.266 OA
ATOM     18  H5  non d ame     -33.078  13.579  29.614  0.00  0.00     0.163 HD
BRANCH  16  19
ATOM     19  C4  non d ame     -32.918  11.105  30.887  0.00  0.00     0.154 A 
ATOM     20  C1  non d ame     -33.264   9.999  30.047  0.00  0.00    -0.017 A 
ATOM     21  C2  non d ame     -34.326   9.352  30.716  0.00  0.00     0.077 A 
ATOM     22  H1  non d ame     -32.815   9.711  29.097  0.00  0.00     0.091 H 
ATOM     23  O1  non d ame     -34.554  10.014  31.813  0.00  0.00    -0.218 OA
ATOM     24  N1  non d ame     -33.745  11.042  31.934  0.00  0.00    -0.123 NA
BRANCH  21  25
ATOM     25  C3  non d ame     -35.066   8.107  30.243  0.00  0.00    -0.029 C 
ATOM     26  H2  non d ame     -34.379   7.261  30.226  0.00  0.00     0.036 H 
ATOM     27  H3  non d ame     -35.889   7.893  30.924  0.00  0.00     0.036 H 
ATOM     28  H4  non d ame     -35.457   8.277  29.241  0.00  0.00     0.036 H 
ENDBRANCH  21  25
ENDBRANCH  16  19
ENDBRANCH  13  15
BRANCH  13  29
ATOM     29  C8  non d ame     -30.312  14.028  28.473  0.00  0.00    -0.049 C 
ATOM     30  H7  non d ame     -29.446  13.425  28.747  0.00  0.00     0.030 H 
ATOM     31  H8  non d ame     -30.949  13.460  27.794  0.00  0.00     0.030 H 
ATOM     32  H9  non d ame     -29.979  14.942  27.981  0.00  0.00     0.030 H 
ENDBRANCH  13  29
ENDBRANCH  10  13
ENDBRANCH   7   9
BRANCH   7  33
ATOM     33  C11 non d ame     -32.468  18.144  27.162  0.00  0.00    -0.033 C 
ATOM     34  H12 non d ame     -31.413  17.883  27.252  0.00  0.00     0.042 H 
BRANCH  33  35
ATOM     35  C12 non d ame     -32.930  17.739  25.727  0.00  0.00    -0.071 C 
ATOM     36  H13 non d ame     -33.081  18.637  25.127  0.00  0.00     0.028 H 
ATOM     37  H14 non d ame     -32.167  17.115  25.263  0.00  0.00     0.028 H 
ATOM     38  H15 non d ame     -33.866  17.184  25.791  0.00  0.00     0.028 H 
ENDBRANCH  33  35
BRANCH  33  39
ATOM     39  C13 non d ame     -32.604  19.684  27.387  0.00  0.00    -0.071 C 
ATOM     40  H16 non d ame     -32.100  20.216  26.579  0.00  0.00     0.028 H 
ATOM     41  H17 non d ame     -33.659  19.958  27.401  0.00  0.00     0.028 H 
ATOM     42  H18 non d ame     -32.148  19.954  28.339  0.00  0.00     0.028 H 
ENDBRANCH  33  39
ENDBRANCH   7  33
ENDBRANCH   4   7
ENDBRANCH   1   3
BRANCH   1  43
ATOM     43  C15 non d ame     -36.769  14.345  26.509  0.00  0.00     0.240 C 
ATOM     44  O5  non d ame     -37.830  13.970  26.892  0.00  0.00    -0.271 OA
ATOM     45  N6  non d ame     -35.763  13.357  26.026  0.00  0.00    -0.355 N 
ATOM     46  H46 non d ame     -34.860  13.665  25.693  0.00  0.00     0.162 HD
BRANCH  45  47
ATOM     47  C20 non d ame     -36.089  11.914  26.034  0.00  0.00     0.013 C 
ATOM     48  H30 non d ame     -36.977  11.775  26.651  0.00  0.00     0.072 H 
BRANCH  47  49
ATOM     49  C21 non d ame     -34.928  11.143  26.619  0.00  0.00    -0.038 C 
ATOM     50  H31 non d ame     -35.343  10.570  27.450  0.00  0.00     0.036 H 
ATOM     51  H32 non d ame     -34.465  10.626  25.779  0.00  0.00     0.036 H 
BRANCH  49  52
ATOM     52  C22 non d ame     -33.841  12.060  27.221  0.00  0.00     0.018 C 
ATOM     53  H33 non d ame     -34.178  13.078  27.034  0.00  0.00     0.048 H 
ATOM     54  H34 non d ame     -33.698  11.713  28.246  0.00  0.00     0.048 H 
BRANCH  52  55
ATOM     55  C23 non d ame     -32.457  11.930  26.528  0.00  0.00     0.259 C 
ATOM     56  O7  non d ame     -31.655  11.148  26.924  0.00  0.00    -0.265 OA
BRANCH  55  57
ATOM     57  O8  non d ame     -32.151  12.769  25.420  0.00  0.00    -0.317 OA
BRANCH  57  58
ATOM     58  C29 non d ame     -31.202  12.205  24.509  0.00  0.00     0.052 C 
ATOM     59  H47 non d ame     -30.390  11.824  25.128  0.00  0.00     0.082 H 
ATOM     60  H48 non d ame     -31.770  11.525  23.875  0.00  0.00     0.082 H 
BRANCH  58  61
ATOM     61  C35 non d ame     -30.648  13.354  23.624  0.00  0.00    -0.034 A 
ATOM     62  C30 non d ame     -29.897  13.059  22.490  0.00  0.00    -0.075 A 
ATOM     63  C31 non d ame     -29.398  14.090  21.695  0.00  0.00    -0.082 A 
ATOM     64  H49 non d ame     -29.698  12.021  22.225  0.00  0.00     0.084 H 
ATOM     65  C32 non d ame     -29.651  15.421  22.040  0.00  0.00    -0.083 A 
ATOM     66  H50 non d ame     -28.811  13.856  20.807  0.00  0.00     0.083 H 
ATOM     67  C33 non d ame     -30.398  15.710  23.173  0.00  0.00    -0.082 A 
ATOM     68  H51 non d ame     -29.266  16.233  21.423  0.00  0.00     0.083 H 
ATOM     69  C34 non d ame     -30.900  14.683  23.969  0.00  0.00    -0.075 A 
ATOM     70  H52 non d ame     -30.592  16.749  23.441  0.00  0.00     0.083 H 
ATOM     71  H53 non d ame     -31.487  14.918  24.858  0.00  0.00     0.084 H 
ENDBRANCH  58  61
ENDBRANCH  57  58
ENDBRANCH  55  57
ENDBRANCH  52  55
ENDBRANCH  49  52
ENDBRANCH  47  49
BRANCH  47  72
ATOM     72  C24 non d ame     -36.353  11.436  24.608  0.00  0.00    -0.039 C 
ATOM     73  H35 non d ame     -35.804  12.125  23.965  0.00  0.00     0.036 H 
ATOM     74  H36 non d ame     -36.105  10.375  24.608  0.00  0.00     0.036 H 
BRANCH  72  75
ATOM     75  C25 non d ame     -37.902  11.559  24.219  0.00  0.00    -0.001 C 
ATOM     76  C26 non d ame     -38.431  10.141  23.576  0.00  0.00    -0.035 C 
ATOM     77  C27 non d ame     -39.048  10.399  22.398  0.00  0.00     0.085 C 
ATOM     78  H38 non d ame     -37.583   9.521  23.289  0.00  0.00     0.036 H 
ATOM     79  H39 non d ame     -39.227   9.725  24.194  0.00  0.00     0.036 H 
ATOM     80  N5  non d ame     -38.701  11.819  22.020  0.00  0.00    -0.049 N 
ATOM     81  H40 non d ame     -38.595   9.718  21.677  0.00  0.00     0.075 H 
ATOM     82  H41 non d ame     -40.116  10.339  22.608  0.00  0.00     0.075 H 
ATOM     83  C28 non d ame     -38.094  12.498  23.353  0.00  0.00     0.193 C 
ATOM     84  H42 non d ame     -37.969  11.760  21.327  0.00  0.00     0.280 HD
ATOM     85  H43 non d ame     -39.573  12.276  21.794  0.00  0.00     0.280 HD
ATOM     86  H44 non d ame     -38.691  13.192  23.942  0.00  0.00     0.129 H 
ATOM     87  H37 non d ame     -38.497  11.992  25.023  0.00  0.00     0.046 H 
BRANCH  83  88
ATOM     88  O6  non d ame     -36.888  13.200  23.043  0.00  0.00    -0.369 OA
ATOM     89  H45 non d ame     -36.502  12.836  22.243  0.00  0.00     0.212 HD
ENDBRANCH  83  88
ENDBRANCH  72  75
ENDBRANCH  47  72
ENDBRANCH  45  47
ENDBRANCH   1  43
BRANCH   1  90
ATOM     90  C16 non d ame     -36.614  16.422  25.100  0.00  0.00    -0.035 C 
ATOM     91  H21 non d ame     -35.608  16.659  24.758  0.00  0.00     0.037 H 
ATOM     92  H22 non d ame     -37.210  15.682  24.568  0.00  0.00     0.037 H 
BRANCH  90  93
ATOM     93  C17 non d ame     -37.422  17.758  25.050  0.00  0.00    -0.059 C 
ATOM     94  H23 non d ame     -37.993  17.765  24.122  0.00  0.00     0.038 H 
BRANCH  93  95
ATOM     95  C18 non d ame     -38.432  17.882  26.234  0.00  0.00    -0.073 C 
ATOM     96  H24 non d ame     -39.439  18.019  25.841  0.00  0.00     0.028 H 
ATOM     97  H25 non d ame     -38.400  16.972  26.836  0.00  0.00     0.028 H 
ATOM     98  H26 non d ame     -38.164  18.736  26.854  0.00  0.00     0.028 H 
ENDBRANCH  93  95
BRANCH  93  99
ATOM     99  C19 non d ame     -36.479  18.964  25.010  0.00  0.00    -0.073 C 
ATOM    100  H27 non d ame     -35.448  18.624  25.110  0.00  0.00     0.028 H 
ATOM    101  H28 non d ame     -36.598  19.488  24.062  0.00  0.00     0.028 H 
ATOM    102  H29 non d ame     -36.720  19.640  25.830  0.00  0.00     0.028 H 
ENDBRANCH  93  99
ENDBRANCH  90  93
ENDBRANCH   1  90
TORSDOF 26
ENDMDL
MODEL 3
REMARK VINA RESULT:      -7.0      3.783      7.551
REMARK  26 active torsions:
REMARK  status: ('A' for Active; 'I' for Inactive)
REMARK    1  A    between atoms: C2_2  and  C3_3 
REMARK    2  A    between atoms: C4_6  and  C5_7 
REMARK       I    between atoms: C5_7  and  N2_9 
REMARK    3  A    between atoms: N2_9  and  C6_10 
REMARK    4  A    between atoms: C6_10  and  C7_11 
REMARK    5  A    between atoms: C6_10  and  C8_13 
REMARK       I    between atoms: C7_11  and  N3_14 
REMARK    6  A    between atoms: N3_14  and  C9_15 
REMARK    7  A    between atoms: C9_15  and  C10_16 
REMARK    8  A    between atoms: C9_15  and  C11_18 
REMARK       I    between atoms: C10_16  and  N4_21 
REMARK    9  A    between atoms: C11_18  and  C12_19 
REMARK   10  A    between atoms: C11_18  and  C13_20 
REMARK   11  A    between atoms: N4_21  and  C14_22 
REMARK   12  A    between atoms: C14_22  and  C15_23 
REMARK   13  A    between atoms: C14_22  and  C16_25 
REMARK       I    between atoms: C15_23  and  N6_40 
REMARK   14  A    between atoms: C16_25  and  C17_26 
REMARK   15  A    between atoms: C17_26  and  C18_27 
REMARK   16  A    between atoms: C17_26  and  C19_28 
REMARK   17  A    between atoms: C20_29  and  C21_30 
REMARK   18  A    between atoms: C20_29  and  C24_33 
REMARK   19  A    between atoms: C20_29  and  N6_40 
REMARK   20  A    between atoms: C21_30  and  C22_31 
REMARK   21  A    between atoms: C22_31  and  C23_32 
REMARK   22  A    between atoms: C23_32  and  O8_43 
REMARK   23  A    between atoms: C24_33  and  C25_34 
REMARK   24  A    between atoms: C28_38  and  O6_39 
REMARK   25  A    between atoms: C29_42  and  O8_43 
REMARK   26  A    between atoms: C29_42  and  C35_49 
ROOT
ATOM      1  C14 non d ame     -31.062  14.471  24.252  0.00  0.00     0.089 C 
ATOM      2  H20 non d ame     -30.098  14.431  24.761  0.00  0.00     0.087 H 
ENDROOT
BRANCH   1   3
ATOM      3  N4  non d ame     -31.440  13.104  23.924  0.00  0.00    -0.346 N 
ATOM      4  C10 non d ame     -31.404  12.029  24.981  0.00  0.00     0.241 C 
ATOM      5  O4  non d ame     -31.064  12.286  26.088  0.00  0.00    -0.271 OA
ATOM      6  H19 non d ame     -31.724  12.905  22.975  0.00  0.00     0.163 HD
BRANCH   4   7
ATOM      7  C9  non d ame     -31.804  10.621  24.624  0.00  0.00     0.092 C 
ATOM      8  H11 non d ame     -31.419   9.936  25.379  0.00  0.00     0.088 H 
BRANCH   7   9
ATOM      9  N3  non d ame     -33.265  10.509  24.642  0.00  0.00    -0.346 N 
ATOM     10  C7  non d ame     -33.925   9.867  25.752  0.00  0.00     0.240 C 
ATOM     11  O3  non d ame     -33.295   9.434  26.639  0.00  0.00    -0.271 OA
ATOM     12  H10 non d ame     -33.822  10.876  23.884  0.00  0.00     0.163 HD
BRANCH  10  13
ATOM     13  C6  non d ame     -35.481   9.747  25.764  0.00  0.00     0.086 C 
ATOM     14  H6  non d ame     -35.866   9.353  26.705  0.00  0.00     0.086 H 
BRANCH  13  15
ATOM     15  N2  non d ame     -36.056  11.072  25.602  0.00  0.00    -0.343 N 
ATOM     16  C5  non d ame     -36.528  11.803  26.781  0.00  0.00     0.273 C 
ATOM     17  O2  non d ame     -36.442  11.316  27.854  0.00  0.00    -0.266 OA
ATOM     18  H5  non d ame     -36.130  11.479  24.681  0.00  0.00     0.163 HD
BRANCH  16  19
ATOM     19  C4  non d ame     -37.137  13.205  26.624  0.00  0.00     0.154 A 
ATOM     20  C1  non d ame     -36.478  14.387  26.158  0.00  0.00    -0.017 A 
ATOM     21  C2  non d ame     -37.467  15.396  26.202  0.00  0.00     0.077 A 
ATOM     22  H1  non d ame     -35.442  14.497  25.840  0.00  0.00     0.091 H 
ATOM     23  O1  non d ame     -38.562  14.845  26.639  0.00  0.00    -0.218 OA
ATOM     24  N1  non d ame     -38.394  13.568  26.893  0.00  0.00    -0.123 NA
BRANCH  21  25
ATOM     25  C3  non d ame     -37.284  16.855  25.807  0.00  0.00    -0.029 C 
ATOM     26  H2  non d ame     -37.701  17.496  26.584  0.00  0.00     0.036 H 
ATOM     27  H3  non d ame     -36.222  17.070  25.691  0.00  0.00     0.036 H 
ATOM     28  H4  non d ame     -37.798  17.044  24.866  0.00  0.00     0.036 H 
ENDBRANCH  21  25
ENDBRANCH  16  19
ENDBRANCH  13  15
BRANCH  13  29
ATOM     29  C8  non d ame     -35.928   8.848  24.639  0.00  0.00    -0.049 C 
ATOM     30  H7  non d ame     -36.690   9.356  24.049  0.00  0.00     0.030 H 
ATOM     31  H8  non d ame     -35.074   8.613  24.003  0.00  0.00     0.030 H 
ATOM     32  H9  non d ame     -36.339   7.927  25.051  0.00  0.00     0.030 H 
ENDBRANCH  13  29
ENDBRANCH  10  13
ENDBRANCH   7   9
BRANCH   7  33
ATOM     33  C11 non d ame     -31.277  10.278  23.200  0.00  0.00    -0.033 C 
ATOM     34  H12 non d ame     -31.438  11.154  22.571  0.00  0.00     0.042 H 
BRANCH  33  35
ATOM     35  C12 non d ame     -29.744   9.986  23.215  0.00  0.00    -0.071 C 
ATOM     36  H13 non d ame     -29.453   9.523  22.272  0.00  0.00     0.028 H 
ATOM     37  H14 non d ame     -29.198  10.920  23.346  0.00  0.00     0.028 H 
ATOM     38  H15 non d ame     -29.511   9.310  24.038  0.00  0.00     0.028 H 
ENDBRANCH  33  35
BRANCH  33  39
ATOM     39  C13 non d ame     -32.075   9.086  22.581  0.00  0.00    -0.071 C 
ATOM     40  H16 non d ame     -31.842   8.170  23.125  0.00  0.00     0.028 H 
ATOM     41  H17 non d ame     -33.145   9.288  22.651  0.00  0.00     0.028 H 
ATOM     42  H18 non d ame     -31.798   8.968  21.534  0.00  0.00     0.028 H 
ENDBRANCH  33  39
ENDBRANCH   7  33
ENDBRANCH   4   7
ENDBRANCH   1   3
BRANCH   1  43
ATOM     43  C15 non d ame     -32.173  15.091  25.146  0.00  0.00     0.240 C 
ATOM     44  O5  non d ame     -33.260  15.270  24.698  0.00  0.00    -0.271 OA
ATOM     45  N6  non d ame     -31.886  15.454  26.562  0.00  0.00    -0.355 N 
ATOM     46  H46 non d ame     -30.968  15.301  26.955  0.00  0.00     0.162 HD
BRANCH  45  47
ATOM     47  C20 non d ame     -32.954  16.041  27.401  0.00  0.00     0.013 C 
ATOM     48  H30 non d ame     -33.914  15.760  26.967  0.00  0.00     0.072 H 
BRANCH  47  49
ATOM     49  C21 non d ame     -32.813  17.547  27.408  0.00  0.00    -0.038 C 
ATOM     50  H31 non d ame     -33.022  17.858  28.433  0.00  0.00     0.036 H 
ATOM     51  H32 non d ame     -31.839  17.753  26.964  0.00  0.00     0.036 H 
BRANCH  49  52
ATOM     52  C22 non d ame     -33.858  18.252  26.517  0.00  0.00     0.018 C 
ATOM     53  H33 non d ame     -33.287  18.867  25.823  0.00  0.00     0.048 H 
ATOM     54  H34 non d ame     -34.504  17.459  26.137  0.00  0.00     0.048 H 
BRANCH  52  55
ATOM     55  C23 non d ame     -34.786  19.227  27.291  0.00  0.00     0.259 C 
ATOM     56  O7  non d ame     -35.150  18.968  28.393  0.00  0.00    -0.265 OA
BRANCH  55  57
ATOM     57  O8  non d ame     -35.211  20.431  26.664  0.00  0.00    -0.317 OA
BRANCH  57  58
ATOM     58  C29 non d ame     -36.582  20.761  26.908  0.00  0.00     0.052 C 
ATOM     59  H47 non d ame     -36.939  20.024  27.627  0.00  0.00     0.082 H 
ATOM     60  H48 non d ame     -36.590  21.821  27.163  0.00  0.00     0.082 H 
BRANCH  58  61
ATOM     61  C35 non d ame     -37.365  20.570  25.581  0.00  0.00    -0.034 A 
ATOM     62  C30 non d ame     -36.690  20.200  24.422  0.00  0.00    -0.075 A 
ATOM     63  C31 non d ame     -37.393  20.029  23.230  0.00  0.00    -0.082 A 
ATOM     64  H49 non d ame     -35.612  20.045  24.447  0.00  0.00     0.084 H 
ATOM     65  C32 non d ame     -38.775  20.232  23.199  0.00  0.00    -0.083 A 
ATOM     66  H50 non d ame     -36.862  19.737  22.323  0.00  0.00     0.083 H 
ATOM     67  C33 non d ame     -39.443  20.605  24.358  0.00  0.00    -0.082 A 
ATOM     68  H51 non d ame     -39.332  20.100  22.272  0.00  0.00     0.083 H 
ATOM     69  C34 non d ame     -38.745  20.775  25.552  0.00  0.00    -0.075 A 
ATOM     70  H52 non d ame     -40.522  20.765  24.331  0.00  0.00     0.083 H 
ATOM     71  H53 non d ame     -39.278  21.066  26.458  0.00  0.00     0.084 H 
ENDBRANCH  58  61
ENDBRANCH  57  58
ENDBRANCH  55  57
ENDBRANCH  52  55
ENDBRANCH  49  52
ENDBRANCH  47  49
BRANCH  47  72
ATOM     72  C24 non d ame     -32.842  15.511  28.828  0.00  0.00    -0.039 C 
ATOM     73  H35 non d ame     -32.555  16.372  29.435  0.00  0.00     0.036 H 
ATOM     74  H36 non d ame     -33.784  14.998  29.022  0.00  0.00     0.036 H 
BRANCH  72  75
ATOM     75  C25 non d ame     -31.674  14.424  28.967  0.00  0.00    -0.001 C 
ATOM     76  C26 non d ame     -32.310  12.972  29.403  0.00  0.00    -0.035 C 
ATOM     77  C27 non d ame     -31.635  12.505  30.480  0.00  0.00     0.085 C 
ATOM     78  H38 non d ame     -33.325  13.105  29.776  0.00  0.00     0.036 H 
ATOM     79  H39 non d ame     -32.106  12.228  28.632  0.00  0.00     0.036 H 
ATOM     80  N5  non d ame     -30.816  13.653  31.019  0.00  0.00    -0.049 N 
ATOM     81  H40 non d ame     -32.400  12.241  31.211  0.00  0.00     0.075 H 
ATOM     82  H41 non d ame     -30.962  11.740  30.093  0.00  0.00     0.075 H 
ATOM     83  C28 non d ame     -30.810  14.777  29.860  0.00  0.00     0.193 C 
ATOM     84  H42 non d ame     -31.319  14.016  31.816  0.00  0.00     0.280 HD
ATOM     85  H43 non d ame     -29.874  13.304  31.133  0.00  0.00     0.280 HD
ATOM     86  H44 non d ame     -29.929  14.925  29.236  0.00  0.00     0.129 H 
ATOM     87  H37 non d ame     -30.998  14.433  28.112  0.00  0.00     0.046 H 
BRANCH  83  88
ATOM     88  O6  non d ame     -31.103  16.060  30.416  0.00  0.00    -0.369 OA
ATOM     89  H45 non d ame     -31.119  15.998  31.374  0.00  0.00     0.212 HD
ENDBRANCH  83  88
ENDBRANCH  72  75
ENDBRANCH  47  72
ENDBRANCH  45  47
ENDBRANCH   1  43
BRANCH   1  90
ATOM     90  C16 non d ame     -30.932  15.272  22.967  0.00  0.00    -0.035 C 
ATOM     91  H21 non d ame     -31.941  15.327  22.558  0.00  0.00     0.037 H 
ATOM     92  H22 non d ame     -30.408  16.185  23.247  0.00  0.00     0.037 H 
BRANCH  90  93
ATOM     93  C17 non d ame     -30.055  14.574  21.879  0.00  0.00    -0.059 C 
ATOM     94  H23 non d ame     -30.324  13.519  21.863  0.00  0.00     0.038 H 
BRANCH  93  95
ATOM     95  C18 non d ame     -30.315  15.154  20.452  0.00  0.00    -0.073 C 
ATOM     96  H24 non d ame     -30.178  16.235  20.468  0.00  0.00     0.028 H 
ATOM     97  H25 non d ame     -29.611  14.711  19.746  0.00  0.00     0.028 H 
ATOM     98  H26 non d ame     -31.333  14.921  20.144  0.00  0.00     0.028 H 
ENDBRANCH  93  95
BRANCH  93  99
ATOM     99  C19 non d ame     -28.569  14.659  22.238  0.00  0.00    -0.073 C 
ATOM    100  H27 non d ame     -28.352  13.965  23.052  0.00  0.00     0.028 H 
ATOM    101  H28 non d ame     -27.969  14.396  21.368  0.00  0.00     0.028 H 
ATOM    102  H29 non d ame     -28.328  15.674  22.552  0.00  0.00     0.028 H 
ENDBRANCH  93  99
ENDBRANCH  90  93
ENDBRANCH   1  90
TORSDOF 26
ENDMDL
MODEL 4
REMARK VINA RESULT:      -6.9      2.086     10.280
REMARK  26 active torsions:
REMARK  status: ('A' for Active; 'I' for Inactive)
REMARK    1  A    between atoms: C2_2  and  C3_3 
REMARK    2  A    between atoms: C4_6  and  C5_7 
REMARK       I    between atoms: C5_7  and  N2_9 
REMARK    3  A    between atoms: N2_9  and  C6_10 
REMARK    4  A    between atoms: C6_10  and  C7_11 
REMARK    5  A    between atoms: C6_10  and  C8_13 
REMARK       I    between atoms: C7_11  and  N3_14 
REMARK    6  A    between atoms: N3_14  and  C9_15 
REMARK    7  A    between atoms: C9_15  and  C10_16 
REMARK    8  A    between atoms: C9_15  and  C11_18 
REMARK       I    between atoms: C10_16  and  N4_21 
REMARK    9  A    between atoms: C11_18  and  C12_19 
REMARK   10  A    between atoms: C11_18  and  C13_20 
REMARK   11  A    between atoms: N4_21  and  C14_22 
REMARK   12  A    between atoms: C14_22  and  C15_23 
REMARK   13  A    between atoms: C14_22  and  C16_25 
REMARK       I    between atoms: C15_23  and  N6_40 
REMARK   14  A    between atoms: C16_25  and  C17_26 
REMARK   15  A    between atoms: C17_26  and  C18_27 
REMARK   16  A    between atoms: C17_26  and  C19_28 
REMARK   17  A    between atoms: C20_29  and  C21_30 
REMARK   18  A    between atoms: C20_29  and  C24_33 
REMARK   19  A    between atoms: C20_29  and  N6_40 
REMARK   20  A    between atoms: C21_30  and  C22_31 
REMARK   21  A    between atoms: C22_31  and  C23_32 
REMARK   22  A    between atoms: C23_32  and  O8_43 
REMARK   23  A    between atoms: C24_33  and  C25_34 
REMARK   24  A    between atoms: C28_38  and  O6_39 
REMARK   25  A    between atoms: C29_42  and  O8_43 
REMARK   26  A    between atoms: C29_42  and  C35_49 
ROOT
ATOM      1  C14 non d ame     -32.683  10.899  29.863  0.00  0.00     0.089 C 
ATOM      2  H20 non d ame     -31.696  10.454  29.730  0.00  0.00     0.087 H 
ENDROOT
BRANCH   1   3
ATOM      3  N4  non d ame     -33.172  11.279  28.547  0.00  0.00    -0.346 N 
ATOM      4  C10 non d ame     -32.805  10.464  27.332  0.00  0.00     0.241 C 
ATOM      5  O4  non d ame     -32.111   9.507  27.439  0.00  0.00    -0.271 OA
ATOM      6  H19 non d ame     -33.760  12.098  28.477  0.00  0.00     0.163 HD
BRANCH   4   7
ATOM      7  C9  non d ame     -33.326  10.869  25.979  0.00  0.00     0.092 C 
ATOM      8  H11 non d ame     -34.416  10.850  25.993  0.00  0.00     0.088 H 
BRANCH   7   9
ATOM      9  N3  non d ame     -32.920  12.247  25.691  0.00  0.00    -0.346 N 
ATOM     10  C7  non d ame     -33.747  13.347  26.120  0.00  0.00     0.240 C 
ATOM     11  O3  non d ame     -34.744  13.142  26.698  0.00  0.00    -0.271 OA
ATOM     12  H10 non d ame     -32.063  12.440  25.192  0.00  0.00     0.163 HD
BRANCH  10  13
ATOM     13  C6  non d ame     -33.310  14.813  25.808  0.00  0.00     0.086 C 
ATOM     14  H6  non d ame     -32.581  15.196  26.521  0.00  0.00     0.086 H 
BRANCH  13  15
ATOM     15  N2  non d ame     -32.672  14.846  24.503  0.00  0.00    -0.343 N 
ATOM     16  C5  non d ame     -31.447  15.628  24.318  0.00  0.00     0.273 C 
ATOM     17  O2  non d ame     -30.985  16.228  25.225  0.00  0.00    -0.266 OA
ATOM     18  H5  non d ame     -33.075  14.332  23.732  0.00  0.00     0.163 HD
BRANCH  16  19
ATOM     19  C4  non d ame     -30.761  15.670  22.944  0.00  0.00     0.154 A 
ATOM     20  C1  non d ame     -31.389  15.831  21.669  0.00  0.00    -0.017 A 
ATOM     21  C2  non d ame     -30.329  15.803  20.735  0.00  0.00     0.077 A 
ATOM     22  H1  non d ame     -32.450  15.949  21.453  0.00  0.00     0.091 H 
ATOM     23  O1  non d ame     -29.225  15.646  21.407  0.00  0.00    -0.218 OA
ATOM     24  N1  non d ame     -29.452  15.565  22.697  0.00  0.00    -0.123 NA
BRANCH  21  25
ATOM     25  C3  non d ame     -30.455  15.934  19.223  0.00  0.00    -0.029 C 
ATOM     26  H2  non d ame     -30.324  14.955  18.761  0.00  0.00     0.036 H 
ATOM     27  H3  non d ame     -31.442  16.323  18.973  0.00  0.00     0.036 H 
ATOM     28  H4  non d ame     -29.691  16.615  18.852  0.00  0.00     0.036 H 
ENDBRANCH  21  25
ENDBRANCH  16  19
ENDBRANCH  13  15
BRANCH  13  29
ATOM     29  C8  non d ame     -34.520  15.713  25.814  0.00  0.00    -0.049 C 
ATOM     30  H7  non d ame     -34.973  15.706  26.805  0.00  0.00     0.030 H 
ATOM     31  H8  non d ame     -34.217  16.729  25.561  0.00  0.00     0.030 H 
ATOM     32  H9  non d ame     -35.243  15.355  25.081  0.00  0.00     0.030 H 
ENDBRANCH  13  29
ENDBRANCH  10  13
ENDBRANCH   7   9
BRANCH   7  33
ATOM     33  C11 non d ame     -32.741   9.920  24.893  0.00  0.00    -0.033 C 
ATOM     34  H12 non d ame     -32.329   9.050  25.405  0.00  0.00     0.042 H 
BRANCH  33  35
ATOM     35  C12 non d ame     -33.852   9.411  23.922  0.00  0.00    -0.071 C 
ATOM     36  H13 non d ame     -33.757   9.919  22.963  0.00  0.00     0.028 H 
ATOM     37  H14 non d ame     -33.742   8.337  23.776  0.00  0.00     0.028 H 
ATOM     38  H15 non d ame     -34.832   9.622  24.349  0.00  0.00     0.028 H 
ENDBRANCH  33  35
BRANCH  33  39
ATOM     39  C13 non d ame     -31.580  10.614  24.110  0.00  0.00    -0.071 C 
ATOM     40  H16 non d ame     -31.973  11.467  23.556  0.00  0.00     0.028 H 
ATOM     41  H17 non d ame     -30.820  10.956  24.814  0.00  0.00     0.028 H 
ATOM     42  H18 non d ame     -31.134   9.903  23.415  0.00  0.00     0.028 H 
ENDBRANCH  33  39
ENDBRANCH   7  33
ENDBRANCH   4   7
ENDBRANCH   1   3
BRANCH   1  43
ATOM     43  C15 non d ame     -33.695   9.904  30.500  0.00  0.00     0.240 C 
ATOM     44  O5  non d ame     -34.045  10.057  31.626  0.00  0.00    -0.271 OA
ATOM     45  N6  non d ame     -34.236   8.767  29.704  0.00  0.00    -0.355 N 
ATOM     46  H46 non d ame     -33.950   8.630  28.745  0.00  0.00     0.162 HD
BRANCH  45  47
ATOM     47  C20 non d ame     -35.200   7.830  30.323  0.00  0.00     0.013 C 
ATOM     48  H30 non d ame     -35.031   7.840  31.400  0.00  0.00     0.072 H 
BRANCH  47  49
ATOM     49  C21 non d ame     -34.968   6.440  29.776  0.00  0.00    -0.038 C 
ATOM     50  H31 non d ame     -34.335   5.937  30.508  0.00  0.00     0.036 H 
ATOM     51  H32 non d ame     -35.957   6.045  29.548  0.00  0.00     0.036 H 
BRANCH  49  52
ATOM     52  C22 non d ame     -34.181   6.442  28.448  0.00  0.00     0.018 C 
ATOM     53  H33 non d ame     -34.931   6.504  27.660  0.00  0.00     0.048 H 
ATOM     54  H34 non d ame     -33.432   7.229  28.550  0.00  0.00     0.048 H 
BRANCH  52  55
ATOM     55  C23 non d ame     -33.391   5.131  28.185  0.00  0.00     0.259 C 
ATOM     56  O7  non d ame     -33.311   4.295  29.027  0.00  0.00    -0.265 OA
BRANCH  55  57
ATOM     57  O8  non d ame     -32.747   4.944  26.930  0.00  0.00    -0.317 OA
BRANCH  57  58
ATOM     58  C29 non d ame     -32.194   6.142  26.376  0.00  0.00     0.052 C 
ATOM     59  H47 non d ame     -32.910   6.930  26.605  0.00  0.00     0.082 H 
ATOM     60  H48 non d ame     -31.175   6.201  26.760  0.00  0.00     0.082 H 
BRANCH  58  61
ATOM     61  C35 non d ame     -32.128   5.971  24.835  0.00  0.00    -0.034 A 
ATOM     62  C30 non d ame     -32.975   5.069  24.198  0.00  0.00    -0.075 A 
ATOM     63  C31 non d ame     -32.916   4.916  22.813  0.00  0.00    -0.082 A 
ATOM     64  H49 non d ame     -33.684   4.483  24.782  0.00  0.00     0.084 H 
ATOM     65  C32 non d ame     -32.003   5.666  22.066  0.00  0.00    -0.083 A 
ATOM     66  H50 non d ame     -33.582   4.209  22.316  0.00  0.00     0.083 H 
ATOM     67  C33 non d ame     -31.158   6.561  22.706  0.00  0.00    -0.082 A 
ATOM     68  H51 non d ame     -31.952   5.552  20.983  0.00  0.00     0.083 H 
ATOM     69  C34 non d ame     -31.216   6.720  24.090  0.00  0.00    -0.075 A 
ATOM     70  H52 non d ame     -30.446   7.144  22.121  0.00  0.00     0.083 H 
ATOM     71  H53 non d ame     -30.549   7.426  24.585  0.00  0.00     0.084 H 
ENDBRANCH  58  61
ENDBRANCH  57  58
ENDBRANCH  55  57
ENDBRANCH  52  55
ENDBRANCH  49  52
ENDBRANCH  47  49
BRANCH  47  72
ATOM     72  C24 non d ame     -36.627   8.272  30.006  0.00  0.00    -0.039 C 
ATOM     73  H35 non d ame     -36.527   9.046  29.243  0.00  0.00     0.036 H 
ATOM     74  H36 non d ame     -37.172   7.355  29.784  0.00  0.00     0.036 H 
BRANCH  72  75
ATOM     75  C25 non d ame     -37.334   8.947  31.275  0.00  0.00    -0.001 C 
ATOM     76  C26 non d ame     -38.864   8.367  31.436  0.00  0.00    -0.035 C 
ATOM     77  C27 non d ame     -39.719   9.413  31.543  0.00  0.00     0.085 C 
ATOM     78  H38 non d ame     -39.177   7.875  30.515  0.00  0.00     0.036 H 
ATOM     79  H39 non d ame     -38.970   7.853  32.391  0.00  0.00     0.036 H 
ATOM     80  N5  non d ame     -38.954  10.650  31.141  0.00  0.00    -0.049 N 
ATOM     81  H40 non d ame     -40.502   9.225  30.808  0.00  0.00     0.075 H 
ATOM     82  H41 non d ame     -39.968   9.478  32.602  0.00  0.00     0.075 H 
ATOM     83  C28 non d ame     -37.394  10.231  31.149  0.00  0.00     0.193 C 
ATOM     84  H42 non d ame     -39.225  10.860  30.191  0.00  0.00     0.280 HD
ATOM     85  H43 non d ame     -39.107  11.331  31.872  0.00  0.00     0.280 HD
ATOM     86  H44 non d ame     -36.742  10.540  31.965  0.00  0.00     0.129 H 
ATOM     87  H37 non d ame     -36.700   8.926  32.161  0.00  0.00     0.046 H 
BRANCH  83  88
ATOM     88  O6  non d ame     -36.755  10.686  29.955  0.00  0.00    -0.369 OA
ATOM     89  H45 non d ame     -36.533  11.616  30.045  0.00  0.00     0.212 HD
ENDBRANCH  83  88
ENDBRANCH  72  75
ENDBRANCH  47  72
ENDBRANCH  45  47
ENDBRANCH   1  43
BRANCH   1  90
ATOM     90  C16 non d ame     -32.574  12.143  30.730  0.00  0.00    -0.035 C 
ATOM     91  H21 non d ame     -33.242  12.872  30.274  0.00  0.00     0.037 H 
ATOM     92  H22 non d ame     -32.754  11.801  31.749  0.00  0.00     0.037 H 
BRANCH  90  93
ATOM     93  C17 non d ame     -31.151  12.787  30.726  0.00  0.00    -0.059 C 
ATOM     94  H23 non d ame     -31.020  13.307  31.675  0.00  0.00     0.038 H 
BRANCH  93  95
ATOM     95  C18 non d ame     -30.020  11.717  30.607  0.00  0.00    -0.073 C 
ATOM     96  H24 non d ame     -30.380  10.870  30.024  0.00  0.00     0.028 H 
ATOM     97  H25 non d ame     -29.154  12.156  30.110  0.00  0.00     0.028 H 
ATOM     98  H26 non d ame     -29.734  11.378  31.603  0.00  0.00     0.028 H 
ENDBRANCH  93  95
BRANCH  93  99
ATOM     99  C19 non d ame     -31.029  13.834  29.615  0.00  0.00    -0.073 C 
ATOM    100  H27 non d ame     -31.395  14.794  29.978  0.00  0.00     0.028 H 
ATOM    101  H28 non d ame     -29.983  13.932  29.322  0.00  0.00     0.028 H 
ATOM    102  H29 non d ame     -31.619  13.521  28.754  0.00  0.00     0.028 H 
ENDBRANCH  93  99
ENDBRANCH  90  93
ENDBRANCH   1  90
TORSDOF 26
ENDMDL
MODEL 5
REMARK VINA RESULT:      -6.9      2.491      9.827
REMARK  26 active torsions:
REMARK  status: ('A' for Active; 'I' for Inactive)
REMARK    1  A    between atoms: C2_2  and  C3_3 
REMARK    2  A    between atoms: C4_6  and  C5_7 
REMARK       I    between atoms: C5_7  and  N2_9 
REMARK    3  A    between atoms: N2_9  and  C6_10 
REMARK    4  A    between atoms: C6_10  and  C7_11 
REMARK    5  A    between atoms: C6_10  and  C8_13 
REMARK       I    between atoms: C7_11  and  N3_14 
REMARK    6  A    between atoms: N3_14  and  C9_15 
REMARK    7  A    between atoms: C9_15  and  C10_16 
REMARK    8  A    between atoms: C9_15  and  C11_18 
REMARK       I    between atoms: C10_16  and  N4_21 
REMARK    9  A    between atoms: C11_18  and  C12_19 
REMARK   10  A    between atoms: C11_18  and  C13_20 
REMARK   11  A    between atoms: N4_21  and  C14_22 
REMARK   12  A    between atoms: C14_22  and  C15_23 
REMARK   13  A    between atoms: C14_22  and  C16_25 
REMARK       I    between atoms: C15_23  and  N6_40 
REMARK   14  A    between atoms: C16_25  and  C17_26 
REMARK   15  A    between atoms: C17_26  and  C18_27 
REMARK   16  A    between atoms: C17_26  and  C19_28 
REMARK   17  A    between atoms: C20_29  and  C21_30 
REMARK   18  A    between atoms: C20_29  and  C24_33 
REMARK   19  A    between atoms: C20_29  and  N6_40 
REMARK   20  A    between atoms: C21_30  and  C22_31 
REMARK   21  A    between atoms: C22_31  and  C23_32 
REMARK   22  A    between atoms: C23_32  and  O8_43 
REMARK   23  A    between atoms: C24_33  and  C25_34 
REMARK   24  A    between atoms: C28_38  and  O6_39 
REMARK   25  A    between atoms: C29_42  and  O8_43 
REMARK   26  A    between atoms: C29_42  and  C35_49 
ROOT
ATOM      1  C14 non d ame     -32.955   9.157  25.694  0.00  0.00     0.089 C 
ATOM      2  H20 non d ame     -33.717   9.664  25.102  0.00  0.00     0.087 H 
ENDROOT
BRANCH   1   3
ATOM      3  N4  non d ame     -31.954  10.148  26.060  0.00  0.00    -0.346 N 
ATOM      4  C10 non d ame     -32.374  11.498  26.586  0.00  0.00     0.241 C 
ATOM      5  O4  non d ame     -33.524  11.765  26.703  0.00  0.00    -0.271 OA
ATOM      6  H19 non d ame     -30.980   9.901  25.951  0.00  0.00     0.163 HD
BRANCH   4   7
ATOM      7  C9  non d ame     -31.324  12.508  26.965  0.00  0.00     0.092 C 
ATOM      8  H11 non d ame     -30.338  12.051  26.878  0.00  0.00     0.088 H 
BRANCH   7   9
ATOM      9  N3  non d ame     -31.365  13.632  26.026  0.00  0.00    -0.346 N 
ATOM     10  C7  non d ame     -31.109  13.410  24.624  0.00  0.00     0.240 C 
ATOM     11  O3  non d ame     -30.866  12.333  24.235  0.00  0.00    -0.271 OA
ATOM     12  H10 non d ame     -31.571  14.567  26.347  0.00  0.00     0.163 HD
BRANCH  10  13
ATOM     13  C6  non d ame     -31.151  14.612  23.630  0.00  0.00     0.086 C 
ATOM     14  H6  non d ame     -31.999  14.564  22.947  0.00  0.00     0.086 H 
BRANCH  13  15
ATOM     15  N2  non d ame     -31.295  15.845  24.386  0.00  0.00    -0.343 N 
ATOM     16  C5  non d ame     -32.629  16.282  24.806  0.00  0.00     0.273 C 
ATOM     17  O2  non d ame     -33.578  15.636  24.529  0.00  0.00    -0.266 OA
ATOM     18  H5  non d ame     -30.478  16.392  24.615  0.00  0.00     0.163 HD
BRANCH  16  19
ATOM     19  C4  non d ame     -32.795  17.582  25.607  0.00  0.00     0.154 A 
ATOM     20  C1  non d ame     -32.401  17.819  26.962  0.00  0.00    -0.017 A 
ATOM     21  C2  non d ame     -32.772  19.158  27.220  0.00  0.00     0.077 A 
ATOM     22  H1  non d ame     -31.921  17.127  27.653  0.00  0.00     0.091 H 
ATOM     23  O1  non d ame     -33.312  19.626  26.132  0.00  0.00    -0.218 OA
ATOM     24  N1  non d ame     -33.338  18.724  25.178  0.00  0.00    -0.123 NA
BRANCH  21  25
ATOM     25  C3  non d ame     -32.574  19.913  28.527  0.00  0.00    -0.029 C 
ATOM     26  H2  non d ame     -33.355  19.630  29.233  0.00  0.00     0.036 H 
ATOM     27  H3  non d ame     -31.599  19.664  28.947  0.00  0.00     0.036 H 
ATOM     28  H4  non d ame     -32.625  20.985  28.340  0.00  0.00     0.036 H 
ENDBRANCH  21  25
ENDBRANCH  16  19
ENDBRANCH  13  15
BRANCH  13  29
ATOM     29  C8  non d ame     -29.876  14.646  22.824  0.00  0.00    -0.049 C 
ATOM     30  H7  non d ame     -30.093  14.998  21.816  0.00  0.00     0.030 H 
ATOM     31  H8  non d ame     -29.165  15.321  23.300  0.00  0.00     0.030 H 
ATOM     32  H9  non d ame     -29.450  13.644  22.776  0.00  0.00     0.030 H 
ENDBRANCH  13  29
ENDBRANCH  10  13
ENDBRANCH   7   9
BRANCH   7  33
ATOM     33  C11 non d ame     -31.601  13.028  28.406  0.00  0.00    -0.033 C 
ATOM     34  H12 non d ame     -32.631  12.769  28.656  0.00  0.00     0.042 H 
BRANCH  33  35
ATOM     35  C12 non d ame     -30.674  12.332  29.451  0.00  0.00    -0.071 C 
ATOM     36  H13 non d ame     -30.581  12.966  30.333  0.00  0.00     0.028 H 
ATOM     37  H14 non d ame     -31.106  11.374  29.737  0.00  0.00     0.028 H 
ATOM     38  H15 non d ame     -29.689  12.172  29.014  0.00  0.00     0.028 H 
ENDBRANCH  33  35
BRANCH  33  39
ATOM     39  C13 non d ame     -31.466  14.583  28.475  0.00  0.00    -0.071 C 
ATOM     40  H16 non d ame     -30.449  14.847  28.767  0.00  0.00     0.028 H 
ATOM     41  H17 non d ame     -31.686  15.012  27.497  0.00  0.00     0.028 H 
ATOM     42  H18 non d ame     -32.169  14.977  29.209  0.00  0.00     0.028 H 
ENDBRANCH  33  39
ENDBRANCH   7  33
ENDBRANCH   4   7
ENDBRANCH   1   3
BRANCH   1  43
ATOM     43  C15 non d ame     -33.539   8.538  26.996  0.00  0.00     0.240 C 
ATOM     44  O5  non d ame     -32.839   7.896  27.711  0.00  0.00    -0.271 OA
ATOM     45  N6  non d ame     -34.968   8.754  27.358  0.00  0.00    -0.355 N 
ATOM     46  H46 non d ame     -35.571   9.303  26.761  0.00  0.00     0.162 HD
BRANCH  45  47
ATOM     47  C20 non d ame     -35.509   8.161  28.601  0.00  0.00     0.013 C 
ATOM     48  H30 non d ame     -34.736   7.523  29.031  0.00  0.00     0.072 H 
BRANCH  47  49
ATOM     49  C21 non d ame     -36.733   7.338  28.270  0.00  0.00    -0.038 C 
ATOM     50  H31 non d ame     -37.120   7.747  27.336  0.00  0.00     0.036 H 
ATOM     51  H32 non d ame     -36.411   6.298  28.318  0.00  0.00     0.036 H 
BRANCH  49  52
ATOM     52  C22 non d ame     -37.860   7.495  29.314  0.00  0.00     0.018 C 
ATOM     53  H33 non d ame     -37.762   8.506  29.705  0.00  0.00     0.048 H 
ATOM     54  H34 non d ame     -38.777   7.194  28.804  0.00  0.00     0.048 H 
BRANCH  52  55
ATOM     55  C23 non d ame     -37.719   6.546  30.536  0.00  0.00     0.259 C 
ATOM     56  O7  non d ame     -38.442   6.658  31.473  0.00  0.00    -0.265 OA
BRANCH  55  57
ATOM     57  O8  non d ame     -36.704   5.549  30.531  0.00  0.00    -0.317 OA
BRANCH  57  58
ATOM     58  C29 non d ame     -35.626   5.812  31.434  0.00  0.00     0.052 C 
ATOM     59  H47 non d ame     -35.393   6.870  31.313  0.00  0.00     0.082 H 
ATOM     60  H48 non d ame     -35.952   5.432  32.402  0.00  0.00     0.082 H 
BRANCH  58  61
ATOM     61  C35 non d ame     -34.399   4.983  30.969  0.00  0.00    -0.034 A 
ATOM     62  C30 non d ame     -33.630   4.295  31.902  0.00  0.00    -0.075 A 
ATOM     63  C31 non d ame     -32.527   3.550  31.484  0.00  0.00    -0.082 A 
ATOM     64  H49 non d ame     -33.889   4.339  32.959  0.00  0.00     0.084 H 
ATOM     65  C32 non d ame     -32.194   3.497  30.129  0.00  0.00    -0.083 A 
ATOM     66  H50 non d ame     -31.927   3.011  32.218  0.00  0.00     0.083 H 
ATOM     67  C33 non d ame     -32.962   4.187  29.202  0.00  0.00    -0.082 A 
ATOM     68  H51 non d ame     -31.334   2.916  29.794  0.00  0.00     0.083 H 
ATOM     69  C34 non d ame     -34.066   4.931  29.614  0.00  0.00    -0.075 A 
ATOM     70  H52 non d ame     -32.699   4.146  28.144  0.00  0.00     0.083 H 
ATOM     71  H53 non d ame     -34.666   5.470  28.880  0.00  0.00     0.084 H 
ENDBRANCH  58  61
ENDBRANCH  57  58
ENDBRANCH  55  57
ENDBRANCH  52  55
ENDBRANCH  49  52
ENDBRANCH  47  49
BRANCH  47  72
ATOM     72  C24 non d ame     -35.887   9.269  29.581  0.00  0.00    -0.039 C 
ATOM     73  H35 non d ame     -35.827  10.195  29.008  0.00  0.00     0.036 H 
ATOM     74  H36 non d ame     -36.837   8.959  30.017  0.00  0.00     0.036 H 
BRANCH  72  75
ATOM     75  C25 non d ame     -34.832   9.386  30.780  0.00  0.00    -0.001 C 
ATOM     76  C26 non d ame     -35.627   9.496  32.215  0.00  0.00    -0.035 C 
ATOM     77  C27 non d ame     -35.150  10.565  32.897  0.00  0.00     0.085 C 
ATOM     78  H38 non d ame     -36.673   9.748  32.045  0.00  0.00     0.036 H 
ATOM     79  H39 non d ame     -35.366   8.651  32.853  0.00  0.00     0.036 H 
ATOM     80  N5  non d ame     -34.338  11.384  31.923  0.00  0.00    -0.049 N 
ATOM     81  H40 non d ame     -36.030  11.137  33.195  0.00  0.00     0.075 H 
ATOM     82  H41 non d ame     -34.485  10.154  33.656  0.00  0.00     0.075 H 
ATOM     83  C28 non d ame     -34.084  10.430  30.645  0.00  0.00     0.193 C 
ATOM     84  H42 non d ame     -34.925  12.154  31.637  0.00  0.00     0.280 HD
ATOM     85  H43 non d ame     -33.451  11.564  32.371  0.00  0.00     0.280 HD
ATOM     86  H44 non d ame     -33.114   9.960  30.489  0.00  0.00     0.129 H 
ATOM     87  H37 non d ame     -34.040   8.641  30.708  0.00  0.00     0.046 H 
BRANCH  83  88
ATOM     88  O6  non d ame     -34.363  11.140  29.437  0.00  0.00    -0.369 OA
ATOM     89  H45 non d ame     -34.848  10.571  28.836  0.00  0.00     0.212 HD
ENDBRANCH  83  88
ENDBRANCH  72  75
ENDBRANCH  47  72
ENDBRANCH  45  47
ENDBRANCH   1  43
BRANCH   1  90
ATOM     90  C16 non d ame     -32.295   8.069  24.862  0.00  0.00    -0.035 C 
ATOM     91  H21 non d ame     -31.224   8.201  25.011  0.00  0.00     0.037 H 
ATOM     92  H22 non d ame     -32.776   7.140  25.167  0.00  0.00     0.037 H 
BRANCH  90  93
ATOM     93  C17 non d ame     -32.547   8.214  23.328  0.00  0.00    -0.059 C 
ATOM     94  H23 non d ame     -32.489   7.219  22.887  0.00  0.00     0.038 H 
BRANCH  93  95
ATOM     95  C18 non d ame     -33.964   8.792  23.015  0.00  0.00    -0.073 C 
ATOM     96  H24 non d ame     -34.542   8.856  23.937  0.00  0.00     0.028 H 
ATOM     97  H25 non d ame     -33.863   9.787  22.581  0.00  0.00     0.028 H 
ATOM     98  H26 non d ame     -34.476   8.139  22.310  0.00  0.00     0.028 H 
ENDBRANCH  93  95
BRANCH  93  99
ATOM     99  C19 non d ame     -31.455   9.065  22.673  0.00  0.00    -0.073 C 
ATOM    100  H27 non d ame     -31.741  10.117  22.713  0.00  0.00     0.028 H 
ATOM    101  H28 non d ame     -30.515   8.925  23.207  0.00  0.00     0.028 H 
ATOM    102  H29 non d ame     -31.331   8.761  21.634  0.00  0.00     0.028 H 
ENDBRANCH  93  99
ENDBRANCH  90  93
ENDBRANCH   1  90
TORSDOF 26
ENDMDL
MODEL 6
REMARK VINA RESULT:      -6.8      2.479      9.957
REMARK  26 active torsions:
REMARK  status: ('A' for Active; 'I' for Inactive)
REMARK    1  A    between atoms: C2_2  and  C3_3 
REMARK    2  A    between atoms: C4_6  and  C5_7 
REMARK       I    between atoms: C5_7  and  N2_9 
REMARK    3  A    between atoms: N2_9  and  C6_10 
REMARK    4  A    between atoms: C6_10  and  C7_11 
REMARK    5  A    between atoms: C6_10  and  C8_13 
REMARK       I    between atoms: C7_11  and  N3_14 
REMARK    6  A    between atoms: N3_14  and  C9_15 
REMARK    7  A    between atoms: C9_15  and  C10_16 
REMARK    8  A    between atoms: C9_15  and  C11_18 
REMARK       I    between atoms: C10_16  and  N4_21 
REMARK    9  A    between atoms: C11_18  and  C12_19 
REMARK   10  A    between atoms: C11_18  and  C13_20 
REMARK   11  A    between atoms: N4_21  and  C14_22 
REMARK   12  A    between atoms: C14_22  and  C15_23 
REMARK   13  A    between atoms: C14_22  and  C16_25 
REMARK       I    between atoms: C15_23  and  N6_40 
REMARK   14  A    between atoms: C16_25  and  C17_26 
REMARK   15  A    between atoms: C17_26  and  C18_27 
REMARK   16  A    between atoms: C17_26  and  C19_28 
REMARK   17  A    between atoms: C20_29  and  C21_30 
REMARK   18  A    between atoms: C20_29  and  C24_33 
REMARK   19  A    between atoms: C20_29  and  N6_40 
REMARK   20  A    between atoms: C21_30  and  C22_31 
REMARK   21  A    between atoms: C22_31  and  C23_32 
REMARK   22  A    between atoms: C23_32  and  O8_43 
REMARK   23  A    between atoms: C24_33  and  C25_34 
REMARK   24  A    between atoms: C28_38  and  O6_39 
REMARK   25  A    between atoms: C29_42  and  O8_43 
REMARK   26  A    between atoms: C29_42  and  C35_49 
ROOT
ATOM      1  C14 non d ame     -34.944   8.264  31.209  0.00  0.00     0.089 C 
ATOM      2  H20 non d ame     -34.506   8.261  32.208  0.00  0.00     0.087 H 
ENDROOT
BRANCH   1   3
ATOM      3  N4  non d ame     -34.043   9.005  30.339  0.00  0.00    -0.346 N 
ATOM      4  C10 non d ame     -33.500  10.345  30.767  0.00  0.00     0.241 C 
ATOM      5  O4  non d ame     -33.806  10.810  31.815  0.00  0.00    -0.271 OA
ATOM      6  H19 non d ame     -33.797   8.593  29.450  0.00  0.00     0.163 HD
BRANCH   4   7
ATOM      7  C9  non d ame     -32.564  11.095  29.856  0.00  0.00     0.092 C 
ATOM      8  H11 non d ame     -31.849  10.395  29.423  0.00  0.00     0.088 H 
BRANCH   7   9
ATOM      9  N3  non d ame     -33.323  11.680  28.749  0.00  0.00    -0.346 N 
ATOM     10  C7  non d ame     -33.221  11.115  27.426  0.00  0.00     0.240 C 
ATOM     11  O3  non d ame     -32.530  10.189  27.235  0.00  0.00    -0.271 OA
ATOM     12  H10 non d ame     -33.921  12.480  28.897  0.00  0.00     0.163 HD
BRANCH  10  13
ATOM     13  C6  non d ame     -34.029  11.745  26.249  0.00  0.00     0.086 C 
ATOM     14  H6  non d ame     -34.746  12.495  26.584  0.00  0.00     0.086 H 
BRANCH  13  15
ATOM     15  N2  non d ame     -33.107  12.422  25.353  0.00  0.00    -0.343 N 
ATOM     16  C5  non d ame     -32.600  13.750  25.708  0.00  0.00     0.273 C 
ATOM     17  O2  non d ame     -32.943  14.265  26.714  0.00  0.00    -0.266 OA
ATOM     18  H5  non d ame     -32.822  11.975  24.493  0.00  0.00     0.163 HD
BRANCH  16  19
ATOM     19  C4  non d ame     -31.623  14.476  24.770  0.00  0.00     0.154 A 
ATOM     20  C1  non d ame     -30.795  13.890  23.761  0.00  0.00    -0.017 A 
ATOM     21  C2  non d ame     -30.094  14.975  23.190  0.00  0.00     0.077 A 
ATOM     22  H1  non d ame     -30.714  12.838  23.487  0.00  0.00     0.091 H 
ATOM     23  O1  non d ame     -30.485  16.054  23.804  0.00  0.00    -0.218 OA
ATOM     24  N1  non d ame     -31.376  15.788  24.730  0.00  0.00    -0.123 NA
BRANCH  21  25
ATOM     25  C3  non d ame     -29.074  14.896  22.062  0.00  0.00    -0.029 C 
ATOM     26  H2  non d ame     -29.467  14.273  21.259  0.00  0.00     0.036 H 
ATOM     27  H3  non d ame     -28.876  15.897  21.680  0.00  0.00     0.036 H 
ATOM     28  H4  non d ame     -28.149  14.461  22.439  0.00  0.00     0.036 H 
ENDBRANCH  21  25
ENDBRANCH  16  19
ENDBRANCH  13  15
BRANCH  13  29
ATOM     29  C8  non d ame     -34.769  10.661  25.507  0.00  0.00    -0.049 C 
ATOM     30  H7  non d ame     -34.950   9.820  26.176  0.00  0.00     0.030 H 
ATOM     31  H8  non d ame     -35.722  11.052  25.149  0.00  0.00     0.030 H 
ATOM     32  H9  non d ame     -34.171  10.328  24.658  0.00  0.00     0.030 H 
ENDBRANCH  13  29
ENDBRANCH  10  13
ENDBRANCH   7   9
BRANCH   7  33
ATOM     33  C11 non d ame     -31.859  12.229  30.656  0.00  0.00    -0.033 C 
ATOM     34  H12 non d ame     -32.395  12.347  31.599  0.00  0.00     0.042 H 
BRANCH  33  35
ATOM     35  C12 non d ame     -30.384  11.853  30.999  0.00  0.00    -0.071 C 
ATOM     36  H13 non d ame     -29.788  12.761  31.084  0.00  0.00     0.028 H 
ATOM     37  H14 non d ame     -30.357  11.311  31.943  0.00  0.00     0.028 H 
ATOM     38  H15 non d ame     -29.976  11.224  30.207  0.00  0.00     0.028 H 
ENDBRANCH  33  35
BRANCH  33  39
ATOM     39  C13 non d ame     -31.934  13.586  29.886  0.00  0.00    -0.071 C 
ATOM     40  H16 non d ame     -31.986  14.408  30.601  0.00  0.00     0.028 H 
ATOM     41  H17 non d ame     -31.046  13.701  29.264  0.00  0.00     0.028 H 
ATOM     42  H18 non d ame     -32.822  13.597  29.254  0.00  0.00     0.028 H 
ENDBRANCH  33  39
ENDBRANCH   7  33
ENDBRANCH   4   7
ENDBRANCH   1   3
BRANCH   1  43
ATOM     43  C15 non d ame     -35.117   6.829  30.638  0.00  0.00     0.240 C 
ATOM     44  O5  non d ame     -35.808   6.046  31.205  0.00  0.00    -0.271 OA
ATOM     45  N6  non d ame     -34.428   6.432  29.377  0.00  0.00    -0.355 N 
ATOM     46  H46 non d ame     -33.843   7.090  28.883  0.00  0.00     0.162 HD
BRANCH  45  47
ATOM     47  C20 non d ame     -34.603   5.063  28.844  0.00  0.00     0.013 C 
ATOM     48  H30 non d ame     -34.954   4.429  29.659  0.00  0.00     0.072 H 
BRANCH  47  49
ATOM     49  C21 non d ame     -33.277   4.554  28.328  0.00  0.00    -0.038 C 
ATOM     50  H31 non d ame     -32.516   5.153  28.829  0.00  0.00     0.036 H 
ATOM     51  H32 non d ame     -33.301   3.474  28.470  0.00  0.00     0.036 H 
BRANCH  49  52
ATOM     52  C22 non d ame     -33.092   4.792  26.814  0.00  0.00     0.018 C 
ATOM     53  H33 non d ame     -32.544   3.926  26.444  0.00  0.00     0.048 H 
ATOM     54  H34 non d ame     -34.087   5.013  26.426  0.00  0.00     0.048 H 
BRANCH  52  55
ATOM     55  C23 non d ame     -32.216   6.030  26.477  0.00  0.00     0.259 C 
ATOM     56  O7  non d ame     -32.040   6.883  27.285  0.00  0.00    -0.265 OA
BRANCH  55  57
ATOM     57  O8  non d ame     -31.636   6.142  25.182  0.00  0.00    -0.317 OA
BRANCH  57  58
ATOM     58  C29 non d ame     -32.427   6.891  24.254  0.00  0.00     0.052 C 
ATOM     59  H47 non d ame     -32.723   6.183  23.481  0.00  0.00     0.082 H 
ATOM     60  H48 non d ame     -33.186   7.395  24.852  0.00  0.00     0.082 H 
BRANCH  58  61
ATOM     61  C35 non d ame     -31.515   7.969  23.609  0.00  0.00    -0.034 A 
ATOM     62  C30 non d ame     -31.810   9.319  23.773  0.00  0.00    -0.075 A 
ATOM     63  C31 non d ame     -30.991  10.288  23.193  0.00  0.00    -0.082 A 
ATOM     64  H49 non d ame     -32.681   9.618  24.354  0.00  0.00     0.084 H 
ATOM     65  C32 non d ame     -29.876   9.901  22.444  0.00  0.00    -0.083 A 
ATOM     66  H50 non d ame     -31.224  11.345  23.324  0.00  0.00     0.083 H 
ATOM     67  C33 non d ame     -29.588   8.553  22.281  0.00  0.00    -0.082 A 
ATOM     68  H51 non d ame     -29.230  10.652  21.989  0.00  0.00     0.083 H 
ATOM     69  C34 non d ame     -30.402   7.582  22.860  0.00  0.00    -0.075 A 
ATOM     70  H52 non d ame     -28.718   8.255  21.695  0.00  0.00     0.083 H 
ATOM     71  H53 non d ame     -30.169   6.525  22.728  0.00  0.00     0.084 H 
ENDBRANCH  58  61
ENDBRANCH  57  58
ENDBRANCH  55  57
ENDBRANCH  52  55
ENDBRANCH  49  52
ENDBRANCH  47  49
BRANCH  47  72
ATOM     72  C24 non d ame     -35.623   5.077  27.707  0.00  0.00    -0.039 C 
ATOM     73  H35 non d ame     -35.681   6.117  27.384  0.00  0.00     0.036 H 
ATOM     74  H36 non d ame     -35.291   4.307  27.011  0.00  0.00     0.036 H 
BRANCH  72  75
ATOM     75  C25 non d ame     -37.083   4.656  28.215  0.00  0.00    -0.001 C 
ATOM     76  C26 non d ame     -37.497   3.197  27.581  0.00  0.00    -0.035 C 
ATOM     77  C27 non d ame     -38.718   3.303  27.004  0.00  0.00     0.085 C 
ATOM     78  H38 non d ame     -36.840   2.952  26.746  0.00  0.00     0.036 H 
ATOM     79  H39 non d ame     -37.655   2.474  28.381  0.00  0.00     0.036 H 
ATOM     80  N5  non d ame     -39.030   4.775  26.898  0.00  0.00    -0.049 N 
ATOM     81  H40 non d ame     -38.602   2.891  26.000  0.00  0.00     0.075 H 
ATOM     82  H41 non d ame     -39.413   2.842  27.705  0.00  0.00     0.075 H 
ATOM     83  C28 non d ame     -37.970   5.525  27.858  0.00  0.00     0.193 C 
ATOM     84  H42 non d ame     -38.842   5.041  25.942  0.00  0.00     0.280 HD
ATOM     85  H43 non d ame     -39.956   4.900  27.282  0.00  0.00     0.280 HD
ATOM     86  H44 non d ame     -38.277   5.906  28.830  0.00  0.00     0.129 H 
ATOM     87  H37 non d ame     -37.198   4.780  29.291  0.00  0.00     0.046 H 
BRANCH  83  88
ATOM     88  O6  non d ame     -37.390   6.639  27.176  0.00  0.00    -0.369 OA
ATOM     89  H45 non d ame     -37.202   6.396  26.267  0.00  0.00     0.212 HD
ENDBRANCH  83  88
ENDBRANCH  72  75
ENDBRANCH  47  72
ENDBRANCH  45  47
ENDBRANCH   1  43
BRANCH   1  90
ATOM     90  C16 non d ame     -36.292   8.968  31.241  0.00  0.00    -0.035 C 
ATOM     91  H21 non d ame     -36.893   8.408  31.957  0.00  0.00     0.037 H 
ATOM     92  H22 non d ame     -36.065  10.018  31.424  0.00  0.00     0.037 H 
BRANCH  90  93
ATOM     93  C17 non d ame     -37.060   8.912  29.882  0.00  0.00    -0.059 C 
ATOM     94  H23 non d ame     -36.547   8.197  29.240  0.00  0.00     0.038 H 
BRANCH  93  95
ATOM     95  C18 non d ame     -38.534   8.423  30.059  0.00  0.00    -0.073 C 
ATOM     96  H24 non d ame     -39.015   8.361  29.083  0.00  0.00     0.028 H 
ATOM     97  H25 non d ame     -38.536   7.438  30.526  0.00  0.00     0.028 H 
ATOM     98  H26 non d ame     -39.077   9.126  30.689  0.00  0.00     0.028 H 
ENDBRANCH  93  95
BRANCH  93  99
ATOM     99  C19 non d ame     -37.019  10.269  29.175  0.00  0.00    -0.073 C 
ATOM    100  H27 non d ame     -36.071  10.763  29.391  0.00  0.00     0.028 H 
ATOM    101  H28 non d ame     -37.113  10.121  28.099  0.00  0.00     0.028 H 
ATOM    102  H29 non d ame     -37.841  10.889  29.529  0.00  0.00     0.028 H 
ENDBRANCH  93  99
ENDBRANCH  90  93
ENDBRANCH   1  90
TORSDOF 26
ENDMDL
MODEL 7
REMARK VINA RESULT:      -6.7      3.001      5.243
REMARK  26 active torsions:
REMARK  status: ('A' for Active; 'I' for Inactive)
REMARK    1  A    between atoms: C2_2  and  C3_3 
REMARK    2  A    between atoms: C4_6  and  C5_7 
REMARK       I    between atoms: C5_7  and  N2_9 
REMARK    3  A    between atoms: N2_9  and  C6_10 
REMARK    4  A    between atoms: C6_10  and  C7_11 
REMARK    5  A    between atoms: C6_10  and  C8_13 
REMARK       I    between atoms: C7_11  and  N3_14 
REMARK    6  A    between atoms: N3_14  and  C9_15 
REMARK    7  A    between atoms: C9_15  and  C10_16 
REMARK    8  A    between atoms: C9_15  and  C11_18 
REMARK       I    between atoms: C10_16  and  N4_21 
REMARK    9  A    between atoms: C11_18  and  C12_19 
REMARK   10  A    between atoms: C11_18  and  C13_20 
REMARK   11  A    between atoms: N4_21  and  C14_22 
REMARK   12  A    between atoms: C14_22  and  C15_23 
REMARK   13  A    between atoms: C14_22  and  C16_25 
REMARK       I    between atoms: C15_23  and  N6_40 
REMARK   14  A    between atoms: C16_25  and  C17_26 
REMARK   15  A    between atoms: C17_26  and  C18_27 
REMARK   16  A    between atoms: C17_26  and  C19_28 
REMARK   17  A    between atoms: C20_29  and  C21_30 
REMARK   18  A    between atoms: C20_29  and  C24_33 
REMARK   19  A    between atoms: C20_29  and  N6_40 
REMARK   20  A    between atoms: C21_30  and  C22_31 
REMARK   21  A    between atoms: C22_31  and  C23_32 
REMARK   22  A    between atoms: C23_32  and  O8_43 
REMARK   23  A    between atoms: C24_33  and  C25_34 
REMARK   24  A    between atoms: C28_38  and  O6_39 
REMARK   25  A    between atoms: C29_42  and  O8_43 
REMARK   26  A    between atoms: C29_42  and  C35_49 
ROOT
ATOM      1  C14 non d ame     -32.847  13.256  28.034  0.00  0.00     0.089 C 
ATOM      2  H20 non d ame     -33.929  13.391  28.025  0.00  0.00     0.087 H 
ENDROOT
BRANCH   1   3
ATOM      3  N4  non d ame     -32.569  11.920  27.528  0.00  0.00    -0.346 N 
ATOM      4  C10 non d ame     -33.186  11.452  26.233  0.00  0.00     0.241 C 
ATOM      5  O4  non d ame     -33.905  12.167  25.618  0.00  0.00    -0.271 OA
ATOM      6  H19 non d ame     -31.956  11.326  28.067  0.00  0.00     0.163 HD
BRANCH   4   7
ATOM      7  C9  non d ame     -32.882  10.068  25.722  0.00  0.00     0.092 C 
ATOM      8  H11 non d ame     -31.922   9.741  26.122  0.00  0.00     0.088 H 
BRANCH   7   9
ATOM      9  N3  non d ame     -33.897   9.132  26.210  0.00  0.00    -0.346 N 
ATOM     10  C7  non d ame     -33.635   8.329  27.378  0.00  0.00     0.240 C 
ATOM     11  O3  non d ame     -32.610   8.422  27.937  0.00  0.00    -0.271 OA
ATOM     12  H10 non d ame     -34.785   9.039  25.738  0.00  0.00     0.163 HD
BRANCH  10  13
ATOM     13  C6  non d ame     -34.719   7.331  27.892  0.00  0.00     0.086 C 
ATOM     14  H6  non d ame     -34.936   6.539  27.176  0.00  0.00     0.086 H 
BRANCH  13  15
ATOM     15  N2  non d ame     -34.228   6.681  29.096  0.00  0.00    -0.343 N 
ATOM     16  C5  non d ame     -34.102   5.221  29.127  0.00  0.00     0.273 C 
ATOM     17  O2  non d ame     -34.401   4.581  28.180  0.00  0.00    -0.266 OA
ATOM     18  H5  non d ame     -33.979   7.236  29.902  0.00  0.00     0.163 HD
BRANCH  16  19
ATOM     19  C4  non d ame     -33.583   4.521  30.392  0.00  0.00     0.154 A 
ATOM     20  C1  non d ame     -32.512   3.577  30.480  0.00  0.00    -0.017 A 
ATOM     21  C2  non d ame     -32.436   3.239  31.850  0.00  0.00     0.077 A 
ATOM     22  H1  non d ame     -31.886   3.194  29.674  0.00  0.00     0.091 H 
ATOM     23  O1  non d ame     -33.359   3.918  32.468  0.00  0.00    -0.218 OA
ATOM     24  N1  non d ame     -34.042   4.672  31.638  0.00  0.00    -0.123 NA
BRANCH  21  25
ATOM     25  C3  non d ame     -31.455   2.263  32.485  0.00  0.00    -0.029 C 
ATOM     26  H2  non d ame     -30.696   1.983  31.754  0.00  0.00     0.036 H 
ATOM     27  H3  non d ame     -30.975   2.736  33.342  0.00  0.00     0.036 H 
ATOM     28  H4  non d ame     -31.989   1.372  32.813  0.00  0.00     0.036 H 
ENDBRANCH  21  25
ENDBRANCH  16  19
ENDBRANCH  13  15
BRANCH  13  29
ATOM     29  C8  non d ame     -35.993   8.080  28.193  0.00  0.00    -0.049 C 
ATOM     30  H7  non d ame     -36.842   7.531  27.787  0.00  0.00     0.030 H 
ATOM     31  H8  non d ame     -36.108   8.180  29.272  0.00  0.00     0.030 H 
ATOM     32  H9  non d ame     -35.949   9.070  27.738  0.00  0.00     0.030 H 
ENDBRANCH  13  29
ENDBRANCH  10  13
ENDBRANCH   7   9
BRANCH   7  33
ATOM     33  C11 non d ame     -32.893  10.077  24.165  0.00  0.00    -0.033 C 
ATOM     34  H12 non d ame     -33.227  11.065  23.845  0.00  0.00     0.042 H 
BRANCH  33  35
ATOM     35  C12 non d ame     -31.462   9.854  23.584  0.00  0.00    -0.071 C 
ATOM     36  H13 non d ame     -31.390  10.325  22.603  0.00  0.00     0.028 H 
ATOM     37  H14 non d ame     -30.725  10.296  24.254  0.00  0.00     0.028 H 
ATOM     38  H15 non d ame     -31.271   8.785  23.488  0.00  0.00     0.028 H 
ENDBRANCH  33  35
BRANCH  33  39
ATOM     39  C13 non d ame     -33.902   9.023  23.607  0.00  0.00    -0.071 C 
ATOM     40  H16 non d ame     -34.027   9.171  22.534  0.00  0.00     0.028 H 
ATOM     41  H17 non d ame     -33.519   8.019  23.793  0.00  0.00     0.028 H 
ATOM     42  H18 non d ame     -34.863   9.141  24.105  0.00  0.00     0.028 H 
ENDBRANCH  33  39
ENDBRANCH   7  33
ENDBRANCH   4   7
ENDBRANCH   1   3
BRANCH   1  43
ATOM     43  C15 non d ame     -32.118  14.290  27.130  0.00  0.00     0.240 C 
ATOM     44  O5  non d ame     -30.930  14.322  27.108  0.00  0.00    -0.271 OA
ATOM     45  N6  non d ame     -32.900  15.234  26.283  0.00  0.00    -0.355 N 
ATOM     46  H46 non d ame     -33.910  15.213  26.289  0.00  0.00     0.162 HD
BRANCH  45  47
ATOM     47  C20 non d ame     -32.193  16.211  25.426  0.00  0.00     0.013 C 
ATOM     48  H30 non d ame     -31.190  16.348  25.833  0.00  0.00     0.072 H 
BRANCH  47  49
ATOM     49  C21 non d ame     -32.941  17.525  25.443  0.00  0.00    -0.038 C 
ATOM     50  H31 non d ame     -32.606  18.066  24.556  0.00  0.00     0.036 H 
ATOM     51  H32 non d ame     -33.992  17.263  25.557  0.00  0.00     0.036 H 
BRANCH  49  52
ATOM     52  C22 non d ame     -32.577  18.408  26.656  0.00  0.00     0.018 C 
ATOM     53  H33 non d ame     -31.967  17.781  27.305  0.00  0.00     0.048 H 
ATOM     54  H34 non d ame     -32.161  19.326  26.238  0.00  0.00     0.048 H 
BRANCH  52  55
ATOM     55  C23 non d ame     -33.802  18.841  27.506  0.00  0.00     0.259 C 
ATOM     56  O7  non d ame     -34.159  18.184  28.430  0.00  0.00    -0.265 OA
BRANCH  55  57
ATOM     57  O8  non d ame     -34.506  20.028  27.160  0.00  0.00    -0.317 OA
BRANCH  57  58
ATOM     58  C29 non d ame     -35.910  19.972  27.430  0.00  0.00     0.052 C 
ATOM     59  H47 non d ame     -36.070  19.035  27.964  0.00  0.00     0.082 H 
ATOM     60  H48 non d ame     -36.158  20.920  27.905  0.00  0.00     0.082 H 
BRANCH  58  61
ATOM     61  C35 non d ame     -36.656  19.894  26.071  0.00  0.00    -0.034 A 
ATOM     62  C30 non d ame     -36.607  18.728  25.315  0.00  0.00    -0.075 A 
ATOM     63  C31 non d ame     -37.277  18.658  24.093  0.00  0.00    -0.082 A 
ATOM     64  H49 non d ame     -36.043  17.869  25.677  0.00  0.00     0.084 H 
ATOM     65  C32 non d ame     -37.996  19.762  23.629  0.00  0.00    -0.083 A 
ATOM     66  H50 non d ame     -37.237  17.742  23.504  0.00  0.00     0.083 H 
ATOM     67  C33 non d ame     -38.040  20.925  24.385  0.00  0.00    -0.082 A 
ATOM     68  H51 non d ame     -38.524  19.716  22.676  0.00  0.00     0.083 H 
ATOM     69  C34 non d ame     -37.374  20.998  25.607  0.00  0.00    -0.075 A 
ATOM     70  H52 non d ame     -38.601  21.786  24.019  0.00  0.00     0.083 H 
ATOM     71  H53 non d ame     -37.414  21.915  26.196  0.00  0.00     0.084 H 
ENDBRANCH  58  61
ENDBRANCH  57  58
ENDBRANCH  55  57
ENDBRANCH  52  55
ENDBRANCH  49  52
ENDBRANCH  47  49
BRANCH  47  72
ATOM     72  C24 non d ame     -32.117  15.685  23.995  0.00  0.00    -0.039 C 
ATOM     73  H35 non d ame     -32.633  14.724  24.013  0.00  0.00     0.036 H 
ATOM     74  H36 non d ame     -32.493  16.493  23.369  0.00  0.00     0.036 H 
BRANCH  72  75
ATOM     75  C25 non d ame     -30.605  15.403  23.546  0.00  0.00    -0.001 C 
ATOM     76  C26 non d ame     -30.365  15.952  22.016  0.00  0.00    -0.035 C 
ATOM     77  C27 non d ame     -29.813  14.960  21.277  0.00  0.00     0.085 C 
ATOM     78  H38 non d ame     -31.323  16.131  21.527  0.00  0.00     0.036 H 
ATOM     79  H39 non d ame     -29.598  16.728  22.013  0.00  0.00     0.036 H 
ATOM     80  N5  non d ame     -29.958  13.685  22.073  0.00  0.00    -0.049 N 
ATOM     81  H40 non d ame     -30.426  14.889  20.378  0.00  0.00     0.075 H 
ATOM     82  H41 non d ame     -28.755  15.210  21.197  0.00  0.00     0.075 H 
ATOM     83  C28 non d ame     -30.337  14.140  23.575  0.00  0.00     0.193 C 
ATOM     84  H42 non d ame     -30.744  13.189  21.679  0.00  0.00     0.280 HD
ATOM     85  H43 non d ame     -29.044  13.253  22.088  0.00  0.00     0.280 HD
ATOM     86  H44 non d ame     -29.589  14.114  24.367  0.00  0.00     0.129 H 
ATOM     87  H37 non d ame     -29.885  15.712  24.303  0.00  0.00     0.046 H 
BRANCH  83  88
ATOM     88  O6  non d ame     -31.435  13.366  24.061  0.00  0.00    -0.369 OA
ATOM     89  H45 non d ame     -31.464  12.525  23.599  0.00  0.00     0.212 HD
ENDBRANCH  83  88
ENDBRANCH  72  75
ENDBRANCH  47  72
ENDBRANCH  45  47
ENDBRANCH   1  43
BRANCH   1  90
ATOM     90  C16 non d ame     -32.327  13.365  29.458  0.00  0.00    -0.035 C 
ATOM     91  H21 non d ame     -31.381  13.900  29.380  0.00  0.00     0.037 H 
ATOM     92  H22 non d ame     -33.148  13.791  30.033  0.00  0.00     0.037 H 
BRANCH  90  93
ATOM     93  C17 non d ame     -31.999  11.985  30.113  0.00  0.00    -0.059 C 
ATOM     94  H23 non d ame     -31.908  11.252  29.312  0.00  0.00     0.038 H 
BRANCH  93  95
ATOM     95  C18 non d ame     -30.645  12.010  30.892  0.00  0.00    -0.073 C 
ATOM     96  H24 non d ame     -30.815  12.382  31.903  0.00  0.00     0.028 H 
ATOM     97  H25 non d ame     -30.236  11.001  30.942  0.00  0.00     0.028 H 
ATOM     98  H26 non d ame     -29.941  12.663  30.378  0.00  0.00     0.028 H 
ENDBRANCH  93  95
BRANCH  93  99
ATOM     99  C19 non d ame     -33.142  11.526  31.022  0.00  0.00    -0.073 C 
ATOM    100  H27 non d ame     -32.730  11.118  31.946  0.00  0.00     0.028 H 
ATOM    101  H28 non d ame     -33.784  12.376  31.256  0.00  0.00     0.028 H 
ATOM    102  H29 non d ame     -33.726  10.760  30.514  0.00  0.00     0.028 H 
ENDBRANCH  93  99
ENDBRANCH  90  93
ENDBRANCH   1  90
TORSDOF 26
ENDMDL
MODEL 8
REMARK VINA RESULT:      -6.7      2.495      8.120
REMARK  26 active torsions:
REMARK  status: ('A' for Active; 'I' for Inactive)
REMARK    1  A    between atoms: C2_2  and  C3_3 
REMARK    2  A    between atoms: C4_6  and  C5_7 
REMARK       I    between atoms: C5_7  and  N2_9 
REMARK    3  A    between atoms: N2_9  and  C6_10 
REMARK    4  A    between atoms: C6_10  and  C7_11 
REMARK    5  A    between atoms: C6_10  and  C8_13 
REMARK       I    between atoms: C7_11  and  N3_14 
REMARK    6  A    between atoms: N3_14  and  C9_15 
REMARK    7  A    between atoms: C9_15  and  C10_16 
REMARK    8  A    between atoms: C9_15  and  C11_18 
REMARK       I    between atoms: C10_16  and  N4_21 
REMARK    9  A    between atoms: C11_18  and  C12_19 
REMARK   10  A    between atoms: C11_18  and  C13_20 
REMARK   11  A    between atoms: N4_21  and  C14_22 
REMARK   12  A    between atoms: C14_22  and  C15_23 
REMARK   13  A    between atoms: C14_22  and  C16_25 
REMARK       I    between atoms: C15_23  and  N6_40 
REMARK   14  A    between atoms: C16_25  and  C17_26 
REMARK   15  A    between atoms: C17_26  and  C18_27 
REMARK   16  A    between atoms: C17_26  and  C19_28 
REMARK   17  A    between atoms: C20_29  and  C21_30 
REMARK   18  A    between atoms: C20_29  and  C24_33 
REMARK   19  A    between atoms: C20_29  and  N6_40 
REMARK   20  A    between atoms: C21_30  and  C22_31 
REMARK   21  A    between atoms: C22_31  and  C23_32 
REMARK   22  A    between atoms: C23_32  and  O8_43 
REMARK   23  A    between atoms: C24_33  and  C25_34 
REMARK   24  A    between atoms: C28_38  and  O6_39 
REMARK   25  A    between atoms: C29_42  and  O8_43 
REMARK   26  A    between atoms: C29_42  and  C35_49 
ROOT
ATOM      1  C14 non d ame     -33.776   6.994  27.752  0.00  0.00     0.089 C 
ATOM      2  H20 non d ame     -33.298   6.584  28.642  0.00  0.00     0.087 H 
ENDROOT
BRANCH   1   3
ATOM      3  N4  non d ame     -34.201   8.349  28.069  0.00  0.00    -0.346 N 
ATOM      4  C10 non d ame     -34.733   8.680  29.441  0.00  0.00     0.241 C 
ATOM      5  O4  non d ame     -34.812   7.838  30.273  0.00  0.00    -0.271 OA
ATOM      6  H19 non d ame     -34.128   9.051  27.346  0.00  0.00     0.163 HD
BRANCH   4   7
ATOM      7  C9  non d ame     -35.163  10.089  29.753  0.00  0.00     0.092 C 
ATOM      8  H11 non d ame     -35.289  10.196  30.831  0.00  0.00     0.088 H 
BRANCH   7   9
ATOM      9  N3  non d ame     -34.110  11.023  29.345  0.00  0.00    -0.346 N 
ATOM     10  C7  non d ame     -33.108  11.440  30.296  0.00  0.00     0.240 C 
ATOM     11  O3  non d ame     -33.136  11.033  31.394  0.00  0.00    -0.271 OA
ATOM     12  H10 non d ame     -34.074  11.384  28.403  0.00  0.00     0.163 HD
BRANCH  10  13
ATOM     13  C6  non d ame     -31.991  12.437  29.857  0.00  0.00     0.086 C 
ATOM     14  H6  non d ame     -31.405  12.070  29.015  0.00  0.00     0.086 H 
BRANCH  13  15
ATOM     15  N2  non d ame     -32.612  13.678  29.423  0.00  0.00    -0.343 N 
ATOM     16  C5  non d ame     -31.873  14.582  28.538  0.00  0.00     0.273 C 
ATOM     17  O2  non d ame     -30.781  14.304  28.184  0.00  0.00    -0.266 OA
ATOM     18  H5  non d ame     -33.544  13.909  29.734  0.00  0.00     0.163 HD
BRANCH  16  19
ATOM     19  C4  non d ame     -32.518  15.896  28.070  0.00  0.00     0.154 A 
ATOM     20  C1  non d ame     -32.354  16.536  26.801  0.00  0.00    -0.017 A 
ATOM     21  C2  non d ame     -33.150  17.701  26.875  0.00  0.00     0.077 A 
ATOM     22  H1  non d ame     -31.749  16.207  25.956  0.00  0.00     0.091 H 
ATOM     23  O1  non d ame     -33.704  17.717  28.053  0.00  0.00    -0.218 OA
ATOM     24  N1  non d ame     -33.349  16.675  28.768  0.00  0.00    -0.123 NA
BRANCH  21  25
ATOM     25  C3  non d ame     -33.327  18.743  25.779  0.00  0.00    -0.029 C 
ATOM     26  H2  non d ame     -34.334  19.157  25.831  0.00  0.00     0.036 H 
ATOM     27  H3  non d ame     -32.599  19.543  25.917  0.00  0.00     0.036 H 
ATOM     28  H4  non d ame     -33.176  18.277  24.807  0.00  0.00     0.036 H 
ENDBRANCH  21  25
ENDBRANCH  16  19
ENDBRANCH  13  15
BRANCH  13  29
ATOM     29  C8  non d ame     -31.065  12.701  31.018  0.00  0.00    -0.049 C 
ATOM     30  H7  non d ame     -30.054  12.864  30.646  0.00  0.00     0.030 H 
ATOM     31  H8  non d ame     -31.402  13.588  31.555  0.00  0.00     0.030 H 
ATOM     32  H9  non d ame     -31.072  11.844  31.691  0.00  0.00     0.030 H 
ENDBRANCH  13  29
ENDBRANCH  10  13
ENDBRANCH   7   9
BRANCH   7  33
ATOM     33  C11 non d ame     -36.471  10.415  28.976  0.00  0.00    -0.033 C 
ATOM     34  H12 non d ame     -37.012  11.172  29.546  0.00  0.00     0.042 H 
BRANCH  33  35
ATOM     35  C12 non d ame     -36.164  11.018  27.570  0.00  0.00    -0.071 C 
ATOM     36  H13 non d ame     -37.070  11.463  27.159  0.00  0.00     0.028 H 
ATOM     37  H14 non d ame     -35.394  11.783  27.664  0.00  0.00     0.028 H 
ATOM     38  H15 non d ame     -35.814  10.229  26.905  0.00  0.00     0.028 H 
ENDBRANCH  33  35
BRANCH  33  39
ATOM     39  C13 non d ame     -37.385   9.153  28.864  0.00  0.00    -0.071 C 
ATOM     40  H16 non d ame     -38.048   9.105  29.728  0.00  0.00     0.028 H 
ATOM     41  H17 non d ame     -37.980   9.214  27.952  0.00  0.00     0.028 H 
ATOM     42  H18 non d ame     -36.765   8.257  28.832  0.00  0.00     0.028 H 
ENDBRANCH  33  39
ENDBRANCH   7  33
ENDBRANCH   4   7
ENDBRANCH   1   3
BRANCH   1  43
ATOM     43  C15 non d ame     -32.807   7.050  26.537  0.00  0.00     0.240 C 
ATOM     44  O5  non d ame     -31.815   6.396  26.542  0.00  0.00    -0.271 OA
ATOM     45  N6  non d ame     -33.121   7.912  25.362  0.00  0.00    -0.355 N 
ATOM     46  H46 non d ame     -33.964   8.468  25.345  0.00  0.00     0.162 HD
BRANCH  45  47
ATOM     47  C20 non d ame     -32.190   7.953  24.213  0.00  0.00     0.013 C 
ATOM     48  H30 non d ame     -31.255   7.487  24.522  0.00  0.00     0.072 H 
BRANCH  47  49
ATOM     49  C21 non d ame     -31.944   9.393  23.820  0.00  0.00    -0.038 C 
ATOM     50  H31 non d ame     -30.891   9.581  24.035  0.00  0.00     0.036 H 
ATOM     51  H32 non d ame     -32.318   9.487  22.801  0.00  0.00     0.036 H 
BRANCH  49  52
ATOM     52  C22 non d ame     -32.750  10.394  24.676  0.00  0.00     0.018 C 
ATOM     53  H33 non d ame     -32.943  11.247  24.028  0.00  0.00     0.048 H 
ATOM     54  H34 non d ame     -33.584   9.824  25.089  0.00  0.00     0.048 H 
BRANCH  52  55
ATOM     55  C23 non d ame     -31.965  10.949  25.896  0.00  0.00     0.259 C 
ATOM     56  O7  non d ame     -32.080  10.447  26.967  0.00  0.00    -0.265 OA
BRANCH  55  57
ATOM     57  O8  non d ame     -31.114  12.076  25.723  0.00  0.00    -0.317 OA
BRANCH  57  58
ATOM     58  C29 non d ame     -31.759  13.205  25.124  0.00  0.00     0.052 C 
ATOM     59  H47 non d ame     -32.686  12.822  24.697  0.00  0.00     0.082 H 
ATOM     60  H48 non d ame     -31.790  13.972  25.897  0.00  0.00     0.082 H 
BRANCH  58  61
ATOM     61  C35 non d ame     -30.858  13.712  23.966  0.00  0.00    -0.034 A 
ATOM     62  C30 non d ame     -30.597  15.072  23.832  0.00  0.00    -0.075 A 
ATOM     63  C31 non d ame     -29.788  15.528  22.791  0.00  0.00    -0.082 A 
ATOM     64  H49 non d ame     -31.026  15.780  24.540  0.00  0.00     0.084 H 
ATOM     65  C32 non d ame     -29.242  14.618  21.882  0.00  0.00    -0.083 A 
ATOM     66  H50 non d ame     -29.584  16.594  22.690  0.00  0.00     0.083 H 
ATOM     67  C33 non d ame     -29.509  13.263  22.018  0.00  0.00    -0.082 A 
ATOM     68  H51 non d ame     -28.608  14.967  21.066  0.00  0.00     0.083 H 
ATOM     69  C34 non d ame     -30.315  12.802  23.057  0.00  0.00    -0.075 A 
ATOM     70  H52 non d ame     -29.083  12.555  21.306  0.00  0.00     0.083 H 
ATOM     71  H53 non d ame     -30.518  11.736  23.158  0.00  0.00     0.084 H 
ENDBRANCH  58  61
ENDBRANCH  57  58
ENDBRANCH  55  57
ENDBRANCH  52  55
ENDBRANCH  49  52
ENDBRANCH  47  49
BRANCH  47  72
ATOM     72  C24 non d ame     -32.794   7.198  23.031  0.00  0.00    -0.039 C 
ATOM     73  H35 non d ame     -33.851   7.079  23.273  0.00  0.00     0.036 H 
ATOM     74  H36 non d ame     -32.498   7.760  22.146  0.00  0.00     0.036 H 
BRANCH  72  75
ATOM     75  C25 non d ame     -32.173   5.728  22.888  0.00  0.00    -0.001 C 
ATOM     76  C26 non d ame     -31.792   5.433  21.316  0.00  0.00    -0.035 C 
ATOM     77  C27 non d ame     -32.344   4.252  20.947  0.00  0.00     0.085 C 
ATOM     78  H38 non d ame     -32.285   6.158  20.669  0.00  0.00     0.036 H 
ATOM     79  H39 non d ame     -30.721   5.255  21.218  0.00  0.00     0.036 H 
ATOM     80  N5  non d ame     -33.338   3.876  22.019  0.00  0.00    -0.049 N 
ATOM     81  H40 non d ame     -32.882   4.459  20.021  0.00  0.00     0.075 H 
ATOM     82  H41 non d ame     -31.526   3.533  20.953  0.00  0.00     0.075 H 
ATOM     83  C28 non d ame     -33.010   4.826  23.282  0.00  0.00     0.193 C 
ATOM     84  H42 non d ame     -34.251   4.118  21.662  0.00  0.00     0.280 HD
ATOM     85  H43 non d ame     -33.134   2.920  22.274  0.00  0.00     0.280 HD
ATOM     86  H44 non d ame     -32.483   4.433  24.150  0.00  0.00     0.129 H 
ATOM     87  H37 non d ame     -31.401   5.531  23.631  0.00  0.00     0.046 H 
BRANCH  83  88
ATOM     88  O6  non d ame     -34.216   5.397  23.795  0.00  0.00    -0.369 OA
ATOM     89  H45 non d ame     -34.251   6.329  23.567  0.00  0.00     0.212 HD
ENDBRANCH  83  88
ENDBRANCH  72  75
ENDBRANCH  47  72
ENDBRANCH  45  47
ENDBRANCH   1  43
BRANCH   1  90
ATOM     90  C16 non d ame     -34.997   6.162  27.394  0.00  0.00    -0.035 C 
ATOM     91  H21 non d ame     -35.850   6.720  27.779  0.00  0.00     0.037 H 
ATOM     92  H22 non d ame     -34.911   5.968  26.325  0.00  0.00     0.037 H 
BRANCH  90  93
ATOM     93  C17 non d ame     -35.033   4.767  28.095  0.00  0.00    -0.059 C 
ATOM     94  H23 non d ame     -35.982   4.686  28.624  0.00  0.00     0.038 H 
BRANCH  93  95
ATOM     95  C18 non d ame     -34.954   3.590  27.071  0.00  0.00    -0.073 C 
ATOM     96  H24 non d ame     -34.308   2.807  27.465  0.00  0.00     0.028 H 
ATOM     97  H25 non d ame     -35.953   3.186  26.904  0.00  0.00     0.028 H 
ATOM     98  H26 non d ame     -34.549   3.956  26.128  0.00  0.00     0.028 H 
ENDBRANCH  93  95
BRANCH  93  99
ATOM     99  C19 non d ame     -33.920   4.652  29.141  0.00  0.00    -0.073 C 
ATOM    100  H27 non d ame     -34.355   4.407  30.110  0.00  0.00     0.028 H 
ATOM    101  H28 non d ame     -33.224   3.866  28.847  0.00  0.00     0.028 H 
ATOM    102  H29 non d ame     -33.388   5.600  29.211  0.00  0.00     0.028 H 
ENDBRANCH  93  99
ENDBRANCH  90  93
ENDBRANCH   1  90
TORSDOF 26
ENDMDL
MODEL 9
REMARK VINA RESULT:      -6.7      2.538      8.983
REMARK  26 active torsions:
REMARK  status: ('A' for Active; 'I' for Inactive)
REMARK    1  A    between atoms: C2_2  and  C3_3 
REMARK    2  A    between atoms: C4_6  and  C5_7 
REMARK       I    between atoms: C5_7  and  N2_9 
REMARK    3  A    between atoms: N2_9  and  C6_10 
REMARK    4  A    between atoms: C6_10  and  C7_11 
REMARK    5  A    between atoms: C6_10  and  C8_13 
REMARK       I    between atoms: C7_11  and  N3_14 
REMARK    6  A    between atoms: N3_14  and  C9_15 
REMARK    7  A    between atoms: C9_15  and  C10_16 
REMARK    8  A    between atoms: C9_15  and  C11_18 
REMARK       I    between atoms: C10_16  and  N4_21 
REMARK    9  A    between atoms: C11_18  and  C12_19 
REMARK   10  A    between atoms: C11_18  and  C13_20 
REMARK   11  A    between atoms: N4_21  and  C14_22 
REMARK   12  A    between atoms: C14_22  and  C15_23 
REMARK   13  A    between atoms: C14_22  and  C16_25 
REMARK       I    between atoms: C15_23  and  N6_40 
REMARK   14  A    between atoms: C16_25  and  C17_26 
REMARK   15  A    between atoms: C17_26  and  C18_27 
REMARK   16  A    between atoms: C17_26  and  C19_28 
REMARK   17  A    between atoms: C20_29  and  C21_30 
REMARK   18  A    between atoms: C20_29  and  C24_33 
REMARK   19  A    between atoms: C20_29  and  N6_40 
REMARK   20  A    between atoms: C21_30  and  C22_31 
REMARK   21  A    between atoms: C22_31  and  C23_32 
REMARK   22  A    between atoms: C23_32  and  O8_43 
REMARK   23  A    between atoms: C24_33  and  C25_34 
REMARK   24  A    between atoms: C28_38  and  O6_39 
REMARK   25  A    between atoms: C29_42  and  O8_43 
REMARK   26  A    between atoms: C29_42  and  C35_49 
ROOT
ATOM      1  C14 non d ame     -35.344   9.755  29.650  0.00  0.00     0.089 C 
ATOM      2  H20 non d ame     -34.801   8.988  30.204  0.00  0.00     0.087 H 
ENDROOT
BRANCH   1   3
ATOM      3  N4  non d ame     -34.438  10.877  29.454  0.00  0.00    -0.346 N 
ATOM      4  C10 non d ame     -33.035  10.646  28.950  0.00  0.00     0.241 C 
ATOM      5  O4  non d ame     -32.657   9.547  28.713  0.00  0.00    -0.271 OA
ATOM      6  H19 non d ame     -34.779  11.805  29.664  0.00  0.00     0.163 HD
BRANCH   4   7
ATOM      7  C9  non d ame     -32.114  11.820  28.748  0.00  0.00     0.092 C 
ATOM      8  H11 non d ame     -31.087  11.461  28.671  0.00  0.00     0.088 H 
BRANCH   7   9
ATOM      9  N3  non d ame     -32.438  12.483  27.482  0.00  0.00    -0.346 N 
ATOM     10  C7  non d ame     -31.664  12.196  26.299  0.00  0.00     0.240 C 
ATOM     11  O3  non d ame     -30.776  11.435  26.349  0.00  0.00    -0.271 OA
ATOM     12  H10 non d ame     -33.199  13.143  27.424  0.00  0.00     0.163 HD
BRANCH  10  13
ATOM     13  C6  non d ame     -32.011  12.908  24.955  0.00  0.00     0.086 C 
ATOM     14  H6  non d ame     -32.955  12.568  24.529  0.00  0.00     0.086 H 
BRANCH  13  15
ATOM     15  N2  non d ame     -32.157  14.334  25.201  0.00  0.00    -0.343 N 
ATOM     16  C5  non d ame     -33.486  14.887  25.472  0.00  0.00     0.273 C 
ATOM     17  O2  non d ame     -34.431  14.177  25.488  0.00  0.00    -0.266 OA
ATOM     18  H5  non d ame     -31.344  14.933  25.182  0.00  0.00     0.163 HD
BRANCH  16  19
ATOM     19  C4  non d ame     -33.654  16.391  25.735  0.00  0.00     0.154 A 
ATOM     20  C1  non d ame     -32.658  17.303  26.208  0.00  0.00    -0.017 A 
ATOM     21  C2  non d ame     -33.314  18.553  26.279  0.00  0.00     0.077 A 
ATOM     22  H1  non d ame     -31.620  17.091  26.462  0.00  0.00     0.091 H 
ATOM     23  O1  non d ame     -34.541  18.369  25.888  0.00  0.00    -0.218 OA
ATOM     24  N1  non d ame     -34.764  17.116  25.567  0.00  0.00    -0.123 NA
BRANCH  21  25
ATOM     25  C3  non d ame     -32.696  19.870  26.729  0.00  0.00    -0.029 C 
ATOM     26  H2  non d ame     -33.154  20.185  27.666  0.00  0.00     0.036 H 
ATOM     27  H3  non d ame     -31.624  19.738  26.876  0.00  0.00     0.036 H 
ATOM     28  H4  non d ame     -32.867  20.630  25.968  0.00  0.00     0.036 H 
ENDBRANCH  21  25
ENDBRANCH  16  19
ENDBRANCH  13  15
BRANCH  13  29
ATOM     29  C8  non d ame     -30.909  12.667  23.955  0.00  0.00    -0.049 C 
ATOM     30  H7  non d ame     -31.051  13.316  23.093  0.00  0.00     0.030 H 
ATOM     31  H8  non d ame     -29.946  12.884  24.418  0.00  0.00     0.030 H 
ATOM     32  H9  non d ame     -30.931  11.625  23.634  0.00  0.00     0.030 H 
ENDBRANCH  13  29
ENDBRANCH  10  13
ENDBRANCH   7   9
BRANCH   7  33
ATOM     33  C11 non d ame     -32.294  12.828  29.920  0.00  0.00    -0.033 C 
ATOM     34  H12 non d ame     -33.196  12.543  30.463  0.00  0.00     0.042 H 
BRANCH  33  35
ATOM     35  C12 non d ame     -31.100  12.754  30.923  0.00  0.00    -0.071 C 
ATOM     36  H13 non d ame     -30.713  13.757  31.102  0.00  0.00     0.028 H 
ATOM     37  H14 non d ame     -31.443  12.324  31.864  0.00  0.00     0.028 H 
ATOM     38  H15 non d ame     -30.311  12.129  30.504  0.00  0.00     0.028 H 
ENDBRANCH  33  35
BRANCH  33  39
ATOM     39  C13 non d ame     -32.493  14.281  29.383  0.00  0.00    -0.071 C 
ATOM     40  H16 non d ame     -31.596  14.598  28.850  0.00  0.00     0.028 H 
ATOM     41  H17 non d ame     -33.347  14.305  28.704  0.00  0.00     0.028 H 
ATOM     42  H18 non d ame     -32.677  14.956  30.218  0.00  0.00     0.028 H 
ENDBRANCH  33  39
ENDBRANCH   7  33
ENDBRANCH   4   7
ENDBRANCH   1   3
BRANCH   1  43
ATOM     43  C15 non d ame     -35.816   9.251  28.257  0.00  0.00     0.240 C 
ATOM     44  O5  non d ame     -36.690   9.821  27.688  0.00  0.00    -0.271 OA
ATOM     45  N6  non d ame     -35.173   8.063  27.628  0.00  0.00    -0.355 N 
ATOM     46  H46 non d ame     -34.426   7.573  28.100  0.00  0.00     0.162 HD
BRANCH  45  47
ATOM     47  C20 non d ame     -35.633   7.596  26.301  0.00  0.00     0.013 C 
ATOM     48  H30 non d ame     -36.317   8.344  25.901  0.00  0.00     0.072 H 
BRANCH  47  49
ATOM     49  C21 non d ame     -36.347   6.273  26.457  0.00  0.00    -0.038 C 
ATOM     50  H31 non d ame     -36.920   6.137  25.538  0.00  0.00     0.036 H 
ATOM     51  H32 non d ame     -35.577   5.552  26.730  0.00  0.00     0.036 H 
BRANCH  49  52
ATOM     52  C22 non d ame     -37.372   6.276  27.612  0.00  0.00     0.018 C 
ATOM     53  H33 non d ame     -37.378   7.295  27.997  0.00  0.00     0.048 H 
ATOM     54  H34 non d ame     -38.284   5.845  27.197  0.00  0.00     0.048 H 
BRANCH  52  55
ATOM     55  C23 non d ame     -36.973   5.368  28.807  0.00  0.00     0.259 C 
ATOM     56  O7  non d ame     -37.794   4.987  29.577  0.00  0.00    -0.265 OA
BRANCH  55  57
ATOM     57  O8  non d ame     -35.608   5.005  28.981  0.00  0.00    -0.317 OA
BRANCH  57  58
ATOM     58  C29 non d ame     -34.888   5.862  29.872  0.00  0.00     0.052 C 
ATOM     59  H47 non d ame     -34.072   6.281  29.283  0.00  0.00     0.082 H 
ATOM     60  H48 non d ame     -35.634   6.520  30.317  0.00  0.00     0.082 H 
BRANCH  58  61
ATOM     61  C35 non d ame     -34.279   4.981  30.996  0.00  0.00    -0.034 A 
ATOM     62  C30 non d ame     -33.151   4.207  30.741  0.00  0.00    -0.075 A 
ATOM     63  C31 non d ame     -32.604   3.416  31.751  0.00  0.00    -0.082 A 
ATOM     64  H49 non d ame     -32.696   4.220  29.751  0.00  0.00     0.084 H 
ATOM     65  C32 non d ame     -33.192   3.399  33.019  0.00  0.00    -0.083 A 
ATOM     66  H50 non d ame     -31.720   2.812  31.548  0.00  0.00     0.083 H 
ATOM     67  C33 non d ame     -34.319   4.170  33.268  0.00  0.00    -0.082 A 
ATOM     68  H51 non d ame     -32.770   2.783  33.813  0.00  0.00     0.083 H 
ATOM     69  C34 non d ame     -34.867   4.964  32.262  0.00  0.00    -0.075 A 
ATOM     70  H52 non d ame     -34.776   4.153  34.257  0.00  0.00     0.083 H 
ATOM     71  H53 non d ame     -35.752   5.568  32.466  0.00  0.00     0.084 H 
ENDBRANCH  58  61
ENDBRANCH  57  58
ENDBRANCH  55  57
ENDBRANCH  52  55
ENDBRANCH  49  52
ENDBRANCH  47  49
BRANCH  47  72
ATOM     72  C24 non d ame     -34.434   7.422  25.371  0.00  0.00    -0.039 C 
ATOM     73  H35 non d ame     -33.720   6.816  25.929  0.00  0.00     0.036 H 
ATOM     74  H36 non d ame     -34.847   7.052  24.433  0.00  0.00     0.036 H 
BRANCH  72  75
ATOM     75  C25 non d ame     -33.722   8.822  25.054  0.00  0.00    -0.001 C 
ATOM     76  C26 non d ame     -33.650   9.057  23.428  0.00  0.00    -0.035 C 
ATOM     77  C27 non d ame     -32.376   9.365  23.088  0.00  0.00     0.085 C 
ATOM     78  H38 non d ame     -33.834   8.118  22.906  0.00  0.00     0.036 H 
ATOM     79  H39 non d ame     -34.210   9.952  23.155  0.00  0.00     0.036 H 
ATOM     80  N5  non d ame     -31.510   9.039  24.280  0.00  0.00    -0.049 N 
ATOM     81  H40 non d ame     -32.122   8.689  22.270  0.00  0.00     0.075 H 
ATOM     82  H41 non d ame     -32.369  10.442  22.927  0.00  0.00     0.075 H 
ATOM     83  C28 non d ame     -32.520   8.853  25.526  0.00  0.00     0.193 C 
ATOM     84  H42 non d ame     -31.073   8.150  24.084  0.00  0.00     0.280 HD
ATOM     85  H43 non d ame     -30.938   9.856  24.449  0.00  0.00     0.280 HD
ATOM     86  H44 non d ame     -32.623   9.634  26.278  0.00  0.00     0.129 H 
ATOM     87  H37 non d ame     -34.126   9.636  25.655  0.00  0.00     0.046 H 
BRANCH  83  88
ATOM     88  O6  non d ame     -32.195   7.665  26.250  0.00  0.00    -0.369 OA
ATOM     89  H45 non d ame     -31.654   7.891  27.010  0.00  0.00     0.212 HD
ENDBRANCH  83  88
ENDBRANCH  72  75
ENDBRANCH  47  72
ENDBRANCH  45  47
ENDBRANCH   1  43
BRANCH   1  90
ATOM     90  C16 non d ame     -36.543  10.222  30.459  0.00  0.00    -0.035 C 
ATOM     91  H21 non d ame     -36.278  11.213  30.824  0.00  0.00     0.037 H 
ATOM     92  H22 non d ame     -37.402  10.097  29.800  0.00  0.00     0.037 H 
BRANCH  90  93
ATOM     93  C17 non d ame     -36.825   9.349  31.723  0.00  0.00    -0.059 C 
ATOM     94  H23 non d ame     -37.447   9.935  32.399  0.00  0.00     0.038 H 
BRANCH  93  95
ATOM     95  C18 non d ame     -37.603   8.040  31.373  0.00  0.00    -0.073 C 
ATOM     96  H24 non d ame     -38.585   8.063  31.845  0.00  0.00     0.028 H 
ATOM     97  H25 non d ame     -37.722   7.966  30.292  0.00  0.00     0.028 H 
ATOM     98  H26 non d ame     -37.045   7.177  31.736  0.00  0.00     0.028 H 
ENDBRANCH  93  95
BRANCH  93  99
ATOM     99  C19 non d ame     -35.525   9.027  32.466  0.00  0.00    -0.073 C 
ATOM    100  H27 non d ame     -35.226   8.001  32.249  0.00  0.00     0.028 H 
ATOM    101  H28 non d ame     -34.741   9.710  32.139  0.00  0.00     0.028 H 
ATOM    102  H29 non d ame     -35.682   9.142  33.538  0.00  0.00     0.028 H 
ENDBRANCH  93  99
ENDBRANCH  90  93
ENDBRANCH   1  90
TORSDOF 26
ENDMDL
MODEL 10
REMARK VINA RESULT:      -6.6      3.038      8.147
REMARK  26 active torsions:
REMARK  status: ('A' for Active; 'I' for Inactive)
REMARK    1  A    between atoms: C2_2  and  C3_3 
REMARK    2  A    between atoms: C4_6  and  C5_7 
REMARK       I    between atoms: C5_7  and  N2_9 
REMARK    3  A    between atoms: N2_9  and  C6_10 
REMARK    4  A    between atoms: C6_10  and  C7_11 
REMARK    5  A    between atoms: C6_10  and  C8_13 
REMARK       I    between atoms: C7_11  and  N3_14 
REMARK    6  A    between atoms: N3_14  and  C9_15 
REMARK    7  A    between atoms: C9_15  and  C10_16 
REMARK    8  A    between atoms: C9_15  and  C11_18 
REMARK       I    between atoms: C10_16  and  N4_21 
REMARK    9  A    between atoms: C11_18  and  C12_19 
REMARK   10  A    between atoms: C11_18  and  C13_20 
REMARK   11  A    between atoms: N4_21  and  C14_22 
REMARK   12  A    between atoms: C14_22  and  C15_23 
REMARK   13  A    between atoms: C14_22  and  C16_25 
REMARK       I    between atoms: C15_23  and  N6_40 
REMARK   14  A    between atoms: C16_25  and  C17_26 
REMARK   15  A    between atoms: C17_26  and  C18_27 
REMARK   16  A    between atoms: C17_26  and  C19_28 
REMARK   17  A    between atoms: C20_29  and  C21_30 
REMARK   18  A    between atoms: C20_29  and  C24_33 
REMARK   19  A    between atoms: C20_29  and  N6_40 
REMARK   20  A    between atoms: C21_30  and  C22_31 
REMARK   21  A    between atoms: C22_31  and  C23_32 
REMARK   22  A    between atoms: C23_32  and  O8_43 
REMARK   23  A    between atoms: C24_33  and  C25_34 
REMARK   24  A    between atoms: C28_38  and  O6_39 
REMARK   25  A    between atoms: C29_42  and  O8_43 
REMARK   26  A    between atoms: C29_42  and  C35_49 
ROOT
ATOM      1  C14 non d ame     -35.882   9.889  26.198  0.00  0.00     0.089 C 
ATOM      2  H20 non d ame     -36.914   9.664  26.470  0.00  0.00     0.087 H 
ENDROOT
BRANCH   1   3
ATOM      3  N4  non d ame     -35.089   9.848  27.418  0.00  0.00    -0.346 N 
ATOM      4  C10 non d ame     -35.735  10.109  28.756  0.00  0.00     0.241 C 
ATOM      5  O4  non d ame     -36.894  10.354  28.825  0.00  0.00    -0.271 OA
ATOM      6  H19 non d ame     -34.104   9.639  27.337  0.00  0.00     0.163 HD
BRANCH   4   7
ATOM      7  C9  non d ame     -34.901  10.056  30.008  0.00  0.00     0.092 C 
ATOM      8  H11 non d ame     -34.217   9.209  29.948  0.00  0.00     0.088 H 
BRANCH   7   9
ATOM      9  N3  non d ame     -34.082  11.268  30.102  0.00  0.00    -0.346 N 
ATOM     10  C7  non d ame     -32.821  11.342  29.406  0.00  0.00     0.240 C 
ATOM     11  O3  non d ame     -32.449  10.434  28.767  0.00  0.00    -0.271 OA
ATOM     12  H10 non d ame     -34.388  12.058  30.651  0.00  0.00     0.163 HD
BRANCH  10  13
ATOM     13  C6  non d ame     -31.952  12.633  29.512  0.00  0.00     0.086 C 
ATOM     14  H6  non d ame     -31.201  12.702  28.725  0.00  0.00     0.086 H 
BRANCH  13  15
ATOM     15  N2  non d ame     -32.815  13.794  29.366  0.00  0.00    -0.343 N 
ATOM     16  C5  non d ame     -32.375  14.920  28.538  0.00  0.00     0.273 C 
ATOM     17  O2  non d ame     -31.326  14.883  27.996  0.00  0.00    -0.266 OA
ATOM     18  H5  non d ame     -33.709  13.819  29.836  0.00  0.00     0.163 HD
BRANCH  16  19
ATOM     19  C4  non d ame     -33.277  16.153  28.374  0.00  0.00     0.154 A 
ATOM     20  C1  non d ame     -34.662  16.169  28.012  0.00  0.00    -0.017 A 
ATOM     21  C2  non d ame     -35.018  17.536  27.998  0.00  0.00     0.077 A 
ATOM     22  H1  non d ame     -35.308  15.320  27.791  0.00  0.00     0.091 H 
ATOM     23  O1  non d ame     -33.956  18.216  28.319  0.00  0.00    -0.218 OA
ATOM     24  N1  non d ame     -32.928  17.431  28.542  0.00  0.00    -0.123 NA
BRANCH  21  25
ATOM     25  C3  non d ame     -36.391  18.107  27.671  0.00  0.00    -0.029 C 
ATOM     26  H2  non d ame     -37.154  17.351  27.860  0.00  0.00     0.036 H 
ATOM     27  H3  non d ame     -36.582  18.978  28.297  0.00  0.00     0.036 H 
ATOM     28  H4  non d ame     -36.423  18.400  26.622  0.00  0.00     0.036 H 
ENDBRANCH  21  25
ENDBRANCH  16  19
ENDBRANCH  13  15
BRANCH  13  29
ATOM     29  C8  non d ame     -31.261  12.669  30.852  0.00  0.00    -0.049 C 
ATOM     30  H7  non d ame     -31.358  11.698  31.337  0.00  0.00     0.030 H 
ATOM     31  H8  non d ame     -30.205  12.900  30.709  0.00  0.00     0.030 H 
ATOM     32  H9  non d ame     -31.720  13.435  31.477  0.00  0.00     0.030 H 
ENDBRANCH  13  29
ENDBRANCH  10  13
ENDBRANCH   7   9
BRANCH   7  33
ATOM     33  C11 non d ame     -35.835   9.966  31.250  0.00  0.00    -0.033 C 
ATOM     34  H12 non d ame     -36.788  10.420  30.977  0.00  0.00     0.042 H 
BRANCH  33  35
ATOM     35  C12 non d ame     -36.117   8.483  31.644  0.00  0.00    -0.071 C 
ATOM     36  H13 non d ame     -35.233   8.058  32.118  0.00  0.00     0.028 H 
ATOM     37  H14 non d ame     -36.955   8.445  32.339  0.00  0.00     0.028 H 
ATOM     38  H15 non d ame     -36.360   7.909  30.750  0.00  0.00     0.028 H 
ENDBRANCH  33  35
BRANCH  33  39
ATOM     39  C13 non d ame     -35.244  10.769  32.453  0.00  0.00    -0.071 C 
ATOM     40  H16 non d ame     -35.471  11.828  32.330  0.00  0.00     0.028 H 
ATOM     41  H17 non d ame     -35.686  10.409  33.383  0.00  0.00     0.028 H 
ATOM     42  H18 non d ame     -34.164  10.630  32.488  0.00  0.00     0.028 H 
ENDBRANCH  33  39
ENDBRANCH   7  33
ENDBRANCH   4   7
ENDBRANCH   1   3
BRANCH   1  43
ATOM     43  C15 non d ame     -35.300   8.854  25.194  0.00  0.00     0.240 C 
ATOM     44  O5  non d ame     -36.021   8.067  24.672  0.00  0.00    -0.271 OA
ATOM     45  N6  non d ame     -33.844   8.850  24.875  0.00  0.00    -0.355 N 
ATOM     46  H46 non d ame     -33.222   9.518  25.308  0.00  0.00     0.162 HD
BRANCH  45  47
ATOM     47  C20 non d ame     -33.305   7.861  23.916  0.00  0.00     0.013 C 
ATOM     48  H30 non d ame     -34.142   7.276  23.532  0.00  0.00     0.072 H 
BRANCH  47  49
ATOM     49  C21 non d ame     -32.326   6.956  24.628  0.00  0.00    -0.038 C 
ATOM     50  H31 non d ame     -31.902   6.313  23.855  0.00  0.00     0.036 H 
ATOM     51  H32 non d ame     -31.678   7.618  25.202  0.00  0.00     0.036 H 
BRANCH  49  52
ATOM     52  C22 non d ame     -33.008   6.019  25.648  0.00  0.00     0.018 C 
ATOM     53  H33 non d ame     -34.079   6.143  25.493  0.00  0.00     0.048 H 
ATOM     54  H34 non d ame     -32.546   5.041  25.505  0.00  0.00     0.048 H 
BRANCH  52  55
ATOM     55  C23 non d ame     -32.741   6.405  27.129  0.00  0.00     0.259 C 
ATOM     56  O7  non d ame     -33.024   7.487  27.532  0.00  0.00    -0.265 OA
BRANCH  55  57
ATOM     57  O8  non d ame     -32.140   5.454  28.000  0.00  0.00    -0.317 OA
BRANCH  57  58
ATOM     58  C29 non d ame     -32.957   4.309  28.263  0.00  0.00     0.052 C 
ATOM     59  H47 non d ame     -33.884   4.476  27.716  0.00  0.00     0.082 H 
ATOM     60  H48 non d ame     -32.336   3.444  28.033  0.00  0.00     0.082 H 
BRANCH  58  61
ATOM     61  C35 non d ame     -33.281   4.290  29.782  0.00  0.00    -0.034 A 
ATOM     62  C30 non d ame     -34.323   5.065  30.281  0.00  0.00    -0.075 A 
ATOM     63  C31 non d ame     -34.613   5.049  31.645  0.00  0.00    -0.082 A 
ATOM     64  H49 non d ame     -34.911   5.685  29.605  0.00  0.00     0.084 H 
ATOM     65  C32 non d ame     -33.855   4.256  32.510  0.00  0.00    -0.083 A 
ATOM     66  H50 non d ame     -35.432   5.656  32.033  0.00  0.00     0.083 H 
ATOM     67  C33 non d ame     -32.815   3.487  32.008  0.00  0.00    -0.082 A 
ATOM     68  H51 non d ame     -34.077   4.237  33.577  0.00  0.00     0.083 H 
ATOM     69  C34 non d ame     -32.522   3.499  30.645  0.00  0.00    -0.075 A 
ATOM     70  H52 non d ame     -32.223   2.870  32.686  0.00  0.00     0.083 H 
ATOM     71  H53 non d ame     -31.704   2.891  30.258  0.00  0.00     0.084 H 
ENDBRANCH  58  61
ENDBRANCH  57  58
ENDBRANCH  55  57
ENDBRANCH  52  55
ENDBRANCH  49  52
ENDBRANCH  47  49
BRANCH  47  72
ATOM     72  C24 non d ame     -32.595   8.582  22.772  0.00  0.00    -0.039 C 
ATOM     73  H35 non d ame     -32.571   7.867  21.949  0.00  0.00     0.036 H 
ATOM     74  H36 non d ame     -33.122   9.529  22.656  0.00  0.00     0.036 H 
BRANCH  72  75
ATOM     75  C25 non d ame     -31.076   8.928  23.143  0.00  0.00    -0.001 C 
ATOM     76  C26 non d ame     -30.911  10.548  23.369  0.00  0.00    -0.035 C 
ATOM     77  C27 non d ame     -29.876  10.991  22.616  0.00  0.00     0.085 C 
ATOM     78  H38 non d ame     -31.771  11.074  22.956  0.00  0.00     0.036 H 
ATOM     79  H39 non d ame     -30.587  10.752  24.390  0.00  0.00     0.036 H 
ATOM     80  N5  non d ame     -29.531   9.886  21.647  0.00  0.00    -0.049 N 
ATOM     81  H40 non d ame     -30.266  11.843  22.057  0.00  0.00     0.075 H 
ATOM     82  H41 non d ame     -29.047  11.127  23.309  0.00  0.00     0.075 H 
ATOM     83  C28 non d ame     -30.270   8.562  22.202  0.00  0.00     0.193 C 
ATOM     84  H42 non d ame     -29.946  10.139  20.762  0.00  0.00     0.280 HD
ATOM     85  H43 non d ame     -28.532   9.749  21.715  0.00  0.00     0.280 HD
ATOM     86  H44 non d ame     -29.704   7.787  22.717  0.00  0.00     0.129 H 
ATOM     87  H37 non d ame     -30.681   8.276  23.921  0.00  0.00     0.046 H 
BRANCH  83  88
ATOM     88  O6  non d ame     -30.951   7.895  21.138  0.00  0.00    -0.369 OA
ATOM     89  H45 non d ame     -31.460   8.534  20.634  0.00  0.00     0.212 HD
ENDBRANCH  83  88
ENDBRANCH  72  75
ENDBRANCH  47  72
ENDBRANCH  45  47
ENDBRANCH   1  43
BRANCH   1  90
ATOM     90  C16 non d ame     -35.799  11.284  25.600  0.00  0.00    -0.035 C 
ATOM     91  H21 non d ame     -35.389  11.913  26.390  0.00  0.00     0.037 H 
ATOM     92  H22 non d ame     -35.257  11.165  24.663  0.00  0.00     0.037 H 
BRANCH  90  93
ATOM     93  C17 non d ame     -37.190  11.892  25.232  0.00  0.00    -0.059 C 
ATOM     94  H23 non d ame     -37.916  11.521  25.955  0.00  0.00     0.038 H 
BRANCH  93  95
ATOM     95  C18 non d ame     -37.191  13.452  25.313  0.00  0.00    -0.073 C 
ATOM     96  H24 non d ame     -37.676  13.862  24.426  0.00  0.00     0.028 H 
ATOM     97  H25 non d ame     -37.736  13.769  26.202  0.00  0.00     0.028 H 
ATOM     98  H26 non d ame     -36.165  13.814  25.366  0.00  0.00     0.028 H 
ENDBRANCH  93  95
BRANCH  93  99
ATOM     99  C19 non d ame     -37.644  11.418  23.849  0.00  0.00    -0.073 C 
ATOM    100  H27 non d ame     -37.142  12.007  23.080  0.00  0.00     0.028 H 
ATOM    101  H28 non d ame     -37.389  10.366  23.722  0.00  0.00     0.028 H 
ATOM    102  H29 non d ame     -38.722  11.544  23.757  0.00  0.00     0.028 H 
ENDBRANCH  93  99
ENDBRANCH  90  93
ENDBRANCH   1  90
TORSDOF 26
ENDMDL
MODEL 11
REMARK VINA RESULT:      -6.6      3.045      8.139
REMARK  26 active torsions:
REMARK  status: ('A' for Active; 'I' for Inactive)
REMARK    1  A    between atoms: C2_2  and  C3_3 
REMARK    2  A    between atoms: C4_6  and  C5_7 
REMARK       I    between atoms: C5_7  and  N2_9 
REMARK    3  A    between atoms: N2_9  and  C6_10 
REMARK    4  A    between atoms: C6_10  and  C7_11 
REMARK    5  A    between atoms: C6_10  and  C8_13 
REMARK       I    between atoms: C7_11  and  N3_14 
REMARK    6  A    between atoms: N3_14  and  C9_15 
REMARK    7  A    between atoms: C9_15  and  C10_16 
REMARK    8  A    between atoms: C9_15  and  C11_18 
REMARK       I    between atoms: C10_16  and  N4_21 
REMARK    9  A    between atoms: C11_18  and  C12_19 
REMARK   10  A    between atoms: C11_18  and  C13_20 
REMARK   11  A    between atoms: N4_21  and  C14_22 
REMARK   12  A    between atoms: C14_22  and  C15_23 
REMARK   13  A    between atoms: C14_22  and  C16_25 
REMARK       I    between atoms: C15_23  and  N6_40 
REMARK   14  A    between atoms: C16_25  and  C17_26 
REMARK   15  A    between atoms: C17_26  and  C18_27 
REMARK   16  A    between atoms: C17_26  and  C19_28 
REMARK   17  A    between atoms: C20_29  and  C21_30 
REMARK   18  A    between atoms: C20_29  and  C24_33 
REMARK   19  A    between atoms: C20_29  and  N6_40 
REMARK   20  A    between atoms: C21_30  and  C22_31 
REMARK   21  A    between atoms: C22_31  and  C23_32 
REMARK   22  A    between atoms: C23_32  and  O8_43 
REMARK   23  A    between atoms: C24_33  and  C25_34 
REMARK   24  A    between atoms: C28_38  and  O6_39 
REMARK   25  A    between atoms: C29_42  and  O8_43 
REMARK   26  A    between atoms: C29_42  and  C35_49 
ROOT
ATOM      1  C14 non d ame     -35.801   9.925  31.064  0.00  0.00     0.089 C 
ATOM      2  H20 non d ame     -36.435  10.445  31.783  0.00  0.00     0.087 H 
ENDROOT
BRANCH   1   3
ATOM      3  N4  non d ame     -36.476   9.967  29.776  0.00  0.00    -0.346 N 
ATOM      4  C10 non d ame     -37.802  10.671  29.633  0.00  0.00     0.241 C 
ATOM      5  O4  non d ame     -38.309  11.194  30.570  0.00  0.00    -0.271 OA
ATOM      6  H19 non d ame     -36.030   9.514  28.991  0.00  0.00     0.163 HD
BRANCH   4   7
ATOM      7  C9  non d ame     -38.484  10.709  28.290  0.00  0.00     0.092 C 
ATOM      8  H11 non d ame     -39.394  11.304  28.366  0.00  0.00     0.088 H 
BRANCH   7   9
ATOM      9  N3  non d ame     -37.612  11.373  27.318  0.00  0.00    -0.346 N 
ATOM     10  C7  non d ame     -37.913  12.712  26.875  0.00  0.00     0.240 C 
ATOM     11  O3  non d ame     -38.856  13.269  27.290  0.00  0.00    -0.271 OA
ATOM     12  H10 non d ame     -36.797  10.905  26.949  0.00  0.00     0.163 HD
BRANCH  10  13
ATOM     13  C6  non d ame     -36.983  13.413  25.837  0.00  0.00     0.086 C 
ATOM     14  H6  non d ame     -37.528  14.066  25.155  0.00  0.00     0.086 H 
BRANCH  13  15
ATOM     15  N2  non d ame     -36.034  14.255  26.548  0.00  0.00    -0.343 N 
ATOM     16  C5  non d ame     -36.010  15.696  26.285  0.00  0.00     0.273 C 
ATOM     17  O2  non d ame     -36.756  16.167  25.499  0.00  0.00    -0.266 OA
ATOM     18  H5  non d ame     -35.398  13.843  27.215  0.00  0.00     0.163 HD
BRANCH  16  19
ATOM     19  C4  non d ame     -35.014  16.597  27.030  0.00  0.00     0.154 A 
ATOM     20  C1  non d ame     -34.376  17.777  26.533  0.00  0.00    -0.017 A 
ATOM     21  C2  non d ame     -33.564  18.228  27.598  0.00  0.00     0.077 A 
ATOM     22  H1  non d ame     -34.483  18.235  25.550  0.00  0.00     0.091 H 
ATOM     23  O1  non d ame     -33.728  17.399  28.587  0.00  0.00    -0.218 OA
ATOM     24  N1  non d ame     -34.568  16.439  28.279  0.00  0.00    -0.123 NA
BRANCH  21  25
ATOM     25  C3  non d ame     -32.667  19.459  27.589  0.00  0.00    -0.029 C 
ATOM     26  H2  non d ame     -32.577  19.851  28.602  0.00  0.00     0.036 H 
ATOM     27  H3  non d ame     -31.679  19.185  27.217  0.00  0.00     0.036 H 
ATOM     28  H4  non d ame     -33.100  20.220  26.942  0.00  0.00     0.036 H 
ENDBRANCH  21  25
ENDBRANCH  16  19
ENDBRANCH  13  15
BRANCH  13  29
ATOM     29  C8  non d ame     -36.247  12.371  25.033  0.00  0.00    -0.049 C 
ATOM     30  H7  non d ame     -35.252  12.226  25.451  0.00  0.00     0.030 H 
ATOM     31  H8  non d ame     -36.797  11.430  25.069  0.00  0.00     0.030 H 
ATOM     32  H9  non d ame     -36.163  12.703  23.998  0.00  0.00     0.030 H 
ENDBRANCH  13  29
ENDBRANCH  10  13
ENDBRANCH   7   9
BRANCH   7  33
ATOM     33  C11 non d ame     -38.774   9.256  27.815  0.00  0.00    -0.033 C 
ATOM     34  H12 non d ame     -37.827   8.715  27.813  0.00  0.00     0.042 H 
BRANCH  33  35
ATOM     35  C12 non d ame     -39.735   8.516  28.798  0.00  0.00    -0.071 C 
ATOM     36  H13 non d ame     -40.055   7.574  28.353  0.00  0.00     0.028 H 
ATOM     37  H14 non d ame     -39.213   8.317  29.734  0.00  0.00     0.028 H 
ATOM     38  H15 non d ame     -40.606   9.141  28.993  0.00  0.00     0.028 H 
ENDBRANCH  33  35
BRANCH  33  39
ATOM     39  C13 non d ame     -39.338   9.246  26.358  0.00  0.00    -0.071 C 
ATOM     40  H16 non d ame     -40.386   8.944  26.375  0.00  0.00     0.028 H 
ATOM     41  H17 non d ame     -39.254  10.244  25.928  0.00  0.00     0.028 H 
ATOM     42  H18 non d ame     -38.768   8.542  25.752  0.00  0.00     0.028 H 
ENDBRANCH  33  39
ENDBRANCH   7  33
ENDBRANCH   4   7
ENDBRANCH   1   3
BRANCH   1  43
ATOM     43  C15 non d ame     -34.407  10.597  30.915  0.00  0.00     0.240 C 
ATOM     44  O5  non d ame     -33.592  10.464  31.770  0.00  0.00    -0.271 OA
ATOM     45  N6  non d ame     -34.082  11.398  29.701  0.00  0.00    -0.355 N 
ATOM     46  H46 non d ame     -34.765  11.513  28.965  0.00  0.00     0.162 HD
BRANCH  45  47
ATOM     47  C20 non d ame     -32.751  12.029  29.572  0.00  0.00     0.013 C 
ATOM     48  H30 non d ame     -32.284  12.030  30.558  0.00  0.00     0.072 H 
BRANCH  47  49
ATOM     49  C21 non d ame     -32.916  13.449  29.078  0.00  0.00    -0.038 C 
ATOM     50  H31 non d ame     -33.760  13.423  28.387  0.00  0.00     0.036 H 
ATOM     51  H32 non d ame     -32.963  14.068  29.973  0.00  0.00     0.036 H 
BRANCH  49  52
ATOM     52  C22 non d ame     -31.702  13.946  28.265  0.00  0.00     0.018 C 
ATOM     53  H33 non d ame     -31.408  14.891  28.720  0.00  0.00     0.048 H 
ATOM     54  H34 non d ame     -31.000  13.111  28.243  0.00  0.00     0.048 H 
BRANCH  52  55
ATOM     55  C23 non d ame     -32.030  14.268  26.781  0.00  0.00     0.259 C 
ATOM     56  O7  non d ame     -32.996  13.809  26.263  0.00  0.00    -0.265 OA
BRANCH  55  57
ATOM     57  O8  non d ame     -31.154  15.109  26.040  0.00  0.00    -0.317 OA
BRANCH  57  58
ATOM     58  C29 non d ame     -31.787  15.799  24.958  0.00  0.00     0.052 C 
ATOM     59  H47 non d ame     -32.820  15.453  24.953  0.00  0.00     0.082 H 
ATOM     60  H48 non d ame     -31.566  16.855  25.112  0.00  0.00     0.082 H 
BRANCH  58  61
ATOM     61  C35 non d ame     -31.109  15.344  23.638  0.00  0.00    -0.034 A 
ATOM     62  C30 non d ame     -30.408  14.143  23.594  0.00  0.00    -0.075 A 
ATOM     63  C31 non d ame     -29.799  13.734  22.407  0.00  0.00    -0.082 A 
ATOM     64  H49 non d ame     -30.334  13.523  24.487  0.00  0.00     0.084 H 
ATOM     65  C32 non d ame     -29.892  14.532  21.264  0.00  0.00    -0.083 A 
ATOM     66  H50 non d ame     -29.251  12.792  22.375  0.00  0.00     0.083 H 
ATOM     67  C33 non d ame     -30.590  15.731  21.314  0.00  0.00    -0.082 A 
ATOM     68  H51 non d ame     -29.419  14.219  20.333  0.00  0.00     0.083 H 
ATOM     69  C34 non d ame     -31.202  16.142  22.497  0.00  0.00    -0.075 A 
ATOM     70  H52 non d ame     -30.659  16.352  20.421  0.00  0.00     0.083 H 
ATOM     71  H53 non d ame     -31.750  17.085  22.528  0.00  0.00     0.084 H 
ENDBRANCH  58  61
ENDBRANCH  57  58
ENDBRANCH  55  57
ENDBRANCH  52  55
ENDBRANCH  49  52
ENDBRANCH  47  49
BRANCH  47  72
ATOM     72  C24 non d ame     -31.897  11.240  28.582  0.00  0.00    -0.039 C 
ATOM     73  H35 non d ame     -31.360  11.990  28.001  0.00  0.00     0.036 H 
ATOM     74  H36 non d ame     -31.345  10.520  29.185  0.00  0.00     0.036 H 
BRANCH  72  75
ATOM     75  C25 non d ame     -32.800  10.404  27.556  0.00  0.00    -0.001 C 
ATOM     76  C26 non d ame     -32.963   8.857  28.088  0.00  0.00    -0.035 C 
ATOM     77  C27 non d ame     -32.637   8.013  27.079  0.00  0.00     0.085 C 
ATOM     78  H38 non d ame     -32.215   8.643  28.851  0.00  0.00     0.036 H 
ATOM     79  H39 non d ame     -34.014   8.635  28.276  0.00  0.00     0.036 H 
ATOM     80  N5  non d ame     -31.953   8.838  26.016  0.00  0.00    -0.049 N 
ATOM     81  H40 non d ame     -31.916   7.314  27.506  0.00  0.00     0.075 H 
ATOM     82  H41 non d ame     -33.586   7.645  26.688  0.00  0.00     0.075 H 
ATOM     83  C28 non d ame     -32.269  10.379  26.379  0.00  0.00     0.193 C 
ATOM     84  H42 non d ame     -30.962   8.679  26.123  0.00  0.00     0.280 HD
ATOM     85  H43 non d ame     -32.409   8.613  25.143  0.00  0.00     0.280 HD
ATOM     86  H44 non d ame     -33.013  10.940  25.815  0.00  0.00     0.129 H 
ATOM     87  H37 non d ame     -33.712  10.933  27.283  0.00  0.00     0.046 H 
BRANCH  83  88
ATOM     88  O6  non d ame     -31.072  11.156  26.311  0.00  0.00    -0.369 OA
ATOM     89  H45 non d ame     -31.079  11.817  27.007  0.00  0.00     0.212 HD
ENDBRANCH  83  88
ENDBRANCH  72  75
ENDBRANCH  47  72
ENDBRANCH  45  47
ENDBRANCH   1  43
BRANCH   1  90
ATOM     90  C16 non d ame     -35.628   8.475  31.486  0.00  0.00    -0.035 C 
ATOM     91  H21 non d ame     -34.553   8.298  31.479  0.00  0.00     0.037 H 
ATOM     92  H22 non d ame     -36.189   8.375  32.414  0.00  0.00     0.037 H 
BRANCH  90  93
ATOM     93  C17 non d ame     -36.248   7.451  30.483  0.00  0.00    -0.059 C 
ATOM     94  H23 non d ame     -36.631   8.013  29.631  0.00  0.00     0.038 H 
BRANCH  93  95
ATOM     95  C18 non d ame     -35.189   6.435  29.948  0.00  0.00    -0.073 C 
ATOM     96  H24 non d ame     -34.701   5.942  30.788  0.00  0.00     0.028 H 
ATOM     97  H25 non d ame     -35.684   5.687  29.328  0.00  0.00     0.028 H 
ATOM     98  H26 non d ame     -34.445   6.964  29.354  0.00  0.00     0.028 H 
ENDBRANCH  93  95
BRANCH  93  99
ATOM     99  C19 non d ame     -37.435   6.718  31.114  0.00  0.00    -0.073 C 
ATOM    100  H27 non d ame     -38.364   7.087  30.677  0.00  0.00     0.028 H 
ATOM    101  H28 non d ame     -37.345   5.649  30.924  0.00  0.00     0.028 H 
ATOM    102  H29 non d ame     -37.443   6.897  32.188  0.00  0.00     0.028 H 
ENDBRANCH  93  99
ENDBRANCH  90  93
ENDBRANCH   1  90
TORSDOF 26
ENDMDL
MODEL 12
REMARK VINA RESULT:      -6.6      2.574      5.713
REMARK  26 active torsions:
REMARK  status: ('A' for Active; 'I' for Inactive)
REMARK    1  A    between atoms: C2_2  and  C3_3 
REMARK    2  A    between atoms: C4_6  and  C5_7 
REMARK       I    between atoms: C5_7  and  N2_9 
REMARK    3  A    between atoms: N2_9  and  C6_10 
REMARK    4  A    between atoms: C6_10  and  C7_11 
REMARK    5  A    between atoms: C6_10  and  C8_13 
REMARK       I    between atoms: C7_11  and  N3_14 
REMARK    6  A    between atoms: N3_14  and  C9_15 
REMARK    7  A    between atoms: C9_15  and  C10_16 
REMARK    8  A    between atoms: C9_15  and  C11_18 
REMARK       I    between atoms: C10_16  and  N4_21 
REMARK    9  A    between atoms: C11_18  and  C12_19 
REMARK   10  A    between atoms: C11_18  and  C13_20 
REMARK   11  A    between atoms: N4_21  and  C14_22 
REMARK   12  A    between atoms: C14_22  and  C15_23 
REMARK   13  A    between atoms: C14_22  and  C16_25 
REMARK       I    between atoms: C15_23  and  N6_40 
REMARK   14  A    between atoms: C16_25  and  C17_26 
REMARK   15  A    between atoms: C17_26  and  C18_27 
REMARK   16  A    between atoms: C17_26  and  C19_28 
REMARK   17  A    between atoms: C20_29  and  C21_30 
REMARK   18  A    between atoms: C20_29  and  C24_33 
REMARK   19  A    between atoms: C20_29  and  N6_40 
REMARK   20  A    between atoms: C21_30  and  C22_31 
REMARK   21  A    between atoms: C22_31  and  C23_32 
REMARK   22  A    between atoms: C23_32  and  O8_43 
REMARK   23  A    between atoms: C24_33  and  C25_34 
REMARK   24  A    between atoms: C28_38  and  O6_39 
REMARK   25  A    between atoms: C29_42  and  O8_43 
REMARK   26  A    between atoms: C29_42  and  C35_49 
ROOT
ATOM      1  C14 non d ame     -32.843  12.590  28.298  0.00  0.00     0.089 C 
ATOM      2  H20 non d ame     -33.087  12.810  29.338  0.00  0.00     0.087 H 
ENDROOT
BRANCH   1   3
ATOM      3  N4  non d ame     -33.537  11.363  27.936  0.00  0.00    -0.346 N 
ATOM      4  C10 non d ame     -33.873  10.339  28.991  0.00  0.00     0.241 C 
ATOM      5  O4  non d ame     -33.573  10.522  30.124  0.00  0.00    -0.271 OA
ATOM      6  H19 non d ame     -33.782  11.225  26.966  0.00  0.00     0.163 HD
BRANCH   4   7
ATOM      7  C9  non d ame     -34.597   9.077  28.599  0.00  0.00     0.092 C 
ATOM      8  H11 non d ame     -35.084   9.228  27.635  0.00  0.00     0.088 H 
BRANCH   7   9
ATOM      9  N3  non d ame     -33.629   7.990  28.430  0.00  0.00    -0.346 N 
ATOM     10  C7  non d ame     -33.416   7.410  27.127  0.00  0.00     0.240 C 
ATOM     11  O3  non d ame     -34.017   7.806  26.203  0.00  0.00    -0.271 OA
ATOM     12  H10 non d ame     -33.105   7.637  29.218  0.00  0.00     0.163 HD
BRANCH  10  13
ATOM     13  C6  non d ame     -32.386   6.251  26.954  0.00  0.00     0.086 C 
ATOM     14  H6  non d ame     -31.419   6.596  26.590  0.00  0.00     0.086 H 
BRANCH  13  15
ATOM     15  N2  non d ame     -32.147   5.637  28.250  0.00  0.00    -0.343 N 
ATOM     16  C5  non d ame     -33.192   4.813  28.863  0.00  0.00     0.273 C 
ATOM     17  O2  non d ame     -34.222   4.653  28.306  0.00  0.00    -0.266 OA
ATOM     18  H5  non d ame     -31.265   5.782  28.720  0.00  0.00     0.163 HD
BRANCH  16  19
ATOM     19  C4  non d ame     -32.952   4.157  30.231  0.00  0.00     0.154 A 
ATOM     20  C1  non d ame     -32.011   3.125  30.542  0.00  0.00    -0.017 A 
ATOM     21  C2  non d ame     -32.185   2.878  31.922  0.00  0.00     0.077 A 
ATOM     22  H1  non d ame     -31.311   2.630  29.870  0.00  0.00     0.091 H 
ATOM     23  O1  non d ame     -33.117   3.682  32.345  0.00  0.00    -0.218 OA
ATOM     24  N1  non d ame     -33.580   4.437  31.376  0.00  0.00    -0.123 NA
BRANCH  21  25
ATOM     25  C3  non d ame     -31.421   1.861  32.759  0.00  0.00    -0.029 C 
ATOM     26  H2  non d ame     -31.526   2.108  33.816  0.00  0.00     0.036 H 
ATOM     27  H3  non d ame     -31.824   0.865  32.578  0.00  0.00     0.036 H 
ATOM     28  H4  non d ame     -30.367   1.882  32.485  0.00  0.00     0.036 H 
ENDBRANCH  21  25
ENDBRANCH  16  19
ENDBRANCH  13  15
BRANCH  13  29
ATOM     29  C8  non d ame     -32.934   5.227  25.992  0.00  0.00    -0.049 C 
ATOM     30  H7  non d ame     -32.487   4.256  26.200  0.00  0.00     0.030 H 
ATOM     31  H8  non d ame     -34.016   5.162  26.109  0.00  0.00     0.030 H 
ATOM     32  H9  non d ame     -32.697   5.526  24.970  0.00  0.00     0.030 H 
ENDBRANCH  13  29
ENDBRANCH  10  13
ENDBRANCH   7   9
BRANCH   7  33
ATOM     33  C11 non d ame     -35.614   8.695  29.714  0.00  0.00    -0.033 C 
ATOM     34  H12 non d ame     -35.123   8.856  30.674  0.00  0.00     0.042 H 
BRANCH  33  35
ATOM     35  C12 non d ame     -36.876   9.613  29.672  0.00  0.00    -0.071 C 
ATOM     36  H13 non d ame     -37.721   9.089  30.119  0.00  0.00     0.028 H 
ATOM     37  H14 non d ame     -36.678  10.527  30.231  0.00  0.00     0.028 H 
ATOM     38  H15 non d ame     -37.110   9.863  28.637  0.00  0.00     0.028 H 
ENDBRANCH  33  35
BRANCH  33  39
ATOM     39  C13 non d ame     -36.008   7.186  29.618  0.00  0.00    -0.071 C 
ATOM     40  H16 non d ame     -35.227   6.577  30.075  0.00  0.00     0.028 H 
ATOM     41  H17 non d ame     -36.950   7.022  30.142  0.00  0.00     0.028 H 
ATOM     42  H18 non d ame     -36.122   6.906  28.572  0.00  0.00     0.028 H 
ENDBRANCH  33  39
ENDBRANCH   7  33
ENDBRANCH   4   7
ENDBRANCH   1   3
BRANCH   1  43
ATOM     43  C15 non d ame     -33.302  13.722  27.335  0.00  0.00     0.240 C 
ATOM     44  O5  non d ame     -34.451  14.020  27.280  0.00  0.00    -0.271 OA
ATOM     45  N6  non d ame     -32.308  14.440  26.489  0.00  0.00    -0.355 N 
ATOM     46  H46 non d ame     -31.328  14.198  26.531  0.00  0.00     0.162 HD
BRANCH  45  47
ATOM     47  C20 non d ame     -32.760  15.516  25.579  0.00  0.00     0.013 C 
ATOM     48  H30 non d ame     -33.849  15.488  25.542  0.00  0.00     0.072 H 
BRANCH  47  49
ATOM     49  C21 non d ame     -32.190  15.275  24.199  0.00  0.00    -0.038 C 
ATOM     50  H31 non d ame     -32.164  14.191  24.076  0.00  0.00     0.036 H 
ATOM     51  H32 non d ame     -32.788  15.886  23.524  0.00  0.00     0.036 H 
BRANCH  49  52
ATOM     52  C22 non d ame     -30.733  15.765  24.058  0.00  0.00     0.018 C 
ATOM     53  H33 non d ame     -30.800  16.824  23.814  0.00  0.00     0.048 H 
ATOM     54  H34 non d ame     -30.226  15.448  24.971  0.00  0.00     0.048 H 
BRANCH  52  55
ATOM     55  C23 non d ame     -29.960  15.102  22.886  0.00  0.00     0.259 C 
ATOM     56  O7  non d ame     -28.948  15.578  22.484  0.00  0.00    -0.265 OA
BRANCH  55  57
ATOM     57  O8  non d ame     -30.482  13.923  22.285  0.00  0.00    -0.317 OA
BRANCH  57  58
ATOM     58  C29 non d ame     -29.589  12.806  22.324  0.00  0.00     0.052 C 
ATOM     59  H47 non d ame     -29.397  12.546  21.283  0.00  0.00     0.082 H 
ATOM     60  H48 non d ame     -28.766  13.108  22.971  0.00  0.00     0.082 H 
BRANCH  58  61
ATOM     61  C35 non d ame     -30.333  11.620  22.996  0.00  0.00    -0.034 A 
ATOM     62  C30 non d ame     -31.112  11.840  24.127  0.00  0.00    -0.075 A 
ATOM     63  C31 non d ame     -31.780  10.775  24.732  0.00  0.00    -0.082 A 
ATOM     64  H49 non d ame     -31.199  12.844  24.541  0.00  0.00     0.084 H 
ATOM     65  C32 non d ame     -31.664   9.487  24.202  0.00  0.00    -0.083 A 
ATOM     66  H50 non d ame     -32.392  10.951  25.618  0.00  0.00     0.083 H 
ATOM     67  C33 non d ame     -30.883   9.273  23.075  0.00  0.00    -0.082 A 
ATOM     68  H51 non d ame     -32.184   8.650  24.668  0.00  0.00     0.083 H 
ATOM     69  C34 non d ame     -30.215  10.334  22.466  0.00  0.00    -0.075 A 
ATOM     70  H52 non d ame     -30.792   8.267  22.665  0.00  0.00     0.083 H 
ATOM     71  H53 non d ame     -29.604  10.158  21.581  0.00  0.00     0.084 H 
ENDBRANCH  58  61
ENDBRANCH  57  58
ENDBRANCH  55  57
ENDBRANCH  52  55
ENDBRANCH  49  52
ENDBRANCH  47  49
BRANCH  47  72
ATOM     72  C24 non d ame     -32.281  16.869  26.100  0.00  0.00    -0.039 C 
ATOM     73  H35 non d ame     -31.781  16.654  27.046  0.00  0.00     0.036 H 
ATOM     74  H36 non d ame     -31.722  17.315  25.278  0.00  0.00     0.036 H 
BRANCH  72  75
ATOM     75  C25 non d ame     -33.508  17.847  26.424  0.00  0.00    -0.001 C 
ATOM     76  C26 non d ame     -33.192  19.351  25.841  0.00  0.00    -0.035 C 
ATOM     77  C27 non d ame     -33.389  20.254  26.832  0.00  0.00     0.085 C 
ATOM     78  H38 non d ame     -32.130  19.450  25.615  0.00  0.00     0.036 H 
ATOM     79  H39 non d ame     -33.937  19.627  25.094  0.00  0.00     0.036 H 
ATOM     80  N5  non d ame     -33.492  19.477  28.122  0.00  0.00    -0.049 N 
ATOM     81  H40 non d ame     -32.485  20.864  26.855  0.00  0.00     0.075 H 
ATOM     82  H41 non d ame     -34.353  20.715  26.618  0.00  0.00     0.075 H 
ATOM     83  C28 non d ame     -33.712  17.935  27.696  0.00  0.00     0.193 C 
ATOM     84  H42 non d ame     -32.595  19.559  28.579  0.00  0.00     0.280 HD
ATOM     85  H43 non d ame     -34.327  19.805  28.588  0.00  0.00     0.280 HD
ATOM     86  H44 non d ame     -34.696  17.475  27.771  0.00  0.00     0.129 H 
ATOM     87  H37 non d ame     -34.469  17.405  26.162  0.00  0.00     0.046 H 
BRANCH  83  88
ATOM     88  O6  non d ame     -32.837  17.088  28.443  0.00  0.00    -0.369 OA
ATOM     89  H45 non d ame     -32.758  16.240  28.001  0.00  0.00     0.212 HD
ENDBRANCH  83  88
ENDBRANCH  72  75
ENDBRANCH  47  72
ENDBRANCH  45  47
ENDBRANCH   1  43
BRANCH   1  90
ATOM     90  C16 non d ame     -31.345  12.373  28.155  0.00  0.00    -0.035 C 
ATOM     91  H21 non d ame     -31.209  11.292  28.142  0.00  0.00     0.037 H 
ATOM     92  H22 non d ame     -31.048  12.970  27.293  0.00  0.00     0.037 H 
BRANCH  90  93
ATOM     93  C17 non d ame     -30.516  12.905  29.368  0.00  0.00    -0.059 C 
ATOM     94  H23 non d ame     -29.464  12.887  29.083  0.00  0.00     0.038 H 
BRANCH  93  95
ATOM     95  C18 non d ame     -30.886  14.378  29.734  0.00  0.00    -0.073 C 
ATOM     96  H24 non d ame     -31.858  14.397  30.226  0.00  0.00     0.028 H 
ATOM     97  H25 non d ame     -30.132  14.786  30.407  0.00  0.00     0.028 H 
ATOM     98  H26 non d ame     -30.926  14.979  28.826  0.00  0.00     0.028 H 
ENDBRANCH  93  95
BRANCH  93  99
ATOM     99  C19 non d ame     -30.674  11.987  30.582  0.00  0.00    -0.073 C 
ATOM    100  H27 non d ame     -30.046  11.104  30.455  0.00  0.00     0.028 H 
ATOM    101  H28 non d ame     -30.370  12.520  31.483  0.00  0.00     0.028 H 
ATOM    102  H29 non d ame     -31.715  11.682  30.675  0.00  0.00     0.028 H 
ENDBRANCH  93  99
ENDBRANCH  90  93
ENDBRANCH   1  90
TORSDOF 26
ENDMDL
MODEL 13
REMARK VINA RESULT:      -6.5      2.399      9.302
REMARK  26 active torsions:
REMARK  status: ('A' for Active; 'I' for Inactive)
REMARK    1  A    between atoms: C2_2  and  C3_3 
REMARK    2  A    between atoms: C4_6  and  C5_7 
REMARK       I    between atoms: C5_7  and  N2_9 
REMARK    3  A    between atoms: N2_9  and  C6_10 
REMARK    4  A    between atoms: C6_10  and  C7_11 
REMARK    5  A    between atoms: C6_10  and  C8_13 
REMARK       I    between atoms: C7_11  and  N3_14 
REMARK    6  A    between atoms: N3_14  and  C9_15 
REMARK    7  A    between atoms: C9_15  and  C10_16 
REMARK    8  A    between atoms: C9_15  and  C11_18 
REMARK       I    between atoms: C10_16  and  N4_21 
REMARK    9  A    between atoms: C11_18  and  C12_19 
REMARK   10  A    between atoms: C11_18  and  C13_20 
REMARK   11  A    between atoms: N4_21  and  C14_22 
REMARK   12  A    between atoms: C14_22  and  C15_23 
REMARK   13  A    between atoms: C14_22  and  C16_25 
REMARK       I    between atoms: C15_23  and  N6_40 
REMARK   14  A    between atoms: C16_25  and  C17_26 
REMARK   15  A    between atoms: C17_26  and  C18_27 
REMARK   16  A    between atoms: C17_26  and  C19_28 
REMARK   17  A    between atoms: C20_29  and  C21_30 
REMARK   18  A    between atoms: C20_29  and  C24_33 
REMARK   19  A    between atoms: C20_29  and  N6_40 
REMARK   20  A    between atoms: C21_30  and  C22_31 
REMARK   21  A    between atoms: C22_31  and  C23_32 
REMARK   22  A    between atoms: C23_32  and  O8_43 
REMARK   23  A    between atoms: C24_33  and  C25_34 
REMARK   24  A    between atoms: C28_38  and  O6_39 
REMARK   25  A    between atoms: C29_42  and  O8_43 
REMARK   26  A    between atoms: C29_42  and  C35_49 
ROOT
ATOM      1  C14 non d ame     -33.420  10.149  25.173  0.00  0.00     0.089 C 
ATOM      2  H20 non d ame     -34.147   9.425  24.803  0.00  0.00     0.087 H 
ENDROOT
BRANCH   1   3
ATOM      3  N4  non d ame     -34.067  11.453  25.181  0.00  0.00    -0.346 N 
ATOM      4  C10 non d ame     -35.557  11.563  25.390  0.00  0.00     0.241 C 
ATOM      5  O4  non d ame     -36.215  10.588  25.546  0.00  0.00    -0.271 OA
ATOM      6  H19 non d ame     -33.489  12.270  25.044  0.00  0.00     0.163 HD
BRANCH   4   7
ATOM      7  C9  non d ame     -36.208  12.921  25.402  0.00  0.00     0.092 C 
ATOM      8  H11 non d ame     -36.651  13.098  26.382  0.00  0.00     0.088 H 
BRANCH   7   9
ATOM      9  N3  non d ame     -35.190  13.953  25.192  0.00  0.00    -0.346 N 
ATOM     10  C7  non d ame     -34.886  14.890  26.246  0.00  0.00     0.240 C 
ATOM     11  O3  non d ame     -35.453  14.828  27.268  0.00  0.00    -0.271 OA
ATOM     12  H10 non d ame     -34.694  14.021  24.316  0.00  0.00     0.163 HD
BRANCH  10  13
ATOM     13  C6  non d ame     -33.803  15.990  26.016  0.00  0.00     0.086 C 
ATOM     14  H6  non d ame     -33.033  15.991  26.788  0.00  0.00     0.086 H 
BRANCH  13  15
ATOM     15  N2  non d ame     -33.128  15.730  24.755  0.00  0.00    -0.343 N 
ATOM     16  C5  non d ame     -31.678  15.917  24.661  0.00  0.00     0.273 C 
ATOM     17  O2  non d ame     -31.065  16.278  25.604  0.00  0.00    -0.266 OA
ATOM     18  H5  non d ame     -33.661  15.425  23.953  0.00  0.00     0.163 HD
BRANCH  16  19
ATOM     19  C4  non d ame     -30.952  15.644  23.335  0.00  0.00     0.154 A 
ATOM     20  C1  non d ame     -31.440  15.899  22.014  0.00  0.00    -0.017 A 
ATOM     21  C2  non d ame     -30.401  15.475  21.155  0.00  0.00     0.077 A 
ATOM     22  H1  non d ame     -32.400  16.323  21.722  0.00  0.00     0.091 H 
ATOM     23  O1  non d ame     -29.433  15.034  21.905  0.00  0.00    -0.218 OA
ATOM     24  N1  non d ame     -29.732  15.122  23.181  0.00  0.00    -0.123 NA
BRANCH  21  25
ATOM     25  C3  non d ame     -30.412  15.528  19.633  0.00  0.00    -0.029 C 
ATOM     26  H2  non d ame     -29.689  16.269  19.290  0.00  0.00     0.036 H 
ATOM     27  H3  non d ame     -30.145  14.550  19.234  0.00  0.00     0.036 H 
ATOM     28  H4  non d ame     -31.406  15.803  19.286  0.00  0.00     0.036 H 
ENDBRANCH  21  25
ENDBRANCH  16  19
ENDBRANCH  13  15
BRANCH  13  29
ATOM     29  C8  non d ame     -34.460  17.347  25.981  0.00  0.00    -0.049 C 
ATOM     30  H7  non d ame     -33.931  18.024  26.650  0.00  0.00     0.030 H 
ATOM     31  H8  non d ame     -34.425  17.740  24.964  0.00  0.00     0.030 H 
ATOM     32  H9  non d ame     -35.498  17.256  26.300  0.00  0.00     0.030 H 
ENDBRANCH  13  29
ENDBRANCH  10  13
ENDBRANCH   7   9
BRANCH   7  33
ATOM     33  C11 non d ame     -37.264  12.998  24.261  0.00  0.00    -0.033 C 
ATOM     34  H12 non d ame     -37.112  12.135  23.613  0.00  0.00     0.042 H 
BRANCH  33  35
ATOM     35  C12 non d ame     -38.717  12.912  24.824  0.00  0.00    -0.071 C 
ATOM     36  H13 non d ame     -39.018  13.888  25.205  0.00  0.00     0.028 H 
ATOM     37  H14 non d ame     -39.397  12.607  24.028  0.00  0.00     0.028 H 
ATOM     38  H15 non d ame     -38.752  12.181  25.632  0.00  0.00     0.028 H 
ENDBRANCH  33  35
BRANCH  33  39
ATOM     39  C13 non d ame     -37.066  14.288  23.401  0.00  0.00    -0.071 C 
ATOM     40  H16 non d ame     -36.339  14.940  23.886  0.00  0.00     0.028 H 
ATOM     41  H17 non d ame     -36.703  14.012  22.410  0.00  0.00     0.028 H 
ATOM     42  H18 non d ame     -38.017  14.811  23.305  0.00  0.00     0.028 H 
ENDBRANCH  33  39
ENDBRANCH   7  33
ENDBRANCH   4   7
ENDBRANCH   1   3
BRANCH   1  43
ATOM     43  C15 non d ame     -32.947   9.822  26.618  0.00  0.00     0.240 C 
ATOM     44  O5  non d ame     -31.839   9.433  26.803  0.00  0.00    -0.271 OA
ATOM     45  N6  non d ame     -33.872  10.002  27.773  0.00  0.00    -0.355 N 
ATOM     46  H46 non d ame     -34.814  10.337  27.628  0.00  0.00     0.162 HD
BRANCH  45  47
ATOM     47  C20 non d ame     -33.406   9.688  29.141  0.00  0.00     0.013 C 
ATOM     48  H30 non d ame     -32.460   9.153  29.059  0.00  0.00     0.072 H 
BRANCH  47  49
ATOM     49  C21 non d ame     -34.434   8.819  29.831  0.00  0.00    -0.038 C 
ATOM     50  H31 non d ame     -34.824   8.154  29.059  0.00  0.00     0.036 H 
ATOM     51  H32 non d ame     -33.929   8.404  30.703  0.00  0.00     0.036 H 
BRANCH  49  52
ATOM     52  C22 non d ame     -35.639   9.623  30.364  0.00  0.00     0.018 C 
ATOM     53  H33 non d ame     -35.418   9.826  31.411  0.00  0.00     0.048 H 
ATOM     54  H34 non d ame     -35.773  10.450  29.666  0.00  0.00     0.048 H 
BRANCH  52  55
ATOM     55  C23 non d ame     -36.975   8.831  30.353  0.00  0.00     0.259 C 
ATOM     56  O7  non d ame     -37.775   9.009  29.492  0.00  0.00    -0.265 OA
BRANCH  55  57
ATOM     57  O8  non d ame     -37.241   7.897  31.393  0.00  0.00    -0.317 OA
BRANCH  57  58
ATOM     58  C29 non d ame     -37.562   6.583  30.927  0.00  0.00     0.052 C 
ATOM     59  H47 non d ame     -37.958   6.052  31.792  0.00  0.00     0.082 H 
ATOM     60  H48 non d ame     -38.184   6.727  30.043  0.00  0.00     0.082 H 
BRANCH  58  61
ATOM     61  C35 non d ame     -36.241   5.894  30.490  0.00  0.00    -0.034 A 
ATOM     62  C30 non d ame     -36.050   5.536  29.159  0.00  0.00    -0.075 A 
ATOM     63  C31 non d ame     -34.864   4.916  28.767  0.00  0.00    -0.082 A 
ATOM     64  H49 non d ame     -36.829   5.739  28.424  0.00  0.00     0.084 H 
ATOM     65  C32 non d ame     -33.868   4.654  29.712  0.00  0.00    -0.083 A 
ATOM     66  H50 non d ame     -34.716   4.638  27.723  0.00  0.00     0.083 H 
ATOM     67  C33 non d ame     -34.065   5.010  31.039  0.00  0.00    -0.082 A 
ATOM     68  H51 non d ame     -32.938   4.171  29.413  0.00  0.00     0.083 H 
ATOM     69  C34 non d ame     -35.248   5.631  31.435  0.00  0.00    -0.075 A 
ATOM     70  H52 non d ame     -33.287   4.802  31.774  0.00  0.00     0.083 H 
ATOM     71  H53 non d ame     -35.394   5.909  32.479  0.00  0.00     0.084 H 
ENDBRANCH  58  61
ENDBRANCH  57  58
ENDBRANCH  55  57
ENDBRANCH  52  55
ENDBRANCH  49  52
ENDBRANCH  47  49
BRANCH  47  72
ATOM     72  C24 non d ame     -33.217  10.981  29.932  0.00  0.00    -0.039 C 
ATOM     73  H35 non d ame     -34.093  11.590  29.705  0.00  0.00     0.036 H 
ATOM     74  H36 non d ame     -33.024  10.667  30.958  0.00  0.00     0.036 H 
BRANCH  72  75
ATOM     75  C25 non d ame     -31.931  11.796  29.436  0.00  0.00    -0.001 C 
ATOM     76  C26 non d ame     -30.966  12.153  30.719  0.00  0.00    -0.035 C 
ATOM     77  C27 non d ame     -30.690  13.479  30.702  0.00  0.00     0.085 C 
ATOM     78  H38 non d ame     -31.517  12.019  31.650  0.00  0.00     0.036 H 
ATOM     79  H39 non d ame     -29.989  11.687  30.592  0.00  0.00     0.036 H 
ATOM     80  N5  non d ame     -31.641  14.115  29.718  0.00  0.00    -0.049 N 
ATOM     81  H40 non d ame     -30.923  13.838  31.705  0.00  0.00     0.075 H 
ATOM     82  H41 non d ame     -29.674  13.560  30.316  0.00  0.00     0.075 H 
ATOM     83  C28 non d ame     -32.271  12.901  28.860  0.00  0.00     0.193 C 
ATOM     84  H42 non d ame     -32.377  14.539  30.264  0.00  0.00     0.280 HD
ATOM     85  H43 non d ame     -31.077  14.685  29.103  0.00  0.00     0.280 HD
ATOM     86  H44 non d ame     -31.933  12.707  27.844  0.00  0.00     0.129 H 
ATOM     87  H37 non d ame     -31.456  11.333  28.572  0.00  0.00     0.046 H 
BRANCH  83  88
ATOM     88  O6  non d ame     -33.690  13.047  28.769  0.00  0.00    -0.369 OA
ATOM     89  H45 non d ame     -33.937  13.942  29.013  0.00  0.00     0.212 HD
ENDBRANCH  83  88
ENDBRANCH  72  75
ENDBRANCH  47  72
ENDBRANCH  45  47
ENDBRANCH   1  43
BRANCH   1  90
ATOM     90  C16 non d ame     -32.220  10.197  24.240  0.00  0.00    -0.035 C 
ATOM     91  H21 non d ame     -32.259  11.179  23.770  0.00  0.00     0.037 H 
ATOM     92  H22 non d ame     -31.365   9.922  24.857  0.00  0.00     0.037 H 
BRANCH  90  93
ATOM     93  C17 non d ame     -32.285   9.151  23.082  0.00  0.00    -0.059 C 
ATOM     94  H23 non d ame     -31.868   9.619  22.190  0.00  0.00     0.038 H 
BRANCH  93  95
ATOM     95  C18 non d ame     -31.438   7.876  23.392  0.00  0.00    -0.073 C 
ATOM     96  H24 non d ame     -30.475   8.171  23.806  0.00  0.00     0.028 H 
ATOM     97  H25 non d ame     -31.969   7.254  24.114  0.00  0.00     0.028 H 
ATOM     98  H26 non d ame     -31.282   7.311  22.473  0.00  0.00     0.028 H 
ENDBRANCH  93  95
BRANCH  93  99
ATOM     99  C19 non d ame     -33.735   8.778  22.763  0.00  0.00    -0.073 C 
ATOM    100  H27 non d ame     -34.333   9.685  22.674  0.00  0.00     0.028 H 
ATOM    101  H28 non d ame     -33.771   8.227  21.823  0.00  0.00     0.028 H 
ATOM    102  H29 non d ame     -34.134   8.156  23.563  0.00  0.00     0.028 H 
ENDBRANCH  93  99
ENDBRANCH  90  93
ENDBRANCH   1  90
TORSDOF 26
ENDMDL
MODEL 14
REMARK VINA RESULT:      -6.5      3.097      9.491
REMARK  26 active torsions:
REMARK  status: ('A' for Active; 'I' for Inactive)
REMARK    1  A    between atoms: C2_2  and  C3_3 
REMARK    2  A    between atoms: C4_6  and  C5_7 
REMARK       I    between atoms: C5_7  and  N2_9 
REMARK    3  A    between atoms: N2_9  and  C6_10 
REMARK    4  A    between atoms: C6_10  and  C7_11 
REMARK    5  A    between atoms: C6_10  and  C8_13 
REMARK       I    between atoms: C7_11  and  N3_14 
REMARK    6  A    between atoms: N3_14  and  C9_15 
REMARK    7  A    between atoms: C9_15  and  C10_16 
REMARK    8  A    between atoms: C9_15  and  C11_18 
REMARK       I    between atoms: C10_16  and  N4_21 
REMARK    9  A    between atoms: C11_18  and  C12_19 
REMARK   10  A    between atoms: C11_18  and  C13_20 
REMARK   11  A    between atoms: N4_21  and  C14_22 
REMARK   12  A    between atoms: C14_22  and  C15_23 
REMARK   13  A    between atoms: C14_22  and  C16_25 
REMARK       I    between atoms: C15_23  and  N6_40 
REMARK   14  A    between atoms: C16_25  and  C17_26 
REMARK   15  A    between atoms: C17_26  and  C18_27 
REMARK   16  A    between atoms: C17_26  and  C19_28 
REMARK   17  A    between atoms: C20_29  and  C21_30 
REMARK   18  A    between atoms: C20_29  and  C24_33 
REMARK   19  A    between atoms: C20_29  and  N6_40 
REMARK   20  A    between atoms: C21_30  and  C22_31 
REMARK   21  A    between atoms: C22_31  and  C23_32 
REMARK   22  A    between atoms: C23_32  and  O8_43 
REMARK   23  A    between atoms: C24_33  and  C25_34 
REMARK   24  A    between atoms: C28_38  and  O6_39 
REMARK   25  A    between atoms: C29_42  and  O8_43 
REMARK   26  A    between atoms: C29_42  and  C35_49 
ROOT
ATOM      1  C14 non d ame     -31.729  11.135  24.690  0.00  0.00     0.089 C 
ATOM      2  H20 non d ame     -32.215  11.690  23.886  0.00  0.00     0.087 H 
ENDROOT
BRANCH   1   3
ATOM      3  N4  non d ame     -31.324  12.098  25.703  0.00  0.00    -0.346 N 
ATOM      4  C10 non d ame     -32.194  13.290  26.013  0.00  0.00     0.241 C 
ATOM      5  O4  non d ame     -33.215  13.456  25.432  0.00  0.00    -0.271 OA
ATOM      6  H19 non d ame     -30.450  11.940  26.185  0.00  0.00     0.163 HD
BRANCH   4   7
ATOM      7  C9  non d ame     -31.761  14.273  27.069  0.00  0.00     0.092 C 
ATOM      8  H11 non d ame     -30.749  14.613  26.849  0.00  0.00     0.088 H 
BRANCH   7   9
ATOM      9  N3  non d ame     -32.633  15.450  27.029  0.00  0.00    -0.346 N 
ATOM     10  C7  non d ame     -32.271  16.588  26.220  0.00  0.00     0.240 C 
ATOM     11  O3  non d ame     -31.281  16.573  25.595  0.00  0.00    -0.271 OA
ATOM     12  H10 non d ame     -33.489  15.478  27.564  0.00  0.00     0.163 HD
BRANCH  10  13
ATOM     13  C6  non d ame     -33.202  17.839  26.184  0.00  0.00     0.086 C 
ATOM     14  H6  non d ame     -33.536  18.088  25.176  0.00  0.00     0.086 H 
BRANCH  13  15
ATOM     15  N2  non d ame     -34.399  17.559  26.960  0.00  0.00    -0.343 N 
ATOM     16  C5  non d ame     -35.692  18.072  26.502  0.00  0.00     0.273 C 
ATOM     17  O2  non d ame     -35.759  18.711  25.510  0.00  0.00    -0.266 OA
ATOM     18  H5  non d ame     -34.332  17.016  27.809  0.00  0.00     0.163 HD
BRANCH  16  19
ATOM     19  C4  non d ame     -36.965  17.782  27.312  0.00  0.00     0.154 A 
ATOM     20  C1  non d ame     -37.814  18.735  27.959  0.00  0.00    -0.017 A 
ATOM     21  C2  non d ame     -38.835  17.965  28.559  0.00  0.00     0.077 A 
ATOM     22  H1  non d ame     -37.706  19.819  27.990  0.00  0.00     0.091 H 
ATOM     23  O1  non d ame     -38.593  16.717  28.281  0.00  0.00    -0.218 OA
ATOM     24  N1  non d ame     -37.506  16.586  27.555  0.00  0.00    -0.123 NA
BRANCH  21  25
ATOM     25  C3  non d ame     -40.004  18.497  29.378  0.00  0.00    -0.029 C 
ATOM     26  H2  non d ame     -40.358  19.431  28.942  0.00  0.00     0.036 H 
ATOM     27  H3  non d ame     -40.812  17.766  29.375  0.00  0.00     0.036 H 
ATOM     28  H4  non d ame     -39.678  18.675  30.402  0.00  0.00     0.036 H 
ENDBRANCH  21  25
ENDBRANCH  16  19
ENDBRANCH  13  15
BRANCH  13  29
ATOM     29  C8  non d ame     -32.476  19.026  26.764  0.00  0.00    -0.049 C 
ATOM     30  H7  non d ame     -31.580  18.686  27.283  0.00  0.00     0.030 H 
ATOM     31  H8  non d ame     -32.193  19.707  25.961  0.00  0.00     0.030 H 
ATOM     32  H9  non d ame     -33.129  19.544  27.467  0.00  0.00     0.030 H 
ENDBRANCH  13  29
ENDBRANCH  10  13
ENDBRANCH   7   9
BRANCH   7  33
ATOM     33  C11 non d ame     -31.860  13.604  28.471  0.00  0.00    -0.033 C 
ATOM     34  H12 non d ame     -32.430  12.681  28.355  0.00  0.00     0.042 H 
BRANCH  33  35
ATOM     35  C12 non d ame     -30.451  13.220  29.020  0.00  0.00    -0.071 C 
ATOM     36  H13 non d ame     -30.495  12.230  29.475  0.00  0.00     0.028 H 
ATOM     37  H14 non d ame     -29.733  13.211  28.201  0.00  0.00     0.028 H 
ATOM     38  H15 non d ame     -30.141  13.949  29.768  0.00  0.00     0.028 H 
ENDBRANCH  33  35
BRANCH  33  39
ATOM     39  C13 non d ame     -32.628  14.522  29.476  0.00  0.00    -0.071 C 
ATOM     40  H16 non d ame     -33.103  15.339  28.932  0.00  0.00     0.028 H 
ATOM     41  H17 non d ame     -33.391  13.938  29.992  0.00  0.00     0.028 H 
ATOM     42  H18 non d ame     -31.929  14.928  30.205  0.00  0.00     0.028 H 
ENDBRANCH  33  39
ENDBRANCH   7  33
ENDBRANCH   4   7
ENDBRANCH   1   3
BRANCH   1  43
ATOM     43  C15 non d ame     -32.682  10.097  25.346  0.00  0.00     0.240 C 
ATOM     44  O5  non d ame     -33.786   9.960  24.928  0.00  0.00    -0.271 OA
ATOM     45  N6  non d ame     -32.216   9.264  26.491  0.00  0.00    -0.355 N 
ATOM     46  H46 non d ame     -31.277   9.367  26.852  0.00  0.00     0.162 HD
BRANCH  45  47
ATOM     47  C20 non d ame     -33.133   8.278  27.104  0.00  0.00     0.013 C 
ATOM     48  H30 non d ame     -33.900   8.033  26.370  0.00  0.00     0.072 H 
BRANCH  47  49
ATOM     49  C21 non d ame     -33.769   8.885  28.334  0.00  0.00    -0.038 C 
ATOM     50  H31 non d ame     -34.671   9.389  27.981  0.00  0.00     0.036 H 
ATOM     51  H32 non d ame     -33.846   8.074  29.057  0.00  0.00     0.036 H 
BRANCH  49  52
ATOM     52  C22 non d ame     -32.891   9.973  28.989  0.00  0.00     0.018 C 
ATOM     53  H33 non d ame     -31.937   9.494  29.203  0.00  0.00     0.048 H 
ATOM     54  H34 non d ame     -32.931  10.830  28.314  0.00  0.00     0.048 H 
BRANCH  52  55
ATOM     55  C23 non d ame     -33.434  10.479  30.354  0.00  0.00     0.259 C 
ATOM     56  O7  non d ame     -32.696  10.940  31.163  0.00  0.00    -0.265 OA
BRANCH  55  57
ATOM     57  O8  non d ame     -34.824  10.371  30.634  0.00  0.00    -0.317 OA
BRANCH  57  58
ATOM     58  C29 non d ame     -35.119   9.714  31.871  0.00  0.00     0.052 C 
ATOM     59  H47 non d ame     -34.153   9.506  32.331  0.00  0.00     0.082 H 
ATOM     60  H48 non d ame     -35.839  10.354  32.381  0.00  0.00     0.082 H 
BRANCH  58  61
ATOM     61  C35 non d ame     -35.808   8.362  31.544  0.00  0.00    -0.034 A 
ATOM     62  C30 non d ame     -37.189   8.305  31.388  0.00  0.00    -0.075 A 
ATOM     63  C31 non d ame     -37.808   7.090  31.095  0.00  0.00    -0.082 A 
ATOM     64  H49 non d ame     -37.786   9.209  31.497  0.00  0.00     0.084 H 
ATOM     65  C32 non d ame     -37.040   5.930  30.960  0.00  0.00    -0.083 A 
ATOM     66  H50 non d ame     -38.891   7.048  30.972  0.00  0.00     0.083 H 
ATOM     67  C33 non d ame     -35.663   5.992  31.120  0.00  0.00    -0.082 A 
ATOM     68  H51 non d ame     -37.517   4.977  30.730  0.00  0.00     0.083 H 
ATOM     69  C34 non d ame     -35.040   7.204  31.411  0.00  0.00    -0.075 A 
ATOM     70  H52 non d ame     -35.067   5.085  31.016  0.00  0.00     0.083 H 
ATOM     71  H53 non d ame     -33.957   7.245  31.534  0.00  0.00     0.084 H 
ENDBRANCH  58  61
ENDBRANCH  57  58
ENDBRANCH  55  57
ENDBRANCH  52  55
ENDBRANCH  49  52
ENDBRANCH  47  49
BRANCH  47  72
ATOM     72  C24 non d ame     -32.356   7.024  27.498  0.00  0.00    -0.039 C 
ATOM     73  H35 non d ame     -31.390   7.113  26.999  0.00  0.00     0.036 H 
ATOM     74  H36 non d ame     -32.405   6.982  28.586  0.00  0.00     0.036 H 
BRANCH  72  75
ATOM     75  C25 non d ame     -33.055   5.695  26.941  0.00  0.00    -0.001 C 
ATOM     76  C26 non d ame     -34.690   5.843  27.032  0.00  0.00    -0.035 C 
ATOM     77  C27 non d ame     -35.192   4.755  27.664  0.00  0.00     0.085 C 
ATOM     78  H38 non d ame     -34.955   6.667  27.694  0.00  0.00     0.036 H 
ATOM     79  H39 non d ame     -35.126   5.782  26.035  0.00  0.00     0.036 H 
ATOM     80  N5  non d ame     -34.027   4.038  28.302  0.00  0.00    -0.049 N 
ATOM     81  H40 non d ame     -35.841   5.147  28.448  0.00  0.00     0.075 H 
ATOM     82  H41 non d ame     -35.608   4.126  26.877  0.00  0.00     0.075 H 
ATOM     83  C28 non d ame     -32.699   4.658  27.625  0.00  0.00     0.193 C 
ATOM     84  H42 non d ame     -34.037   4.289  29.280  0.00  0.00     0.280 HD
ATOM     85  H43 non d ame     -34.105   3.068  28.030  0.00  0.00     0.280 HD
ATOM     86  H44 non d ame     -32.152   4.099  26.867  0.00  0.00     0.129 H 
ATOM     87  H37 non d ame     -32.638   5.377  25.986  0.00  0.00     0.046 H 
BRANCH  83  88
ATOM     88  O6  non d ame     -31.737   4.980  28.631  0.00  0.00    -0.369 OA
ATOM     89  H45 non d ame     -30.875   4.650  28.368  0.00  0.00     0.212 HD
ENDBRANCH  83  88
ENDBRANCH  72  75
ENDBRANCH  47  72
ENDBRANCH  45  47
ENDBRANCH   1  43
BRANCH   1  90
ATOM     90  C16 non d ame     -30.494  10.429  24.154  0.00  0.00    -0.035 C 
ATOM     91  H21 non d ame     -29.648  10.930  24.624  0.00  0.00     0.037 H 
ATOM     92  H22 non d ame     -30.667   9.369  24.334  0.00  0.00     0.037 H 
BRANCH  90  93
ATOM     93  C17 non d ame     -30.299  10.590  22.613  0.00  0.00    -0.059 C 
ATOM     94  H23 non d ame     -31.280  10.517  22.145  0.00  0.00     0.038 H 
BRANCH  93  95
ATOM     95  C18 non d ame     -29.694  11.980  22.237  0.00  0.00    -0.073 C 
ATOM     96  H24 non d ame     -28.607  11.906  22.198  0.00  0.00     0.028 H 
ATOM     97  H25 non d ame     -30.071  12.289  21.262  0.00  0.00     0.028 H 
ATOM     98  H26 non d ame     -29.981  12.717  22.987  0.00  0.00     0.028 H 
ENDBRANCH  93  95
BRANCH  93  99
ATOM     99  C19 non d ame     -29.441   9.454  22.049  0.00  0.00    -0.073 C 
ATOM    100  H27 non d ame     -29.922   9.041  21.162  0.00  0.00     0.028 H 
ATOM    101  H28 non d ame     -28.457   9.839  21.782  0.00  0.00     0.028 H 
ATOM    102  H29 non d ame     -29.333   8.673  22.801  0.00  0.00     0.028 H 
ENDBRANCH  93  99
ENDBRANCH  90  93
ENDBRANCH   1  90
TORSDOF 26
ENDMDL
MODEL 15
REMARK VINA RESULT:      -6.5      3.178      6.747
REMARK  26 active torsions:
REMARK  status: ('A' for Active; 'I' for Inactive)
REMARK    1  A    between atoms: C2_2  and  C3_3 
REMARK    2  A    between atoms: C4_6  and  C5_7 
REMARK       I    between atoms: C5_7  and  N2_9 
REMARK    3  A    between atoms: N2_9  and  C6_10 
REMARK    4  A    between atoms: C6_10  and  C7_11 
REMARK    5  A    between atoms: C6_10  and  C8_13 
REMARK       I    between atoms: C7_11  and  N3_14 
REMARK    6  A    between atoms: N3_14  and  C9_15 
REMARK    7  A    between atoms: C9_15  and  C10_16 
REMARK    8  A    between atoms: C9_15  and  C11_18 
REMARK       I    between atoms: C10_16  and  N4_21 
REMARK    9  A    between atoms: C11_18  and  C12_19 
REMARK   10  A    between atoms: C11_18  and  C13_20 
REMARK   11  A    between atoms: N4_21  and  C14_22 
REMARK   12  A    between atoms: C14_22  and  C15_23 
REMARK   13  A    between atoms: C14_22  and  C16_25 
REMARK       I    between atoms: C15_23  and  N6_40 
REMARK   14  A    between atoms: C16_25  and  C17_26 
REMARK   15  A    between atoms: C17_26  and  C18_27 
REMARK   16  A    between atoms: C17_26  and  C19_28 
REMARK   17  A    between atoms: C20_29  and  C21_30 
REMARK   18  A    between atoms: C20_29  and  C24_33 
REMARK   19  A    between atoms: C20_29  and  N6_40 
REMARK   20  A    between atoms: C21_30  and  C22_31 
REMARK   21  A    between atoms: C22_31  and  C23_32 
REMARK   22  A    between atoms: C23_32  and  O8_43 
REMARK   23  A    between atoms: C24_33  and  C25_34 
REMARK   24  A    between atoms: C28_38  and  O6_39 
REMARK   25  A    between atoms: C29_42  and  O8_43 
REMARK   26  A    between atoms: C29_42  and  C35_49 
ROOT
ATOM      1  C14 non d ame     -32.316   9.742  24.618  0.00  0.00     0.089 C 
ATOM      2  H20 non d ame     -31.969   8.872  25.178  0.00  0.00     0.087 H 
ENDROOT
BRANCH   1   3
ATOM      3  N4  non d ame     -33.659  10.054  25.084  0.00  0.00    -0.346 N 
ATOM      4  C10 non d ame     -34.121   9.591  26.443  0.00  0.00     0.241 C 
ATOM      5  O4  non d ame     -33.396   8.965  27.142  0.00  0.00    -0.271 OA
ATOM      6  H19 non d ame     -34.261  10.587  24.473  0.00  0.00     0.163 HD
BRANCH   4   7
ATOM      7  C9  non d ame     -35.512   9.930  26.911  0.00  0.00     0.092 C 
ATOM      8  H11 non d ame     -35.455  10.419  27.883  0.00  0.00     0.088 H 
BRANCH   7   9
ATOM      9  N3  non d ame     -36.123  10.883  25.980  0.00  0.00    -0.346 N 
ATOM     10  C7  non d ame     -36.881  12.000  26.488  0.00  0.00     0.240 C 
ATOM     11  O3  non d ame     -37.010  12.146  27.642  0.00  0.00    -0.271 OA
ATOM     12  H10 non d ame     -36.021  10.769  24.982  0.00  0.00     0.163 HD
BRANCH  10  13
ATOM     13  C6  non d ame     -37.532  13.010  25.492  0.00  0.00     0.086 C 
ATOM     14  H6  non d ame     -38.617  13.047  25.579  0.00  0.00     0.086 H 
BRANCH  13  15
ATOM     15  N2  non d ame     -37.045  14.347  25.792  0.00  0.00    -0.343 N 
ATOM     16  C5  non d ame     -37.900  15.276  26.534  0.00  0.00     0.273 C 
ATOM     17  O2  non d ame     -38.978  14.940  26.882  0.00  0.00    -0.266 OA
ATOM     18  H5  non d ame     -36.124  14.627  25.487  0.00  0.00     0.163 HD
BRANCH  16  19
ATOM     19  C4  non d ame     -37.398  16.691  26.859  0.00  0.00     0.154 A 
ATOM     20  C1  non d ame     -37.380  17.825  25.986  0.00  0.00    -0.017 A 
ATOM     21  C2  non d ame     -36.828  18.871  26.758  0.00  0.00     0.077 A 
ATOM     22  H1  non d ame     -37.715  17.880  24.950  0.00  0.00     0.091 H 
ATOM     23  O1  non d ame     -36.566  18.385  27.937  0.00  0.00    -0.218 OA
ATOM     24  N1  non d ame     -36.889  17.115  28.019  0.00  0.00    -0.123 NA
BRANCH  21  25
ATOM     25  C3  non d ame     -36.587  20.302  26.297  0.00  0.00    -0.029 C 
ATOM     26  H2  non d ame     -37.377  20.946  26.683  0.00  0.00     0.036 H 
ATOM     27  H3  non d ame     -35.623  20.647  26.672  0.00  0.00     0.036 H 
ATOM     28  H4  non d ame     -36.588  20.338  25.209  0.00  0.00     0.036 H 
ENDBRANCH  21  25
ENDBRANCH  16  19
ENDBRANCH  13  15
BRANCH  13  29
ATOM     29  C8  non d ame     -37.167  12.633  24.079  0.00  0.00    -0.049 C 
ATOM     30  H7  non d ame     -36.100  12.422  24.022  0.00  0.00     0.030 H 
ATOM     31  H8  non d ame     -37.728  11.746  23.784  0.00  0.00     0.030 H 
ATOM     32  H9  non d ame     -37.411  13.457  23.408  0.00  0.00     0.030 H 
ENDBRANCH  13  29
ENDBRANCH  10  13
ENDBRANCH   7   9
BRANCH   7  33
ATOM     33  C11 non d ame     -36.372   8.633  26.960  0.00  0.00    -0.033 C 
ATOM     34  H12 non d ame     -35.696   7.786  26.836  0.00  0.00     0.042 H 
BRANCH  33  35
ATOM     35  C12 non d ame     -37.079   8.471  28.342  0.00  0.00    -0.071 C 
ATOM     36  H13 non d ame     -36.441   8.875  29.127  0.00  0.00     0.028 H 
ATOM     37  H14 non d ame     -38.026   9.010  28.330  0.00  0.00     0.028 H 
ATOM     38  H15 non d ame     -37.265   7.414  28.533  0.00  0.00     0.028 H 
ENDBRANCH  33  35
BRANCH  33  39
ATOM     39  C13 non d ame     -37.404   8.601  25.788  0.00  0.00    -0.071 C 
ATOM     40  H16 non d ame     -36.972   8.076  24.936  0.00  0.00     0.028 H 
ATOM     41  H17 non d ame     -38.308   8.085  26.113  0.00  0.00     0.028 H 
ATOM     42  H18 non d ame     -37.655   9.621  25.497  0.00  0.00     0.028 H 
ENDBRANCH  33  39
ENDBRANCH   7  33
ENDBRANCH   4   7
ENDBRANCH   1   3
BRANCH   1  43
ATOM     43  C15 non d ame     -31.411  10.986  24.844  0.00  0.00     0.240 C 
ATOM     44  O5  non d ame     -30.690  11.029  25.788  0.00  0.00    -0.271 OA
ATOM     45  N6  non d ame     -31.435  12.120  23.878  0.00  0.00    -0.355 N 
ATOM     46  H46 non d ame     -32.039  12.092  23.069  0.00  0.00     0.162 HD
BRANCH  45  47
ATOM     47  C20 non d ame     -30.566  13.296  24.105  0.00  0.00     0.013 C 
ATOM     48  H30 non d ame     -29.840  13.033  24.874  0.00  0.00     0.072 H 
BRANCH  47  49
ATOM     49  C21 non d ame     -31.412  14.460  24.569  0.00  0.00    -0.038 C 
ATOM     50  H31 non d ame     -30.764  15.336  24.515  0.00  0.00     0.036 H 
ATOM     51  H32 non d ame     -32.323  14.418  23.973  0.00  0.00     0.036 H 
BRANCH  49  52
ATOM     52  C22 non d ame     -31.849  14.333  26.044  0.00  0.00     0.018 C 
ATOM     53  H33 non d ame     -31.386  13.418  26.412  0.00  0.00     0.048 H 
ATOM     54  H34 non d ame     -31.606  15.290  26.507  0.00  0.00     0.048 H 
BRANCH  52  55
ATOM     55  C23 non d ame     -33.380  14.144  26.230  0.00  0.00     0.259 C 
ATOM     56  O7  non d ame     -33.900  13.113  25.949  0.00  0.00    -0.265 OA
BRANCH  55  57
ATOM     57  O8  non d ame     -34.160  15.225  26.728  0.00  0.00    -0.317 OA
BRANCH  57  58
ATOM     58  C29 non d ame     -33.512  15.987  27.751  0.00  0.00     0.052 C 
ATOM     59  H47 non d ame     -34.215  16.023  28.582  0.00  0.00     0.082 H 
ATOM     60  H48 non d ame     -32.532  15.528  27.885  0.00  0.00     0.082 H 
BRANCH  58  61
ATOM     61  C35 non d ame     -33.309  17.430  27.217  0.00  0.00    -0.034 A 
ATOM     62  C30 non d ame     -33.503  17.707  25.867  0.00  0.00    -0.075 A 
ATOM     63  C31 non d ame     -33.321  19.004  25.387  0.00  0.00    -0.082 A 
ATOM     64  H49 non d ame     -33.797  16.909  25.186  0.00  0.00     0.084 H 
ATOM     65  C32 non d ame     -32.940  20.024  26.262  0.00  0.00    -0.083 A 
ATOM     66  H50 non d ame     -33.475  19.218  24.329  0.00  0.00     0.083 H 
ATOM     67  C33 non d ame     -32.744  19.743  27.607  0.00  0.00    -0.082 A 
ATOM     68  H51 non d ame     -32.796  21.041  25.895  0.00  0.00     0.083 H 
ATOM     69  C34 non d ame     -32.927  18.449  28.092  0.00  0.00    -0.075 A 
ATOM     70  H52 non d ame     -32.445  20.541  28.288  0.00  0.00     0.083 H 
ATOM     71  H53 non d ame     -32.773  18.236  29.150  0.00  0.00     0.084 H 
ENDBRANCH  58  61
ENDBRANCH  57  58
ENDBRANCH  55  57
ENDBRANCH  52  55
ENDBRANCH  49  52
ENDBRANCH  47  49
BRANCH  47  72
ATOM     72  C24 non d ame     -29.852  13.670  22.808  0.00  0.00    -0.039 C 
ATOM     73  H35 non d ame     -28.802  13.789  23.079  0.00  0.00     0.036 H 
ATOM     74  H36 non d ame     -30.145  12.907  22.086  0.00  0.00     0.036 H 
BRANCH  72  75
ATOM     75  C25 non d ame     -30.357  15.079  22.237  0.00  0.00    -0.001 C 
ATOM     76  C26 non d ame     -31.083  14.864  20.778  0.00  0.00    -0.035 C 
ATOM     77  C27 non d ame     -30.536  15.726  19.887  0.00  0.00     0.085 C 
ATOM     78  H38 non d ame     -30.829  13.884  20.375  0.00  0.00     0.036 H 
ATOM     79  H39 non d ame     -32.125  15.179  20.829  0.00  0.00     0.036 H 
ATOM     80  N5  non d ame     -29.281  16.277  20.520  0.00  0.00    -0.049 N 
ATOM     81  H40 non d ame     -30.260  15.117  19.025  0.00  0.00     0.075 H 
ATOM     82  H41 non d ame     -31.261  16.531  19.777  0.00  0.00     0.075 H 
ATOM     83  C28 non d ame     -29.373  15.903  22.088  0.00  0.00     0.193 C 
ATOM     84  H42 non d ame     -28.508  15.771  20.113  0.00  0.00     0.280 HD
ATOM     85  H43 non d ame     -29.332  17.282  20.426  0.00  0.00     0.280 HD
ATOM     86  H44 non d ame     -29.636  16.661  22.824  0.00  0.00     0.129 H 
ATOM     87  H37 non d ame     -30.904  15.655  22.984  0.00  0.00     0.046 H 
BRANCH  83  88
ATOM     88  O6  non d ame     -28.134  15.349  22.536  0.00  0.00    -0.369 OA
ATOM     89  H45 non d ame     -27.974  14.517  22.086  0.00  0.00     0.212 HD
ENDBRANCH  83  88
ENDBRANCH  72  75
ENDBRANCH  47  72
ENDBRANCH  45  47
ENDBRANCH   1  43
BRANCH   1  90
ATOM     90  C16 non d ame     -32.370   9.411  23.135  0.00  0.00    -0.035 C 
ATOM     91  H21 non d ame     -33.391   9.080  22.950  0.00  0.00     0.037 H 
ATOM     92  H22 non d ame     -31.984  10.294  22.628  0.00  0.00     0.037 H 
BRANCH  90  93
ATOM     93  C17 non d ame     -31.442   8.224  22.723  0.00  0.00    -0.059 C 
ATOM     94  H23 non d ame     -31.852   7.782  21.816  0.00  0.00     0.038 H 
BRANCH  93  95
ATOM     95  C18 non d ame     -29.986   8.696  22.409  0.00  0.00    -0.073 C 
ATOM     96  H24 non d ame     -29.434   8.816  23.341  0.00  0.00     0.028 H 
ATOM     97  H25 non d ame     -29.489   7.952  21.786  0.00  0.00     0.028 H 
ATOM     98  H26 non d ame     -30.019   9.648  21.881  0.00  0.00     0.028 H 
ENDBRANCH  93  95
BRANCH  93  99
ATOM     99  C19 non d ame     -31.440   7.133  23.798  0.00  0.00    -0.073 C 
ATOM    100  H27 non d ame     -30.700   7.376  24.562  0.00  0.00     0.028 H 
ATOM    101  H28 non d ame     -32.427   7.073  24.257  0.00  0.00     0.028 H 
ATOM    102  H29 non d ame     -31.192   6.175  23.343  0.00  0.00     0.028 H 
ENDBRANCH  93  99
ENDBRANCH  90  93
ENDBRANCH   1  90
TORSDOF 26
ENDMDL
MODEL 16
REMARK VINA RESULT:      -6.5      2.851      8.678
REMARK  26 active torsions:
REMARK  status: ('A' for Active; 'I' for Inactive)
REMARK    1  A    between atoms: C2_2  and  C3_3 
REMARK    2  A    between atoms: C4_6  and  C5_7 
REMARK       I    between atoms: C5_7  and  N2_9 
REMARK    3  A    between atoms: N2_9  and  C6_10 
REMARK    4  A    between atoms: C6_10  and  C7_11 
REMARK    5  A    between atoms: C6_10  and  C8_13 
REMARK       I    between atoms: C7_11  and  N3_14 
REMARK    6  A    between atoms: N3_14  and  C9_15 
REMARK    7  A    between atoms: C9_15  and  C10_16 
REMARK    8  A    between atoms: C9_15  and  C11_18 
REMARK       I    between atoms: C10_16  and  N4_21 
REMARK    9  A    between atoms: C11_18  and  C12_19 
REMARK   10  A    between atoms: C11_18  and  C13_20 
REMARK   11  A    between atoms: N4_21  and  C14_22 
REMARK   12  A    between atoms: C14_22  and  C15_23 
REMARK   13  A    between atoms: C14_22  and  C16_25 
REMARK       I    between atoms: C15_23  and  N6_40 
REMARK   14  A    between atoms: C16_25  and  C17_26 
REMARK   15  A    between atoms: C17_26  and  C18_27 
REMARK   16  A    between atoms: C17_26  and  C19_28 
REMARK   17  A    between atoms: C20_29  and  C21_30 
REMARK   18  A    between atoms: C20_29  and  C24_33 
REMARK   19  A    between atoms: C20_29  and  N6_40 
REMARK   20  A    between atoms: C21_30  and  C22_31 
REMARK   21  A    between atoms: C22_31  and  C23_32 
REMARK   22  A    between atoms: C23_32  and  O8_43 
REMARK   23  A    between atoms: C24_33  and  C25_34 
REMARK   24  A    between atoms: C28_38  and  O6_39 
REMARK   25  A    between atoms: C29_42  and  O8_43 
REMARK   26  A    between atoms: C29_42  and  C35_49 
ROOT
ATOM      1  C14 non d ame     -35.597   9.663  29.575  0.00  0.00     0.089 C 
ATOM      2  H20 non d ame     -35.103   8.719  29.808  0.00  0.00     0.087 H 
ENDROOT
BRANCH   1   3
ATOM      3  N4  non d ame     -34.563  10.679  29.452  0.00  0.00    -0.346 N 
ATOM      4  C10 non d ame     -33.202  10.320  28.910  0.00  0.00     0.241 C 
ATOM      5  O4  non d ame     -32.961   9.205  28.583  0.00  0.00    -0.271 OA
ATOM      6  H19 non d ame     -34.787  11.622  29.739  0.00  0.00     0.163 HD
BRANCH   4   7
ATOM      7  C9  non d ame     -32.146  11.386  28.785  0.00  0.00     0.092 C 
ATOM      8  H11 non d ame     -31.196  10.921  28.522  0.00  0.00     0.088 H 
BRANCH   7   9
ATOM      9  N3  non d ame     -32.499  12.299  27.694  0.00  0.00    -0.346 N 
ATOM     10  C7  non d ame     -31.692  12.341  26.500  0.00  0.00     0.240 C 
ATOM     11  O3  non d ame     -30.754  11.647  26.400  0.00  0.00    -0.271 OA
ATOM     12  H10 non d ame     -33.304  12.904  27.766  0.00  0.00     0.163 HD
BRANCH  10  13
ATOM     13  C6  non d ame     -32.071  13.317  25.343  0.00  0.00     0.086 C 
ATOM     14  H6  non d ame     -33.089  13.168  24.982  0.00  0.00     0.086 H 
BRANCH  13  15
ATOM     15  N2  non d ame     -32.000  14.682  25.836  0.00  0.00    -0.343 N 
ATOM     16  C5  non d ame     -33.169  15.273  26.492  0.00  0.00     0.273 C 
ATOM     17  O2  non d ame     -34.161  14.643  26.616  0.00  0.00    -0.266 OA
ATOM     18  H5  non d ame     -31.150  15.214  25.723  0.00  0.00     0.163 HD
BRANCH  16  19
ATOM     19  C4  non d ame     -33.108  16.715  27.020  0.00  0.00     0.154 A 
ATOM     20  C1  non d ame     -33.144  17.920  26.250  0.00  0.00    -0.017 A 
ATOM     21  C2  non d ame     -33.058  18.962  27.200  0.00  0.00     0.077 A 
ATOM     22  H1  non d ame     -33.218  18.024  25.168  0.00  0.00     0.091 H 
ATOM     23  O1  non d ame     -32.986  18.409  28.376  0.00  0.00    -0.218 OA
ATOM     24  N1  non d ame     -33.012  17.099  28.296  0.00  0.00    -0.123 NA
BRANCH  21  25
ATOM     25  C3  non d ame     -33.055  20.456  26.903  0.00  0.00    -0.029 C 
ATOM     26  H2  non d ame     -32.296  20.675  26.152  0.00  0.00     0.036 H 
ATOM     27  H3  non d ame     -34.033  20.754  26.528  0.00  0.00     0.036 H 
ATOM     28  H4  non d ame     -32.831  21.007  27.815  0.00  0.00     0.036 H 
ENDBRANCH  21  25
ENDBRANCH  16  19
ENDBRANCH  13  15
BRANCH  13  29
ATOM     29  C8  non d ame     -31.113  13.133  24.192  0.00  0.00    -0.049 C 
ATOM     30  H7  non d ame     -30.323  13.881  24.255  0.00  0.00     0.030 H 
ATOM     31  H8  non d ame     -30.675  12.136  24.241  0.00  0.00     0.030 H 
ATOM     32  H9  non d ame     -31.650  13.248  23.251  0.00  0.00     0.030 H 
ENDBRANCH  13  29
ENDBRANCH  10  13
ENDBRANCH   7   9
BRANCH   7  33
ATOM     33  C11 non d ame     -32.055  12.185  30.118  0.00  0.00    -0.033 C 
ATOM     34  H12 non d ame     -32.872  11.849  30.758  0.00  0.00     0.042 H 
BRANCH  33  35
ATOM     35  C12 non d ame     -30.719  11.892  30.868  0.00  0.00    -0.071 C 
ATOM     36  H13 non d ame     -30.038  11.361  30.203  0.00  0.00     0.028 H 
ATOM     37  H14 non d ame     -30.264  12.831  31.180  0.00  0.00     0.028 H 
ATOM     38  H15 non d ame     -30.922  11.277  31.745  0.00  0.00     0.028 H 
ENDBRANCH  33  35
BRANCH  33  39
ATOM     39  C13 non d ame     -32.239  13.716  29.866  0.00  0.00    -0.071 C 
ATOM     40  H16 non d ame     -32.831  13.868  28.963  0.00  0.00     0.028 H 
ATOM     41  H17 non d ame     -32.753  14.166  30.717  0.00  0.00     0.028 H 
ATOM     42  H18 non d ame     -31.263  14.184  29.745  0.00  0.00     0.028 H 
ENDBRANCH  33  39
ENDBRANCH   7  33
ENDBRANCH   4   7
ENDBRANCH   1   3
BRANCH   1  43
ATOM     43  C15 non d ame     -36.389   9.598  28.238  0.00  0.00     0.240 C 
ATOM     44  O5  non d ame     -37.502  10.014  28.189  0.00  0.00    -0.271 OA
ATOM     45  N6  non d ame     -35.758   9.026  27.015  0.00  0.00    -0.355 N 
ATOM     46  H46 non d ame     -34.811   8.675  27.043  0.00  0.00     0.162 HD
BRANCH  45  47
ATOM     47  C20 non d ame     -36.523   8.973  25.750  0.00  0.00     0.013 C 
ATOM     48  H30 non d ame     -37.582   9.054  25.996  0.00  0.00     0.072 H 
BRANCH  47  49
ATOM     49  C21 non d ame     -36.253   7.656  25.058  0.00  0.00    -0.038 C 
ATOM     50  H31 non d ame     -37.088   7.508  24.371  0.00  0.00     0.036 H 
ATOM     51  H32 non d ame     -35.237   7.730  24.672  0.00  0.00     0.036 H 
BRANCH  49  52
ATOM     52  C22 non d ame     -36.266   6.455  26.027  0.00  0.00     0.018 C 
ATOM     53  H33 non d ame     -36.542   6.863  26.999  0.00  0.00     0.048 H 
ATOM     54  H34 non d ame     -36.898   5.702  25.554  0.00  0.00     0.048 H 
BRANCH  52  55
ATOM     55  C23 non d ame     -34.876   5.789  26.219  0.00  0.00     0.259 C 
ATOM     56  O7  non d ame     -34.705   4.652  25.917  0.00  0.00    -0.265 OA
BRANCH  55  57
ATOM     57  O8  non d ame     -33.810   6.549  26.776  0.00  0.00    -0.317 OA
BRANCH  57  58
ATOM     58  C29 non d ame     -32.561   6.380  26.099  0.00  0.00     0.052 C 
ATOM     59  H47 non d ame     -31.795   6.679  26.814  0.00  0.00     0.082 H 
ATOM     60  H48 non d ame     -32.573   5.364  25.705  0.00  0.00     0.082 H 
BRANCH  58  61
ATOM     61  C35 non d ame     -32.527   7.368  24.902  0.00  0.00    -0.034 A 
ATOM     62  C30 non d ame     -32.620   8.738  25.128  0.00  0.00    -0.075 A 
ATOM     63  C31 non d ame     -32.590   9.626  24.053  0.00  0.00    -0.082 A 
ATOM     64  H49 non d ame     -32.718   9.116  26.145  0.00  0.00     0.084 H 
ATOM     65  C32 non d ame     -32.468   9.139  22.749  0.00  0.00    -0.083 A 
ATOM     66  H50 non d ame     -32.662  10.699  24.233  0.00  0.00     0.083 H 
ATOM     67  C33 non d ame     -32.378   7.772  22.529  0.00  0.00    -0.082 A 
ATOM     68  H51 non d ame     -32.443   9.827  21.903  0.00  0.00     0.083 H 
ATOM     69  C34 non d ame     -32.406   6.881  23.600  0.00  0.00    -0.075 A 
ATOM     70  H52 non d ame     -32.285   7.394  21.510  0.00  0.00     0.083 H 
ATOM     71  H53 non d ame     -32.334   5.808  23.419  0.00  0.00     0.084 H 
ENDBRANCH  58  61
ENDBRANCH  57  58
ENDBRANCH  55  57
ENDBRANCH  52  55
ENDBRANCH  49  52
ENDBRANCH  47  49
BRANCH  47  72
ATOM     72  C24 non d ame     -36.099  10.124  24.841  0.00  0.00    -0.039 C 
ATOM     73  H35 non d ame     -35.110  10.422  25.192  0.00  0.00     0.036 H 
ATOM     74  H36 non d ame     -36.227   9.753  23.824  0.00  0.00     0.036 H 
BRANCH  72  75
ATOM     75  C25 non d ame     -37.062  11.394  25.005  0.00  0.00    -0.001 C 
ATOM     76  C26 non d ame     -37.529  11.936  23.524  0.00  0.00    -0.035 C 
ATOM     77  C27 non d ame     -37.288  13.267  23.451  0.00  0.00     0.085 C 
ATOM     78  H38 non d ame     -36.885  11.517  22.752  0.00  0.00     0.036 H 
ATOM     79  H39 non d ame     -38.613  11.869  23.427  0.00  0.00     0.036 H 
ATOM     80  N5  non d ame     -36.399  13.620  24.619  0.00  0.00    -0.049 N 
ATOM     81  H40 non d ame     -36.731  13.412  22.524  0.00  0.00     0.075 H 
ATOM     82  H41 non d ame     -38.257  13.747  23.585  0.00  0.00     0.075 H 
ATOM     83  C28 non d ame     -36.464  12.358  25.624  0.00  0.00     0.193 C 
ATOM     84  H42 non d ame     -35.460  13.692  24.254  0.00  0.00     0.280 HD
ATOM     85  H43 non d ame     -36.826  14.415  25.073  0.00  0.00     0.280 HD
ATOM     86  H44 non d ame     -37.057  12.405  26.535  0.00  0.00     0.129 H 
ATOM     87  H37 non d ame     -37.847  11.226  25.742  0.00  0.00     0.046 H 
BRANCH  83  88
ATOM     88  O6  non d ame     -35.147  11.993  26.044  0.00  0.00    -0.369 OA
ATOM     89  H45 non d ame     -35.148  11.824  26.988  0.00  0.00     0.212 HD
ENDBRANCH  83  88
ENDBRANCH  72  75
ENDBRANCH  47  72
ENDBRANCH  45  47
ENDBRANCH   1  43
BRANCH   1  90
ATOM     90  C16 non d ame     -36.537  10.045  30.708  0.00  0.00    -0.035 C 
ATOM     91  H21 non d ame     -36.521  11.134  30.740  0.00  0.00     0.037 H 
ATOM     92  H22 non d ame     -37.468   9.520  30.500  0.00  0.00     0.037 H 
BRANCH  90  93
ATOM     93  C17 non d ame     -36.058   9.556  32.111  0.00  0.00    -0.059 C 
ATOM     94  H23 non d ame     -36.944   9.323  32.701  0.00  0.00     0.038 H 
BRANCH  93  95
ATOM     95  C18 non d ame     -35.191   8.260  32.020  0.00  0.00    -0.073 C 
ATOM     96  H24 non d ame     -35.774   7.407  32.367  0.00  0.00     0.028 H 
ATOM     97  H25 non d ame     -34.891   8.096  30.984  0.00  0.00     0.028 H 
ATOM     98  H26 non d ame     -34.303   8.371  32.641  0.00  0.00     0.028 H 
ENDBRANCH  93  95
BRANCH  93  99
ATOM     99  C19 non d ame     -35.301  10.665  32.848  0.00  0.00    -0.073 C 
ATOM    100  H27 non d ame     -34.307  10.778  32.413  0.00  0.00     0.028 H 
ATOM    101  H28 non d ame     -35.847  11.604  32.751  0.00  0.00     0.028 H 
ATOM    102  H29 non d ame     -35.210  10.406  33.902  0.00  0.00     0.028 H 
ENDBRANCH  93  99
ENDBRANCH  90  93
ENDBRANCH   1  90
TORSDOF 26
ENDMDL
MODEL 17
REMARK VINA RESULT:      -6.4      2.492      9.931
REMARK  26 active torsions:
REMARK  status: ('A' for Active; 'I' for Inactive)
REMARK    1  A    between atoms: C2_2  and  C3_3 
REMARK    2  A    between atoms: C4_6  and  C5_7 
REMARK       I    between atoms: C5_7  and  N2_9 
REMARK    3  A    between atoms: N2_9  and  C6_10 
REMARK    4  A    between atoms: C6_10  and  C7_11 
REMARK    5  A    between atoms: C6_10  and  C8_13 
REMARK       I    between atoms: C7_11  and  N3_14 
REMARK    6  A    between atoms: N3_14  and  C9_15 
REMARK    7  A    between atoms: C9_15  and  C10_16 
REMARK    8  A    between atoms: C9_15  and  C11_18 
REMARK       I    between atoms: C10_16  and  N4_21 
REMARK    9  A    between atoms: C11_18  and  C12_19 
REMARK   10  A    between atoms: C11_18  and  C13_20 
REMARK   11  A    between atoms: N4_21  and  C14_22 
REMARK   12  A    between atoms: C14_22  and  C15_23 
REMARK   13  A    between atoms: C14_22  and  C16_25 
REMARK       I    between atoms: C15_23  and  N6_40 
REMARK   14  A    between atoms: C16_25  and  C17_26 
REMARK   15  A    between atoms: C17_26  and  C18_27 
REMARK   16  A    between atoms: C17_26  and  C19_28 
REMARK   17  A    between atoms: C20_29  and  C21_30 
REMARK   18  A    between atoms: C20_29  and  C24_33 
REMARK   19  A    between atoms: C20_29  and  N6_40 
REMARK   20  A    between atoms: C21_30  and  C22_31 
REMARK   21  A    between atoms: C22_31  and  C23_32 
REMARK   22  A    between atoms: C23_32  and  O8_43 
REMARK   23  A    between atoms: C24_33  and  C25_34 
REMARK   24  A    between atoms: C28_38  and  O6_39 
REMARK   25  A    between atoms: C29_42  and  O8_43 
REMARK   26  A    between atoms: C29_42  and  C35_49 
ROOT
ATOM      1  C14 non d ame     -32.589   9.182  25.279  0.00  0.00     0.089 C 
ATOM      2  H20 non d ame     -33.468   9.607  24.794  0.00  0.00     0.087 H 
ENDROOT
BRANCH   1   3
ATOM      3  N4  non d ame     -31.712  10.286  25.639  0.00  0.00    -0.346 N 
ATOM      4  C10 non d ame     -32.273  11.519  26.304  0.00  0.00     0.241 C 
ATOM      5  O4  non d ame     -33.433  11.601  26.535  0.00  0.00    -0.271 OA
ATOM      6  H19 non d ame     -30.727  10.198  25.432  0.00  0.00     0.163 HD
BRANCH   4   7
ATOM      7  C9  non d ame     -31.349  12.649  26.675  0.00  0.00     0.092 C 
ATOM      8  H11 non d ame     -30.316  12.328  26.539  0.00  0.00     0.088 H 
BRANCH   7   9
ATOM      9  N3  non d ame     -31.574  13.781  25.772  0.00  0.00    -0.346 N 
ATOM     10  C7  non d ame     -31.195  13.682  24.384  0.00  0.00     0.240 C 
ATOM     11  O3  non d ame     -30.706  12.699  23.977  0.00  0.00    -0.271 OA
ATOM     12  H10 non d ame     -31.992  14.636  26.108  0.00  0.00     0.163 HD
BRANCH  10  13
ATOM     13  C6  non d ame     -31.433  14.892  23.428  0.00  0.00     0.086 C 
ATOM     14  H6  non d ame     -32.377  14.822  22.887  0.00  0.00     0.086 H 
BRANCH  13  15
ATOM     15  N2  non d ame     -31.496  16.111  24.217  0.00  0.00    -0.343 N 
ATOM     16  C5  non d ame     -32.763  16.504  24.839  0.00  0.00     0.273 C 
ATOM     17  O2  non d ame     -33.726  15.835  24.695  0.00  0.00    -0.266 OA
ATOM     18  H5  non d ame     -30.668  16.679  24.331  0.00  0.00     0.163 HD
BRANCH  16  19
ATOM     19  C4  non d ame     -32.842  17.789  25.677  0.00  0.00     0.154 A 
ATOM     20  C1  non d ame     -32.461  17.954  27.046  0.00  0.00    -0.017 A 
ATOM     21  C2  non d ame     -32.729  19.310  27.338  0.00  0.00     0.077 A 
ATOM     22  H1  non d ame     -32.053  17.205  27.724  0.00  0.00     0.091 H 
ATOM     23  O1  non d ame     -33.205  19.852  26.255  0.00  0.00    -0.218 OA
ATOM     24  N1  non d ame     -33.282  18.984  25.273  0.00  0.00    -0.123 NA
BRANCH  21  25
ATOM     25  C3  non d ame     -32.500  20.007  28.672  0.00  0.00    -0.029 C 
ATOM     26  H2  non d ame     -33.157  19.575  29.426  0.00  0.00     0.036 H 
ATOM     27  H3  non d ame     -31.462  19.875  28.978  0.00  0.00     0.036 H 
ATOM     28  H4  non d ame     -32.716  21.070  28.569  0.00  0.00     0.036 H 
ENDBRANCH  21  25
ENDBRANCH  16  19
ENDBRANCH  13  15
BRANCH  13  29
ATOM     29  C8  non d ame     -30.305  14.979  22.431  0.00  0.00    -0.049 C 
ATOM     30  H7  non d ame     -30.314  14.096  21.794  0.00  0.00     0.030 H 
ATOM     31  H8  non d ame     -30.431  15.871  21.818  0.00  0.00     0.030 H 
ATOM     32  H9  non d ame     -29.355  15.035  22.963  0.00  0.00     0.030 H 
ENDBRANCH  13  29
ENDBRANCH  10  13
ENDBRANCH   7   9
BRANCH   7  33
ATOM     33  C11 non d ame     -31.635  13.092  28.140  0.00  0.00    -0.033 C 
ATOM     34  H12 non d ame     -32.614  12.699  28.416  0.00  0.00     0.042 H 
BRANCH  33  35
ATOM     35  C12 non d ame     -30.590  12.490  29.131  0.00  0.00    -0.071 C 
ATOM     36  H13 non d ame     -31.079  11.758  29.773  0.00  0.00     0.028 H 
ATOM     37  H14 non d ame     -29.794  12.005  28.568  0.00  0.00     0.028 H 
ATOM     38  H15 non d ame     -30.170  13.287  29.744  0.00  0.00     0.028 H 
ENDBRANCH  33  35
BRANCH  33  39
ATOM     39  C13 non d ame     -31.691  14.650  28.252  0.00  0.00    -0.071 C 
ATOM     40  H16 non d ame     -31.842  15.081  27.262  0.00  0.00     0.028 H 
ATOM     41  H17 non d ame     -32.516  14.938  28.904  0.00  0.00     0.028 H 
ATOM     42  H18 non d ame     -30.754  15.017  28.670  0.00  0.00     0.028 H 
ENDBRANCH  33  39
ENDBRANCH   7  33
ENDBRANCH   4   7
ENDBRANCH   1   3
BRANCH   1  43
ATOM     43  C15 non d ame     -32.953   8.396  26.571  0.00  0.00     0.240 C 
ATOM     44  O5  non d ame     -32.227   7.543  26.967  0.00  0.00    -0.271 OA
ATOM     45  N6  non d ame     -34.201   8.714  27.320  0.00  0.00    -0.355 N 
ATOM     46  H46 non d ame     -34.823   9.441  26.995  0.00  0.00     0.162 HD
BRANCH  45  47
ATOM     47  C20 non d ame     -34.533   7.959  28.548  0.00  0.00     0.013 C 
ATOM     48  H30 non d ame     -33.599   7.617  28.993  0.00  0.00     0.072 H 
BRANCH  47  49
ATOM     49  C21 non d ame     -35.398   6.773  28.187  0.00  0.00    -0.038 C 
ATOM     50  H31 non d ame     -36.373   6.972  28.636  0.00  0.00     0.036 H 
ATOM     51  H32 non d ame     -35.308   6.661  27.107  0.00  0.00     0.036 H 
BRANCH  49  52
ATOM     52  C22 non d ame     -34.894   5.452  28.808  0.00  0.00     0.018 C 
ATOM     53  H33 non d ame     -35.589   4.684  28.471  0.00  0.00     0.048 H 
ATOM     54  H34 non d ame     -33.838   5.386  28.542  0.00  0.00     0.048 H 
BRANCH  52  55
ATOM     55  C23 non d ame     -34.947   5.429  30.360  0.00  0.00     0.259 C 
ATOM     56  O7  non d ame     -34.077   4.917  30.986  0.00  0.00    -0.265 OA
BRANCH  55  57
ATOM     57  O8  non d ame     -36.058   6.015  31.029  0.00  0.00    -0.317 OA
BRANCH  57  58
ATOM     58  C29 non d ame     -37.329   5.601  30.518  0.00  0.00     0.052 C 
ATOM     59  H47 non d ame     -37.130   5.195  29.527  0.00  0.00     0.082 H 
ATOM     60  H48 non d ame     -37.765   4.968  31.290  0.00  0.00     0.082 H 
BRANCH  58  61
ATOM     61  C35 non d ame     -38.217   6.865  30.361  0.00  0.00    -0.034 A 
ATOM     62  C30 non d ame     -38.293   7.795  31.394  0.00  0.00    -0.075 A 
ATOM     63  C31 non d ame     -39.091   8.930  31.253  0.00  0.00    -0.082 A 
ATOM     64  H49 non d ame     -37.730   7.634  32.312  0.00  0.00     0.084 H 
ATOM     65  C32 non d ame     -39.816   9.131  30.076  0.00  0.00    -0.083 A 
ATOM     66  H50 non d ame     -39.148   9.657  32.064  0.00  0.00     0.083 H 
ATOM     67  C33 non d ame     -39.739   8.200  29.050  0.00  0.00    -0.082 A 
ATOM     68  H51 non d ame     -40.442  10.017  29.958  0.00  0.00     0.083 H 
ATOM     69  C34 non d ame     -38.942   7.065  29.185  0.00  0.00    -0.075 A 
ATOM     70  H52 non d ame     -40.308   8.359  28.133  0.00  0.00     0.083 H 
ATOM     71  H53 non d ame     -38.885   6.338  28.374  0.00  0.00     0.084 H 
ENDBRANCH  58  61
ENDBRANCH  57  58
ENDBRANCH  55  57
ENDBRANCH  52  55
ENDBRANCH  49  52
ENDBRANCH  47  49
BRANCH  47  72
ATOM     72  C24 non d ame     -35.286   8.862  29.523  0.00  0.00    -0.039 C 
ATOM     73  H35 non d ame     -35.521   9.765  28.958  0.00  0.00     0.036 H 
ATOM     74  H36 non d ame     -36.090   8.247  29.926  0.00  0.00     0.036 H 
BRANCH  72  75
ATOM     75  C25 non d ame     -34.363   9.302  30.756  0.00  0.00    -0.001 C 
ATOM     76  C26 non d ame     -35.227   9.234  32.153  0.00  0.00    -0.035 C 
ATOM     77  C27 non d ame     -35.096  10.413  32.806  0.00  0.00     0.085 C 
ATOM     78  H38 non d ame     -36.293   9.182  31.932  0.00  0.00     0.036 H 
ATOM     79  H39 non d ame     -34.777   8.513  32.836  0.00  0.00     0.036 H 
ATOM     80  N5  non d ame     -34.492  11.393  31.829  0.00  0.00    -0.049 N 
ATOM     81  H40 non d ame     -36.112  10.729  33.044  0.00  0.00     0.075 H 
ATOM     82  H41 non d ame     -34.382  10.225  33.607  0.00  0.00     0.075 H 
ATOM     83  C28 non d ame     -33.924  10.508  30.605  0.00  0.00     0.193 C 
ATOM     84  H42 non d ame     -35.253  11.964  31.488  0.00  0.00     0.280 HD
ATOM     85  H43 non d ame     -33.712  11.825  32.304  0.00  0.00     0.280 HD
ATOM     86  H44 non d ame     -32.856  10.318  30.507  0.00  0.00     0.129 H 
ATOM     87  H37 non d ame     -33.395   8.803  30.747  0.00  0.00     0.046 H 
BRANCH  83  88
ATOM     88  O6  non d ame     -34.327  11.076  29.357  0.00  0.00    -0.369 OA
ATOM     89  H45 non d ame     -33.550  11.268  28.827  0.00  0.00     0.212 HD
ENDBRANCH  83  88
ENDBRANCH  72  75
ENDBRANCH  47  72
ENDBRANCH  45  47
ENDBRANCH   1  43
BRANCH   1  90
ATOM     90  C16 non d ame     -31.859   8.265  24.311  0.00  0.00    -0.035 C 
ATOM     91  H21 non d ame     -30.861   8.139  24.729  0.00  0.00     0.037 H 
ATOM     92  H22 non d ame     -32.510   7.400  24.187  0.00  0.00     0.037 H 
BRANCH  90  93
ATOM     93  C17 non d ame     -31.666   8.880  22.889  0.00  0.00    -0.059 C 
ATOM     94  H23 non d ame     -32.209   9.825  22.860  0.00  0.00     0.038 H 
BRANCH  93  95
ATOM     95  C18 non d ame     -30.166   9.183  22.576  0.00  0.00    -0.073 C 
ATOM     96  H24 non d ame     -29.878   8.679  21.654  0.00  0.00     0.028 H 
ATOM     97  H25 non d ame     -30.029  10.259  22.459  0.00  0.00     0.028 H 
ATOM     98  H26 non d ame     -29.544   8.825  23.396  0.00  0.00     0.028 H 
ENDBRANCH  93  95
BRANCH  93  99
ATOM     99  C19 non d ame     -32.273   7.974  21.814  0.00  0.00    -0.073 C 
ATOM    100  H27 non d ame     -32.102   6.930  22.079  0.00  0.00     0.028 H 
ATOM    101  H28 non d ame     -33.346   8.159  21.746  0.00  0.00     0.028 H 
ATOM    102  H29 non d ame     -31.807   8.187  20.853  0.00  0.00     0.028 H 
ENDBRANCH  93  99
ENDBRANCH  90  93
ENDBRANCH   1  90
TORSDOF 26
ENDMDL
MODEL 18
REMARK VINA RESULT:      -6.4      2.814      6.273
REMARK  26 active torsions:
REMARK  status: ('A' for Active; 'I' for Inactive)
REMARK    1  A    between atoms: C2_2  and  C3_3 
REMARK    2  A    between atoms: C4_6  and  C5_7 
REMARK       I    between atoms: C5_7  and  N2_9 
REMARK    3  A    between atoms: N2_9  and  C6_10 
REMARK    4  A    between atoms: C6_10  and  C7_11 
REMARK    5  A    between atoms: C6_10  and  C8_13 
REMARK       I    between atoms: C7_11  and  N3_14 
REMARK    6  A    between atoms: N3_14  and  C9_15 
REMARK    7  A    between atoms: C9_15  and  C10_16 
REMARK    8  A    between atoms: C9_15  and  C11_18 
REMARK       I    between atoms: C10_16  and  N4_21 
REMARK    9  A    between atoms: C11_18  and  C12_19 
REMARK   10  A    between atoms: C11_18  and  C13_20 
REMARK   11  A    between atoms: N4_21  and  C14_22 
REMARK   12  A    between atoms: C14_22  and  C15_23 
REMARK   13  A    between atoms: C14_22  and  C16_25 
REMARK       I    between atoms: C15_23  and  N6_40 
REMARK   14  A    between atoms: C16_25  and  C17_26 
REMARK   15  A    between atoms: C17_26  and  C18_27 
REMARK   16  A    between atoms: C17_26  and  C19_28 
REMARK   17  A    between atoms: C20_29  and  C21_30 
REMARK   18  A    between atoms: C20_29  and  C24_33 
REMARK   19  A    between atoms: C20_29  and  N6_40 
REMARK   20  A    between atoms: C21_30  and  C22_31 
REMARK   21  A    between atoms: C22_31  and  C23_32 
REMARK   22  A    between atoms: C23_32  and  O8_43 
REMARK   23  A    between atoms: C24_33  and  C25_34 
REMARK   24  A    between atoms: C28_38  and  O6_39 
REMARK   25  A    between atoms: C29_42  and  O8_43 
REMARK   26  A    between atoms: C29_42  and  C35_49 
ROOT
ATOM      1  C14 non d ame     -32.589   9.538  24.731  0.00  0.00     0.089 C 
ATOM      2  H20 non d ame     -32.305   8.699  25.367  0.00  0.00     0.087 H 
ENDROOT
BRANCH   1   3
ATOM      3  N4  non d ame     -33.947   9.917  25.089  0.00  0.00    -0.346 N 
ATOM      4  C10 non d ame     -34.504   9.568  26.447  0.00  0.00     0.241 C 
ATOM      5  O4  non d ame     -33.840   8.978  27.233  0.00  0.00    -0.271 OA
ATOM      6  H19 non d ame     -34.496  10.417  24.404  0.00  0.00     0.163 HD
BRANCH   4   7
ATOM      7  C9  non d ame     -35.910   9.975  26.801  0.00  0.00     0.092 C 
ATOM      8  H11 non d ame     -35.957  10.215  27.864  0.00  0.00     0.088 H 
BRANCH   7   9
ATOM      9  N3  non d ame     -36.268  11.190  26.065  0.00  0.00    -0.346 N 
ATOM     10  C7  non d ame     -37.044  12.221  26.710  0.00  0.00     0.240 C 
ATOM     11  O3  non d ame     -37.390  12.087  27.821  0.00  0.00    -0.271 OA
ATOM     12  H10 non d ame     -35.980  11.319  25.107  0.00  0.00     0.163 HD
BRANCH  10  13
ATOM     13  C6  non d ame     -37.426  13.511  25.921  0.00  0.00     0.086 C 
ATOM     14  H6  non d ame     -38.413  13.891  26.185  0.00  0.00     0.086 H 
BRANCH  13  15
ATOM     15  N2  non d ame     -36.475  14.561  26.248  0.00  0.00    -0.343 N 
ATOM     16  C5  non d ame     -36.955  15.806  26.853  0.00  0.00     0.273 C 
ATOM     17  O2  non d ame     -38.107  15.953  27.071  0.00  0.00    -0.266 OA
ATOM     18  H5  non d ame     -35.493  14.429  26.054  0.00  0.00     0.163 HD
BRANCH  16  19
ATOM     19  C4  non d ame     -35.961  16.924  27.205  0.00  0.00     0.154 A 
ATOM     20  C1  non d ame     -35.292  17.803  26.296  0.00  0.00    -0.017 A 
ATOM     21  C2  non d ame     -34.497  18.637  27.115  0.00  0.00     0.077 A 
ATOM     22  H1  non d ame     -35.369  17.832  25.210  0.00  0.00     0.091 H 
ATOM     23  O1  non d ame     -34.697  18.272  28.348  0.00  0.00    -0.218 OA
ATOM     24  N1  non d ame     -35.546  17.273  28.425  0.00  0.00    -0.123 NA
BRANCH  21  25
ATOM     25  C3  non d ame     -33.580  19.756  26.642  0.00  0.00    -0.029 C 
ATOM     26  H2  non d ame     -33.518  20.526  27.411  0.00  0.00     0.036 H 
ATOM     27  H3  non d ame     -32.585  19.354  26.451  0.00  0.00     0.036 H 
ATOM     28  H4  non d ame     -33.978  20.189  25.725  0.00  0.00     0.036 H 
ENDBRANCH  21  25
ENDBRANCH  16  19
ENDBRANCH  13  15
BRANCH  13  29
ATOM     29  C8  non d ame     -37.392  13.227  24.440  0.00  0.00    -0.049 C 
ATOM     30  H7  non d ame     -36.479  12.686  24.195  0.00  0.00     0.030 H 
ATOM     31  H8  non d ame     -38.257  12.621  24.168  0.00  0.00     0.030 H 
ATOM     32  H9  non d ame     -37.419  14.167  23.889  0.00  0.00     0.030 H 
ENDBRANCH  13  29
ENDBRANCH  10  13
ENDBRANCH   7   9
BRANCH   7  33
ATOM     33  C11 non d ame     -36.892   8.830  26.418  0.00  0.00    -0.033 C 
ATOM     34  H12 non d ame     -37.866   9.283  26.226  0.00  0.00     0.042 H 
BRANCH  33  35
ATOM     35  C12 non d ame     -36.444   8.109  25.108  0.00  0.00    -0.071 C 
ATOM     36  H13 non d ame     -35.398   7.817  25.194  0.00  0.00     0.028 H 
ATOM     37  H14 non d ame     -37.058   7.223  24.954  0.00  0.00     0.028 H 
ATOM     38  H15 non d ame     -36.563   8.786  24.262  0.00  0.00     0.028 H 
ENDBRANCH  33  35
BRANCH  33  39
ATOM     39  C13 non d ame     -37.056   7.815  27.595  0.00  0.00    -0.071 C 
ATOM     40  H16 non d ame     -36.131   7.773  28.170  0.00  0.00     0.028 H 
ATOM     41  H17 non d ame     -37.872   8.137  28.242  0.00  0.00     0.028 H 
ATOM     42  H18 non d ame     -37.280   6.827  27.194  0.00  0.00     0.028 H 
ENDBRANCH  33  39
ENDBRANCH   7  33
ENDBRANCH   4   7
ENDBRANCH   1   3
BRANCH   1  43
ATOM     43  C15 non d ame     -31.661  10.769  24.933  0.00  0.00     0.240 C 
ATOM     44  O5  non d ame     -31.028  10.875  25.933  0.00  0.00    -0.271 OA
ATOM     45  N6  non d ame     -31.553  11.813  23.874  0.00  0.00    -0.355 N 
ATOM     46  H46 non d ame     -32.083  11.731  23.018  0.00  0.00     0.162 HD
BRANCH  45  47
ATOM     47  C20 non d ame     -30.665  12.978  24.079  0.00  0.00     0.013 C 
ATOM     48  H30 non d ame     -29.884  12.684  24.781  0.00  0.00     0.072 H 
BRANCH  47  49
ATOM     49  C21 non d ame     -31.468  14.124  24.651  0.00  0.00    -0.038 C 
ATOM     50  H31 non d ame     -31.207  14.996  24.048  0.00  0.00     0.036 H 
ATOM     51  H32 non d ame     -32.499  13.774  24.685  0.00  0.00     0.036 H 
BRANCH  49  52
ATOM     52  C22 non d ame     -31.075  14.467  26.104  0.00  0.00     0.018 C 
ATOM     53  H33 non d ame     -31.405  13.621  26.706  0.00  0.00     0.048 H 
ATOM     54  H34 non d ame     -30.016  14.730  26.068  0.00  0.00     0.048 H 
BRANCH  52  55
ATOM     55  C23 non d ame     -31.807  15.712  26.675  0.00  0.00     0.259 C 
ATOM     56  O7  non d ame     -31.804  16.740  26.078  0.00  0.00    -0.265 OA
BRANCH  55  57
ATOM     57  O8  non d ame     -32.471  15.616  27.929  0.00  0.00    -0.317 OA
BRANCH  57  58
ATOM     58  C29 non d ame     -33.353  14.493  28.036  0.00  0.00     0.052 C 
ATOM     59  H47 non d ame     -34.248  14.868  28.531  0.00  0.00     0.082 H 
ATOM     60  H48 non d ame     -33.419  14.074  27.032  0.00  0.00     0.082 H 
BRANCH  58  61
ATOM     61  C35 non d ame     -32.682  13.444  28.963  0.00  0.00    -0.034 A 
ATOM     62  C30 non d ame     -31.700  13.840  29.865  0.00  0.00    -0.075 A 
ATOM     63  C31 non d ame     -31.097  12.897  30.698  0.00  0.00    -0.082 A 
ATOM     64  H49 non d ame     -31.402  14.886  29.920  0.00  0.00     0.084 H 
ATOM     65  C32 non d ame     -31.478  11.555  30.623  0.00  0.00    -0.083 A 
ATOM     66  H50 non d ame     -30.328  13.210  31.405  0.00  0.00     0.083 H 
ATOM     67  C33 non d ame     -32.456  11.165  29.719  0.00  0.00    -0.082 A 
ATOM     68  H51 non d ame     -31.012  10.812  31.271  0.00  0.00     0.083 H 
ATOM     69  C34 non d ame     -33.063  12.103  28.886  0.00  0.00    -0.075 A 
ATOM     70  H52 non d ame     -32.750  10.116  29.661  0.00  0.00     0.083 H 
ATOM     71  H53 non d ame     -33.831  11.789  28.179  0.00  0.00     0.084 H 
ENDBRANCH  58  61
ENDBRANCH  57  58
ENDBRANCH  55  57
ENDBRANCH  52  55
ENDBRANCH  49  52
ENDBRANCH  47  49
BRANCH  47  72
ATOM     72  C24 non d ame     -30.049  13.400  22.747  0.00  0.00    -0.039 C 
ATOM     73  H35 non d ame     -28.980  13.209  22.849  0.00  0.00     0.036 H 
ATOM     74  H36 non d ame     -30.625  12.877  21.984  0.00  0.00     0.036 H 
BRANCH  72  75
ATOM     75  C25 non d ame     -30.228  14.969  22.482  0.00  0.00    -0.001 C 
ATOM     76  C26 non d ame     -31.091  15.209  21.104  0.00  0.00    -0.035 C 
ATOM     77  C27 non d ame     -30.415  16.073  20.309  0.00  0.00     0.085 C 
ATOM     78  H38 non d ame     -31.121  14.291  20.516  0.00  0.00     0.036 H 
ATOM     79  H39 non d ame     -32.015  15.741  21.330  0.00  0.00     0.036 H 
ATOM     80  N5  non d ame     -29.019  16.188  20.872  0.00  0.00    -0.049 N 
ATOM     81  H40 non d ame     -30.365  15.592  19.332  0.00  0.00     0.075 H 
ATOM     82  H41 non d ame     -30.923  17.030  20.421  0.00  0.00     0.075 H 
ATOM     83  C28 non d ame     -29.083  15.555  22.355  0.00  0.00     0.193 C 
ATOM     84  H42 non d ame     -28.429  15.603  20.298  0.00  0.00     0.280 HD
ATOM     85  H43 non d ame     -28.824  17.177  20.952  0.00  0.00     0.280 HD
ATOM     86  H44 non d ame     -29.093  16.200  23.233  0.00  0.00     0.129 H 
ATOM     87  H37 non d ame     -30.556  15.504  23.373  0.00  0.00     0.046 H 
BRANCH  83  88
ATOM     88  O6  non d ame     -27.992  14.655  22.555  0.00  0.00    -0.369 OA
ATOM     89  H45 non d ame     -28.278  13.922  23.105  0.00  0.00     0.212 HD
ENDBRANCH  83  88
ENDBRANCH  72  75
ENDBRANCH  47  72
ENDBRANCH  45  47
ENDBRANCH   1  43
BRANCH   1  90
ATOM     90  C16 non d ame     -32.561   9.110  23.272  0.00  0.00    -0.035 C 
ATOM     91  H21 non d ame     -33.595   8.876  23.020  0.00  0.00     0.037 H 
ATOM     92  H22 non d ame     -32.041   9.910  22.747  0.00  0.00     0.037 H 
BRANCH  90  93
ATOM     93  C17 non d ame     -31.741   7.806  23.017  0.00  0.00    -0.059 C 
ATOM     94  H23 non d ame     -32.186   7.296  22.163  0.00  0.00     0.038 H 
BRANCH  93  95
ATOM     95  C18 non d ame     -30.249   8.108  22.667  0.00  0.00    -0.073 C 
ATOM     96  H24 non d ame     -29.689   8.290  23.584  0.00  0.00     0.028 H 
ATOM     97  H25 non d ame     -29.818   7.253  22.143  0.00  0.00     0.028 H 
ATOM     98  H26 non d ame     -30.196   8.989  22.028  0.00  0.00     0.028 H 
ENDBRANCH  93  95
BRANCH  93  99
ATOM     99  C19 non d ame     -31.837   6.856  24.214  0.00  0.00    -0.073 C 
ATOM    100  H27 non d ame     -30.880   6.353  24.358  0.00  0.00     0.028 H 
ATOM    101  H28 non d ame     -32.085   7.425  25.111  0.00  0.00     0.028 H 
ATOM    102  H29 non d ame     -32.613   6.115  24.029  0.00  0.00     0.028 H 
ENDBRANCH  93  99
ENDBRANCH  90  93
ENDBRANCH   1  90
TORSDOF 26
ENDMDL
MODEL 19
REMARK VINA RESULT:      -6.2      3.585      9.994
REMARK  26 active torsions:
REMARK  status: ('A' for Active; 'I' for Inactive)
REMARK    1  A    between atoms: C2_2  and  C3_3 
REMARK    2  A    between atoms: C4_6  and  C5_7 
REMARK       I    between atoms: C5_7  and  N2_9 
REMARK    3  A    between atoms: N2_9  and  C6_10 
REMARK    4  A    between atoms: C6_10  and  C7_11 
REMARK    5  A    between atoms: C6_10  and  C8_13 
REMARK       I    between atoms: C7_11  and  N3_14 
REMARK    6  A    between atoms: N3_14  and  C9_15 
REMARK    7  A    between atoms: C9_15  and  C10_16 
REMARK    8  A    between atoms: C9_15  and  C11_18 
REMARK       I    between atoms: C10_16  and  N4_21 
REMARK    9  A    between atoms: C11_18  and  C12_19 
REMARK   10  A    between atoms: C11_18  and  C13_20 
REMARK   11  A    between atoms: N4_21  and  C14_22 
REMARK   12  A    between atoms: C14_22  and  C15_23 
REMARK   13  A    between atoms: C14_22  and  C16_25 
REMARK       I    between atoms: C15_23  and  N6_40 
REMARK   14  A    between atoms: C16_25  and  C17_26 
REMARK   15  A    between atoms: C17_26  and  C18_27 
REMARK   16  A    between atoms: C17_26  and  C19_28 
REMARK   17  A    between atoms: C20_29  and  C21_30 
REMARK   18  A    between atoms: C20_29  and  C24_33 
REMARK   19  A    between atoms: C20_29  and  N6_40 
REMARK   20  A    between atoms: C21_30  and  C22_31 
REMARK   21  A    between atoms: C22_31  and  C23_32 
REMARK   22  A    between atoms: C23_32  and  O8_43 
REMARK   23  A    between atoms: C24_33  and  C25_34 
REMARK   24  A    between atoms: C28_38  and  O6_39 
REMARK   25  A    between atoms: C29_42  and  O8_43 
REMARK   26  A    between atoms: C29_42  and  C35_49 
ROOT
ATOM      1  C14 non d ame     -31.359  13.306  24.411  0.00  0.00     0.089 C 
ATOM      2  H20 non d ame     -32.192  13.499  23.734  0.00  0.00     0.087 H 
ENDROOT
BRANCH   1   3
ATOM      3  N4  non d ame     -31.420  14.300  25.473  0.00  0.00    -0.346 N 
ATOM      4  C10 non d ame     -32.462  15.389  25.439  0.00  0.00     0.241 C 
ATOM      5  O4  non d ame     -33.239  15.449  24.544  0.00  0.00    -0.271 OA
ATOM      6  H19 non d ame     -30.748  14.233  26.224  0.00  0.00     0.163 HD
BRANCH   4   7
ATOM      7  C9  non d ame     -32.513  16.405  26.550  0.00  0.00     0.092 C 
ATOM      8  H11 non d ame     -31.653  17.070  26.468  0.00  0.00     0.088 H 
BRANCH   7   9
ATOM      9  N3  non d ame     -33.715  17.230  26.403  0.00  0.00    -0.346 N 
ATOM     10  C7  non d ame     -33.591  18.644  26.143  0.00  0.00     0.240 C 
ATOM     11  O3  non d ame     -32.532  19.133  26.050  0.00  0.00    -0.271 OA
ATOM     12  H10 non d ame     -34.635  16.823  26.482  0.00  0.00     0.163 HD
BRANCH  10  13
ATOM     13  C6  non d ame     -34.874  19.518  25.990  0.00  0.00     0.086 C 
ATOM     14  H6  non d ame     -34.830  20.185  25.129  0.00  0.00     0.086 H 
BRANCH  13  15
ATOM     15  N2  non d ame     -36.018  18.645  25.782  0.00  0.00    -0.343 N 
ATOM     16  C5  non d ame     -36.939  18.916  24.676  0.00  0.00     0.273 C 
ATOM     17  O2  non d ame     -36.754  19.839  23.962  0.00  0.00    -0.266 OA
ATOM     18  H5  non d ame     -36.170  17.860  26.399  0.00  0.00     0.163 HD
BRANCH  16  19
ATOM     19  C4  non d ame     -38.151  18.000  24.443  0.00  0.00     0.154 A 
ATOM     20  C1  non d ame     -38.243  16.599  24.722  0.00  0.00    -0.017 A 
ATOM     21  C2  non d ame     -39.551  16.235  24.330  0.00  0.00     0.077 A 
ATOM     22  H1  non d ame     -37.478  15.947  25.142  0.00  0.00     0.091 H 
ATOM     23  O1  non d ame     -40.134  17.310  23.883  0.00  0.00    -0.218 OA
ATOM     24  N1  non d ame     -39.337  18.351  23.938  0.00  0.00    -0.123 NA
BRANCH  21  25
ATOM     25  C3  non d ame     -40.164  14.844  24.418  0.00  0.00    -0.029 C 
ATOM     26  H2  non d ame     -39.427  14.102  24.112  0.00  0.00     0.036 H 
ATOM     27  H3  non d ame     -40.472  14.647  25.445  0.00  0.00     0.036 H 
ATOM     28  H4  non d ame     -41.031  14.787  23.762  0.00  0.00     0.036 H 
ENDBRANCH  21  25
ENDBRANCH  16  19
ENDBRANCH  13  15
BRANCH  13  29
ATOM     29  C8  non d ame     -35.075  20.343  27.237  0.00  0.00    -0.049 C 
ATOM     30  H7  non d ame     -35.824  19.868  27.870  0.00  0.00     0.030 H 
ATOM     31  H8  non d ame     -34.133  20.413  27.781  0.00  0.00     0.030 H 
ATOM     32  H9  non d ame     -35.412  21.342  26.962  0.00  0.00     0.030 H 
ENDBRANCH  13  29
ENDBRANCH  10  13
ENDBRANCH   7   9
BRANCH   7  33
ATOM     33  C11 non d ame     -32.555  15.671  27.921  0.00  0.00    -0.033 C 
ATOM     34  H12 non d ame     -31.758  14.927  27.920  0.00  0.00     0.042 H 
BRANCH  33  35
ATOM     35  C12 non d ame     -32.279  16.653  29.102  0.00  0.00    -0.071 C 
ATOM     36  H13 non d ame     -31.207  16.828  29.186  0.00  0.00     0.028 H 
ATOM     37  H14 non d ame     -32.788  17.598  28.914  0.00  0.00     0.028 H 
ATOM     38  H15 non d ame     -32.649  16.219  30.031  0.00  0.00     0.028 H 
ENDBRANCH  33  35
BRANCH  33  39
ATOM     39  C13 non d ame     -33.913  14.922  28.114  0.00  0.00    -0.071 C 
ATOM     40  H16 non d ame     -34.679  15.392  27.496  0.00  0.00     0.028 H 
ATOM     41  H17 non d ame     -33.798  13.878  27.818  0.00  0.00     0.028 H 
ATOM     42  H18 non d ame     -34.209  14.970  29.161  0.00  0.00     0.028 H 
ENDBRANCH  33  39
ENDBRANCH   7  33
ENDBRANCH   4   7
ENDBRANCH   1   3
BRANCH   1  43
ATOM     43  C15 non d ame     -31.438  11.891  25.051  0.00  0.00     0.240 C 
ATOM     44  O5  non d ame     -30.490  11.175  25.020  0.00  0.00    -0.271 OA
ATOM     45  N6  non d ame     -32.692  11.432  25.712  0.00  0.00    -0.355 N 
ATOM     46  H46 non d ame     -33.503  12.034  25.749  0.00  0.00     0.162 HD
BRANCH  45  47
ATOM     47  C20 non d ame     -32.751  10.084  26.318  0.00  0.00     0.013 C 
ATOM     48  H30 non d ame     -32.199   9.401  25.672  0.00  0.00     0.072 H 
BRANCH  47  49
ATOM     49  C21 non d ame     -34.195   9.644  26.420  0.00  0.00    -0.038 C 
ATOM     50  H31 non d ame     -34.287   9.160  27.394  0.00  0.00     0.036 H 
ATOM     51  H32 non d ame     -34.788  10.529  26.193  0.00  0.00     0.036 H 
BRANCH  49  52
ATOM     52  C22 non d ame     -34.574   8.581  25.367  0.00  0.00     0.018 C 
ATOM     53  H33 non d ame     -33.742   7.879  25.343  0.00  0.00     0.048 H 
ATOM     54  H34 non d ame     -35.571   8.235  25.644  0.00  0.00     0.048 H 
BRANCH  52  55
ATOM     55  C23 non d ame     -34.701   9.145  23.925  0.00  0.00     0.259 C 
ATOM     56  O7  non d ame     -35.527   9.960  23.666  0.00  0.00    -0.265 OA
BRANCH  55  57
ATOM     57  O8  non d ame     -33.828   8.666  22.909  0.00  0.00    -0.317 OA
BRANCH  57  58
ATOM     58  C29 non d ame     -32.998   7.576  23.323  0.00  0.00     0.052 C 
ATOM     59  H47 non d ame     -33.070   7.546  24.409  0.00  0.00     0.082 H 
ATOM     60  H48 non d ame     -33.319   6.719  22.731  0.00  0.00     0.082 H 
BRANCH  58  61
ATOM     61  C35 non d ame     -31.533   7.916  22.938  0.00  0.00    -0.034 A 
ATOM     62  C30 non d ame     -30.536   6.956  23.075  0.00  0.00    -0.075 A 
ATOM     63  C31 non d ame     -29.220   7.261  22.729  0.00  0.00    -0.082 A 
ATOM     64  H49 non d ame     -30.785   5.964  23.453  0.00  0.00     0.084 H 
ATOM     65  C32 non d ame     -28.903   8.534  22.248  0.00  0.00    -0.083 A 
ATOM     66  H50 non d ame     -28.441   6.506  22.837  0.00  0.00     0.083 H 
ATOM     67  C33 non d ame     -29.900   9.490  22.116  0.00  0.00    -0.082 A 
ATOM     68  H51 non d ame     -27.877   8.781  21.975  0.00  0.00     0.083 H 
ATOM     69  C34 non d ame     -31.217   9.189  22.458  0.00  0.00    -0.075 A 
ATOM     70  H52 non d ame     -29.649  10.483  21.742  0.00  0.00     0.083 H 
ATOM     71  H53 non d ame     -31.995   9.945  22.350  0.00  0.00     0.084 H 
ENDBRANCH  58  61
ENDBRANCH  57  58
ENDBRANCH  55  57
ENDBRANCH  52  55
ENDBRANCH  49  52
ENDBRANCH  47  49
BRANCH  47  72
ATOM     72  C24 non d ame     -32.128  10.115  27.712  0.00  0.00    -0.039 C 
ATOM     73  H35 non d ame     -32.534   9.246  28.230  0.00  0.00     0.036 H 
ATOM     74  H36 non d ame     -31.054  10.198  27.547  0.00  0.00     0.036 H 
BRANCH  72  75
ATOM     75  C25 non d ame     -32.581  11.413  28.534  0.00  0.00    -0.001 C 
ATOM     76  C26 non d ame     -31.279  12.373  28.825  0.00  0.00    -0.035 C 
ATOM     77  C27 non d ame     -31.237  12.663  30.148  0.00  0.00     0.085 C 
ATOM     78  H38 non d ame     -30.357  11.816  28.658  0.00  0.00     0.036 H 
ATOM     79  H39 non d ame     -31.420  13.347  28.356  0.00  0.00     0.036 H 
ATOM     80  N5  non d ame     -32.198  11.724  30.836  0.00  0.00    -0.049 N 
ATOM     81  H40 non d ame     -30.221  12.428  30.466  0.00  0.00     0.075 H 
ATOM     82  H41 non d ame     -31.613  13.683  30.235  0.00  0.00     0.075 H 
ATOM     83  C28 non d ame     -33.111  11.087  29.667  0.00  0.00     0.193 C 
ATOM     84  H42 non d ame     -31.639  10.989  31.244  0.00  0.00     0.280 HD
ATOM     85  H43 non d ame     -32.785  12.298  31.426  0.00  0.00     0.280 HD
ATOM     86  H44 non d ame     -34.133  11.430  29.513  0.00  0.00     0.129 H 
ATOM     87  H37 non d ame     -33.462  11.888  28.104  0.00  0.00     0.046 H 
BRANCH  83  88
ATOM     88  O6  non d ame     -33.204   9.671  29.831  0.00  0.00    -0.369 OA
ATOM     89  H45 non d ame     -32.345   9.273  29.671  0.00  0.00     0.212 HD
ENDBRANCH  83  88
ENDBRANCH  72  75
ENDBRANCH  47  72
ENDBRANCH  45  47
ENDBRANCH   1  43
BRANCH   1  90
ATOM     90  C16 non d ame     -30.043  13.458  23.665  0.00  0.00    -0.035 C 
ATOM     91  H21 non d ame     -29.267  13.324  24.418  0.00  0.00     0.037 H 
ATOM     92  H22 non d ame     -30.108  12.769  22.823  0.00  0.00     0.037 H 
BRANCH  90  93
ATOM     93  C17 non d ame     -29.827  14.880  23.057  0.00  0.00    -0.059 C 
ATOM     94  H23 non d ame     -30.010  15.609  23.847  0.00  0.00     0.038 H 
BRANCH  93  95
ATOM     95  C18 non d ame     -28.365  15.087  22.547  0.00  0.00    -0.073 C 
ATOM     96  H24 non d ame     -27.686  15.130  23.398  0.00  0.00     0.028 H 
ATOM     97  H25 non d ame     -28.084  14.253  21.902  0.00  0.00     0.028 H 
ATOM     98  H26 non d ame     -28.304  16.017  21.984  0.00  0.00     0.028 H 
ENDBRANCH  93  95
BRANCH  93  99
ATOM     99  C19 non d ame     -30.837  15.157  21.940  0.00  0.00    -0.073 C 
ATOM    100  H27 non d ame     -30.603  16.110  21.466  0.00  0.00     0.028 H 
ATOM    101  H28 non d ame     -30.785  14.360  21.198  0.00  0.00     0.028 H 
ATOM    102  H29 non d ame     -31.842  15.196  22.360  0.00  0.00     0.028 H 
ENDBRANCH  93  99
ENDBRANCH  90  93
ENDBRANCH   1  90
TORSDOF 26
ENDMDL
MODEL 20
REMARK VINA RESULT:      -6.2      3.865     10.234
REMARK  26 active torsions:
REMARK  status: ('A' for Active; 'I' for Inactive)
REMARK    1  A    between atoms: C2_2  and  C3_3 
REMARK    2  A    between atoms: C4_6  and  C5_7 
REMARK       I    between atoms: C5_7  and  N2_9 
REMARK    3  A    between atoms: N2_9  and  C6_10 
REMARK    4  A    between atoms: C6_10  and  C7_11 
REMARK    5  A    between atoms: C6_10  and  C8_13 
REMARK       I    between atoms: C7_11  and  N3_14 
REMARK    6  A    between atoms: N3_14  and  C9_15 
REMARK    7  A    between atoms: C9_15  and  C10_16 
REMARK    8  A    between atoms: C9_15  and  C11_18 
REMARK       I    between atoms: C10_16  and  N4_21 
REMARK    9  A    between atoms: C11_18  and  C12_19 
REMARK   10  A    between atoms: C11_18  and  C13_20 
REMARK   11  A    between atoms: N4_21  and  C14_22 
REMARK   12  A    between atoms: C14_22  and  C15_23 
REMARK   13  A    between atoms: C14_22  and  C16_25 
REMARK       I    between atoms: C15_23  and  N6_40 
REMARK   14  A    between atoms: C16_25  and  C17_26 
REMARK   15  A    between atoms: C17_26  and  C18_27 
REMARK   16  A    between atoms: C17_26  and  C19_28 
REMARK   17  A    between atoms: C20_29  and  C21_30 
REMARK   18  A    between atoms: C20_29  and  C24_33 
REMARK   19  A    between atoms: C20_29  and  N6_40 
REMARK   20  A    between atoms: C21_30  and  C22_31 
REMARK   21  A    between atoms: C22_31  and  C23_32 
REMARK   22  A    between atoms: C23_32  and  O8_43 
REMARK   23  A    between atoms: C24_33  and  C25_34 
REMARK   24  A    between atoms: C28_38  and  O6_39 
REMARK   25  A    between atoms: C29_42  and  O8_43 
REMARK   26  A    between atoms: C29_42  and  C35_49 
ROOT
ATOM      1  C14 non d ame     -31.651  15.338  24.050  0.00  0.00     0.089 C 
ATOM      2  H20 non d ame     -32.502  15.112  23.407  0.00  0.00     0.087 H 
ENDROOT
BRANCH   1   3
ATOM      3  N4  non d ame     -31.938  16.592  24.731  0.00  0.00    -0.346 N 
ATOM      4  C10 non d ame     -33.338  16.900  25.202  0.00  0.00     0.241 C 
ATOM      5  O4  non d ame     -34.217  16.125  25.018  0.00  0.00    -0.271 OA
ATOM      6  H19 non d ame     -31.176  17.239  24.876  0.00  0.00     0.163 HD
BRANCH   4   7
ATOM      7  C9  non d ame     -33.615  18.200  25.910  0.00  0.00     0.092 C 
ATOM      8  H11 non d ame     -33.455  19.027  25.218  0.00  0.00     0.088 H 
BRANCH   7   9
ATOM      9  N3  non d ame     -35.021  18.243  26.320  0.00  0.00    -0.346 N 
ATOM     10  C7  non d ame     -35.965  19.040  25.575  0.00  0.00     0.240 C 
ATOM     11  O3  non d ame     -35.609  19.653  24.643  0.00  0.00    -0.271 OA
ATOM     12  H10 non d ame     -35.343  17.721  27.122  0.00  0.00     0.163 HD
BRANCH  10  13
ATOM     13  C6  non d ame     -37.460  19.085  26.017  0.00  0.00     0.086 C 
ATOM     14  H6  non d ame     -38.044  19.817  25.459  0.00  0.00     0.086 H 
BRANCH  13  15
ATOM     15  N2  non d ame     -38.066  17.788  25.762  0.00  0.00    -0.343 N 
ATOM     16  C5  non d ame     -38.617  17.498  24.436  0.00  0.00     0.273 C 
ATOM     17  O2  non d ame     -38.569  18.314  23.583  0.00  0.00    -0.266 OA
ATOM     18  H5  non d ame     -38.106  17.098  26.498  0.00  0.00     0.163 HD
BRANCH  16  19
ATOM     19  C4  non d ame     -39.259  16.131  24.151  0.00  0.00     0.154 A 
ATOM     20  C1  non d ame     -38.747  14.844  24.510  0.00  0.00    -0.017 A 
ATOM     21  C2  non d ame     -39.703  13.924  24.025  0.00  0.00     0.077 A 
ATOM     22  H1  non d ame     -37.824  14.612  25.040  0.00  0.00     0.091 H 
ATOM     23  O1  non d ame     -40.650  14.613  23.458  0.00  0.00    -0.218 OA
ATOM     24  N1  non d ame     -40.412  15.903  23.518  0.00  0.00    -0.123 NA
BRANCH  21  25
ATOM     25  C3  non d ame     -39.638  12.408  24.145  0.00  0.00    -0.029 C 
ATOM     26  H2  non d ame     -39.123  12.138  25.068  0.00  0.00     0.036 H 
ATOM     27  H3  non d ame     -40.649  12.000  24.161  0.00  0.00     0.036 H 
ATOM     28  H4  non d ame     -39.095  11.998  23.294  0.00  0.00     0.036 H 
ENDBRANCH  21  25
ENDBRANCH  16  19
ENDBRANCH  13  15
BRANCH  13  29
ATOM     29  C8  non d ame     -37.543  19.413  27.487  0.00  0.00    -0.049 C 
ATOM     30  H7  non d ame     -37.500  18.492  28.068  0.00  0.00     0.030 H 
ATOM     31  H8  non d ame     -36.706  20.055  27.762  0.00  0.00     0.030 H 
ATOM     32  H9  non d ame     -38.481  19.929  27.692  0.00  0.00     0.030 H 
ENDBRANCH  13  29
ENDBRANCH  10  13
ENDBRANCH   7   9
BRANCH   7  33
ATOM     33  C11 non d ame     -32.707  18.307  27.170  0.00  0.00    -0.033 C 
ATOM     34  H12 non d ame     -31.671  18.239  26.834  0.00  0.00     0.042 H 
BRANCH  33  35
ATOM     35  C12 non d ame     -32.879  19.686  27.880  0.00  0.00    -0.071 C 
ATOM     36  H13 non d ame     -33.353  19.538  28.850  0.00  0.00     0.028 H 
ATOM     37  H14 non d ame     -31.902  20.147  28.020  0.00  0.00     0.028 H 
ATOM     38  H15 non d ame     -33.504  20.336  27.267  0.00  0.00     0.028 H 
ENDBRANCH  33  35
BRANCH  33  39
ATOM     39  C13 non d ame     -32.974  17.125  28.155  0.00  0.00    -0.071 C 
ATOM     40  H16 non d ame     -33.092  16.200  27.590  0.00  0.00     0.028 H 
ATOM     41  H17 non d ame     -32.133  17.027  28.843  0.00  0.00     0.028 H 
ATOM     42  H18 non d ame     -33.883  17.323  28.722  0.00  0.00     0.028 H 
ENDBRANCH  33  39
ENDBRANCH   7  33
ENDBRANCH   4   7
ENDBRANCH   1   3
BRANCH   1  43
ATOM     43  C15 non d ame     -31.413  14.236  25.120  0.00  0.00     0.240 C 
ATOM     44  O5  non d ame     -30.960  14.529  26.180  0.00  0.00    -0.271 OA
ATOM     45  N6  non d ame     -31.758  12.816  24.829  0.00  0.00    -0.355 N 
ATOM     46  H46 non d ame     -32.148  12.556  23.934  0.00  0.00     0.162 HD
BRANCH  45  47
ATOM     47  C20 non d ame     -31.528  11.778  25.859  0.00  0.00     0.013 C 
ATOM     48  H30 non d ame     -30.581  11.999  26.350  0.00  0.00     0.072 H 
BRANCH  47  49
ATOM     49  C21 non d ame     -31.462  10.422  25.195  0.00  0.00    -0.038 C 
ATOM     50  H31 non d ame     -30.657   9.885  25.700  0.00  0.00     0.036 H 
ATOM     51  H32 non d ame     -32.479  10.031  25.222  0.00  0.00     0.036 H 
BRANCH  49  52
ATOM     52  C22 non d ame     -31.064  10.501  23.705  0.00  0.00     0.018 C 
ATOM     53  H33 non d ame     -31.401  11.478  23.362  0.00  0.00     0.048 H 
ATOM     54  H34 non d ame     -30.004  10.248  23.669  0.00  0.00     0.048 H 
BRANCH  52  55
ATOM     55  C23 non d ame     -31.785   9.459  22.807  0.00  0.00     0.259 C 
ATOM     56  O7  non d ame     -32.971   9.396  22.787  0.00  0.00    -0.265 OA
BRANCH  55  57
ATOM     57  O8  non d ame     -31.009   8.565  22.017  0.00  0.00    -0.317 OA
BRANCH  57  58
ATOM     58  C29 non d ame     -30.369   7.530  22.769  0.00  0.00     0.052 C 
ATOM     59  H47 non d ame     -29.622   7.101  22.102  0.00  0.00     0.082 H 
ATOM     60  H48 non d ame     -30.061   7.993  23.706  0.00  0.00     0.082 H 
BRANCH  58  61
ATOM     61  C35 non d ame     -31.429   6.441  23.085  0.00  0.00    -0.034 A 
ATOM     62  C30 non d ame     -31.815   6.206  24.401  0.00  0.00    -0.075 A 
ATOM     63  C31 non d ame     -32.767   5.227  24.684  0.00  0.00    -0.082 A 
ATOM     64  H49 non d ame     -31.372   6.787  25.209  0.00  0.00     0.084 H 
ATOM     65  C32 non d ame     -33.331   4.481  23.646  0.00  0.00    -0.083 A 
ATOM     66  H50 non d ame     -33.069   5.046  25.717  0.00  0.00     0.083 H 
ATOM     67  C33 non d ame     -32.940   4.717  22.336  0.00  0.00    -0.082 A 
ATOM     68  H51 non d ame     -34.076   3.715  23.860  0.00  0.00     0.083 H 
ATOM     69  C34 non d ame     -31.991   5.695  22.047  0.00  0.00    -0.075 A 
ATOM     70  H52 non d ame     -33.380   4.131  21.528  0.00  0.00     0.083 H 
ATOM     71  H53 non d ame     -31.690   5.875  21.015  0.00  0.00     0.084 H 
ENDBRANCH  58  61
ENDBRANCH  57  58
ENDBRANCH  55  57
ENDBRANCH  52  55
ENDBRANCH  49  52
ENDBRANCH  47  49
BRANCH  47  72
ATOM     72  C24 non d ame     -32.669  11.795  26.873  0.00  0.00    -0.039 C 
ATOM     73  H35 non d ame     -33.072  12.808  26.839  0.00  0.00     0.036 H 
ATOM     74  H36 non d ame     -33.302  10.948  26.611  0.00  0.00     0.036 H 
BRANCH  72  75
ATOM     75  C25 non d ame     -32.140  11.546  28.365  0.00  0.00    -0.001 C 
ATOM     76  C26 non d ame     -32.940  10.277  29.037  0.00  0.00    -0.035 C 
ATOM     77  C27 non d ame     -33.426  10.657  30.243  0.00  0.00     0.085 C 
ATOM     78  H38 non d ame     -33.836  10.052  28.460  0.00  0.00     0.036 H 
ATOM     79  H39 non d ame     -32.237   9.482  29.286  0.00  0.00     0.036 H 
ATOM     80  N5  non d ame     -33.315  12.161  30.309  0.00  0.00    -0.049 N 
ATOM     81  H40 non d ame     -34.481  10.380  30.233  0.00  0.00     0.075 H 
ATOM     82  H41 non d ame     -32.754  10.219  30.980  0.00  0.00     0.075 H 
ATOM     83  C28 non d ame     -32.325  12.587  29.107  0.00  0.00     0.193 C 
ATOM     84  H42 non d ame     -34.236  12.526  30.113  0.00  0.00     0.280 HD
ATOM     85  H43 non d ame     -32.864  12.376  31.188  0.00  0.00     0.280 HD
ATOM     86  H44 non d ame     -31.294  12.870  29.312  0.00  0.00     0.129 H 
ATOM     87  H37 non d ame     -31.052  11.532  28.420  0.00  0.00     0.046 H 
BRANCH  83  88
ATOM     88  O6  non d ame     -32.883  13.679  28.373  0.00  0.00    -0.369 OA
ATOM     89  H45 non d ame     -32.328  13.871  27.614  0.00  0.00     0.212 HD
ENDBRANCH  83  88
ENDBRANCH  72  75
ENDBRANCH  47  72
ENDBRANCH  45  47
ENDBRANCH   1  43
BRANCH   1  90
ATOM     90  C16 non d ame     -30.398  15.509  23.205  0.00  0.00    -0.035 C 
ATOM     91  H21 non d ame     -30.436  16.534  22.836  0.00  0.00     0.037 H 
ATOM     92  H22 non d ame     -29.574  15.191  23.842  0.00  0.00     0.037 H 
BRANCH  90  93
ATOM     93  C17 non d ame     -30.362  14.588  21.944  0.00  0.00    -0.059 C 
ATOM     94  H23 non d ame     -31.279  13.999  21.938  0.00  0.00     0.038 H 
BRANCH  93  95
ATOM     95  C18 non d ame     -30.315  15.410  20.616  0.00  0.00    -0.073 C 
ATOM     96  H24 non d ame     -31.210  15.204  20.029  0.00  0.00     0.028 H 
ATOM     97  H25 non d ame     -30.272  16.474  20.848  0.00  0.00     0.028 H 
ATOM     98  H26 non d ame     -29.432  15.127  20.044  0.00  0.00     0.028 H 
ENDBRANCH  93  95
BRANCH  93  99
ATOM     99  C19 non d ame     -29.190  13.606  22.018  0.00  0.00    -0.073 C 
ATOM    100  H27 non d ame     -29.193  13.109  22.989  0.00  0.00     0.028 H 
ATOM    101  H28 non d ame     -29.290  12.860  21.230  0.00  0.00     0.028 H 
ATOM    102  H29 non d ame     -28.254  14.147  21.888  0.00  0.00     0.028 H 
ENDBRANCH  93  99
ENDBRANCH  90  93
ENDBRANCH   1  90
TORSDOF 26
ENDMDL
