MODEL 1
REMARK VINA RESULT:      -6.9      0.000      0.000
REMARK  26 active torsions:
REMARK  status: ('A' for Active; 'I' for Inactive)
REMARK    1  A    between atoms: C2_2  and  C3_3 
REMARK    2  A    between atoms: C4_6  and  C5_7 
REMARK       I    between atoms: C5_7  and  N2_9 
REMARK    3  A    between atoms: N2_9  and  C6_10 
REMARK    4  A    between atoms: C6_10  and  C7_11 
REMARK    5  A    between atoms: C6_10  and  C8_13 
REMARK       I    between atoms: C7_11  and  N3_14 
REMARK    6  A    between atoms: N3_14  and  C9_15 
REMARK    7  A    between atoms: C9_15  and  C10_16 
REMARK    8  A    between atoms: C9_15  and  C11_18 
REMARK       I    between atoms: C10_16  and  N4_21 
REMARK    9  A    between atoms: C11_18  and  C12_19 
REMARK   10  A    between atoms: C11_18  and  C13_20 
REMARK   11  A    between atoms: N4_21  and  C14_22 
REMARK   12  A    between atoms: C14_22  and  C15_23 
REMARK   13  A    between atoms: C14_22  and  C16_25 
REMARK       I    between atoms: C15_23  and  N6_40 
REMARK   14  A    between atoms: C16_25  and  C17_26 
REMARK   15  A    between atoms: C17_26  and  C18_27 
REMARK   16  A    between atoms: C17_26  and  C19_28 
REMARK   17  A    between atoms: C20_29  and  C21_30 
REMARK   18  A    between atoms: C20_29  and  C24_33 
REMARK   19  A    between atoms: C20_29  and  N6_40 
REMARK   20  A    between atoms: C21_30  and  C22_31 
REMARK   21  A    between atoms: C22_31  and  C23_32 
REMARK   22  A    between atoms: C23_32  and  O8_43 
REMARK   23  A    between atoms: C24_33  and  C25_34 
REMARK   24  A    between atoms: C28_38  and  O6_39 
REMARK   25  A    between atoms: C29_42  and  O8_43 
REMARK   26  A    between atoms: C29_42  and  C35_49 
ROOT
ATOM      1  C14 non d ame     -31.143  14.130  24.519  0.00  0.00     0.089 C 
ATOM      2  H20 non d ame     -30.176  13.699  24.776  0.00  0.00     0.087 H 
ENDROOT
BRANCH   1   3
ATOM      3  N4  non d ame     -32.146  13.090  24.692  0.00  0.00    -0.346 N 
ATOM      4  C10 non d ame     -31.963  12.022  25.741  0.00  0.00     0.241 C 
ATOM      5  O4  non d ame     -30.999  12.018  26.431  0.00  0.00    -0.271 OA
ATOM      6  H19 non d ame     -32.959  13.110  24.092  0.00  0.00     0.163 HD
BRANCH   4   7
ATOM      7  C9  non d ame     -33.014  10.957  25.910  0.00  0.00     0.092 C 
ATOM      8  H11 non d ame     -33.184  10.786  26.973  0.00  0.00     0.088 H 
BRANCH   7   9
ATOM      9  N3  non d ame     -34.280  11.424  25.338  0.00  0.00    -0.346 N 
ATOM     10  C7  non d ame     -35.271  12.039  26.186  0.00  0.00     0.240 C 
ATOM     11  O3  non d ame     -35.067  12.164  27.332  0.00  0.00    -0.271 OA
ATOM     12  H10 non d ame     -34.472  11.321  24.352  0.00  0.00     0.163 HD
BRANCH  10  13
ATOM     13  C6  non d ame     -36.618  12.531  25.572  0.00  0.00     0.086 C 
ATOM     14  H6  non d ame     -37.476  12.315  26.209  0.00  0.00     0.086 H 
BRANCH  13  15
ATOM     15  N2  non d ame     -36.567  13.976  25.421  0.00  0.00    -0.343 N 
ATOM     16  C5  non d ame     -37.590  14.806  26.063  0.00  0.00     0.273 C 
ATOM     17  O2  non d ame     -38.451  14.301  26.695  0.00  0.00    -0.266 OA
ATOM     18  H5  non d ame     -35.830  14.399  24.875  0.00  0.00     0.163 HD
BRANCH  16  19
ATOM     19  C4  non d ame     -37.546  16.334  25.912  0.00  0.00     0.154 A 
ATOM     20  C1  non d ame     -37.145  17.079  24.758  0.00  0.00    -0.017 A 
ATOM     21  C2  non d ame     -37.285  18.434  25.133  0.00  0.00     0.077 A 
ATOM     22  H1  non d ame     -36.802  16.695  23.797  0.00  0.00     0.091 H 
ATOM     23  O1  non d ame     -37.720  18.454  26.359  0.00  0.00    -0.218 OA
ATOM     24  N1  non d ame     -37.879  17.241  26.835  0.00  0.00    -0.123 NA
BRANCH  21  25
ATOM     25  C3  non d ame     -36.984  19.646  24.261  0.00  0.00    -0.029 C 
ATOM     26  H2  non d ame     -36.125  20.181  24.666  0.00  0.00     0.036 H 
ATOM     27  H3  non d ame     -36.761  19.317  23.246  0.00  0.00     0.036 H 
ATOM     28  H4  non d ame     -37.850  20.307  24.246  0.00  0.00     0.036 H 
ENDBRANCH  21  25
ENDBRANCH  16  19
ENDBRANCH  13  15
BRANCH  13  29
ATOM     29  C8  non d ame     -36.830  11.879  24.229  0.00  0.00    -0.049 C 
ATOM     30  H7  non d ame     -35.866  11.707  23.752  0.00  0.00     0.030 H 
ATOM     31  H8  non d ame     -37.343  10.926  24.366  0.00  0.00     0.030 H 
ATOM     32  H9  non d ame     -37.437  12.531  23.600  0.00  0.00     0.030 H 
ENDBRANCH  13  29
ENDBRANCH  10  13
ENDBRANCH   7   9
BRANCH   7  33
ATOM     33  C11 non d ame     -32.562   9.662  25.174  0.00  0.00    -0.033 C 
ATOM     34  H12 non d ame     -31.519   9.795  24.886  0.00  0.00     0.042 H 
BRANCH  33  35
ATOM     35  C12 non d ame     -32.634   8.418  26.115  0.00  0.00    -0.071 C 
ATOM     36  H13 non d ame     -32.428   7.515  25.540  0.00  0.00     0.028 H 
ATOM     37  H14 non d ame     -31.895   8.520  26.908  0.00  0.00     0.028 H 
ATOM     38  H15 non d ame     -33.631   8.350  26.552  0.00  0.00     0.028 H 
ENDBRANCH  33  35
BRANCH  33  39
ATOM     39  C13 non d ame     -33.397   9.437  23.873  0.00  0.00    -0.071 C 
ATOM     40  H16 non d ame     -34.316   8.904  24.118  0.00  0.00     0.028 H 
ATOM     41  H17 non d ame     -33.643  10.401  23.427  0.00  0.00     0.028 H 
ATOM     42  H18 non d ame     -32.814   8.849  23.164  0.00  0.00     0.028 H 
ENDBRANCH  33  39
ENDBRANCH   7  33
ENDBRANCH   4   7
ENDBRANCH   1   3
BRANCH   1  43
ATOM     43  C15 non d ame     -31.513  15.332  25.433  0.00  0.00     0.240 C 
ATOM     44  O5  non d ame     -31.089  16.415  25.187  0.00  0.00    -0.271 OA
ATOM     45  N6  non d ame     -32.405  15.137  26.611  0.00  0.00    -0.355 N 
ATOM     46  H46 non d ame     -32.776  14.222  26.827  0.00  0.00     0.162 HD
BRANCH  45  47
ATOM     47  C20 non d ame     -32.750  16.290  27.471  0.00  0.00     0.013 C 
ATOM     48  H30 non d ame     -31.975  17.046  27.343  0.00  0.00     0.072 H 
BRANCH  47  49
ATOM     49  C21 non d ame     -32.801  15.841  28.913  0.00  0.00    -0.038 C 
ATOM     50  H31 non d ame     -31.897  16.239  29.378  0.00  0.00     0.036 H 
ATOM     51  H32 non d ame     -33.781  16.143  29.281  0.00  0.00     0.036 H 
BRANCH  49  52
ATOM     52  C22 non d ame     -32.730  14.307  29.067  0.00  0.00     0.018 C 
ATOM     53  H33 non d ame     -33.448  14.054  29.845  0.00  0.00     0.048 H 
ATOM     54  H34 non d ame     -32.854  13.904  28.060  0.00  0.00     0.048 H 
BRANCH  52  55
ATOM     55  C23 non d ame     -31.353  13.790  29.567  0.00  0.00     0.259 C 
ATOM     56  O7  non d ame     -30.368  13.981  28.930  0.00  0.00    -0.265 OA
BRANCH  55  57
ATOM     57  O8  non d ame     -31.282  13.070  30.793  0.00  0.00    -0.317 OA
BRANCH  57  58
ATOM     58  C29 non d ame     -31.115  11.659  30.629  0.00  0.00     0.052 C 
ATOM     59  H47 non d ame     -30.604  11.531  29.675  0.00  0.00     0.082 H 
ATOM     60  H48 non d ame     -30.648  11.308  31.549  0.00  0.00     0.082 H 
BRANCH  58  61
ATOM     61  C35 non d ame     -32.525  11.018  30.520  0.00  0.00    -0.034 A 
ATOM     62  C30 non d ame     -33.484  11.276  31.495  0.00  0.00    -0.075 A 
ATOM     63  C31 non d ame     -34.751  10.701  31.397  0.00  0.00    -0.082 A 
ATOM     64  H49 non d ame     -33.244  11.928  32.335  0.00  0.00     0.084 H 
ATOM     65  C32 non d ame     -35.055   9.863  30.321  0.00  0.00    -0.083 A 
ATOM     66  H50 non d ame     -35.500  10.906  32.162  0.00  0.00     0.083 H 
ATOM     67  C33 non d ame     -34.094   9.606  29.353  0.00  0.00    -0.082 A 
ATOM     68  H51 non d ame     -36.043   9.410  30.237  0.00  0.00     0.083 H 
ATOM     69  C34 non d ame     -32.828  10.181  29.446  0.00  0.00    -0.075 A 
ATOM     70  H52 non d ame     -34.334   8.950  28.516  0.00  0.00     0.083 H 
ATOM     71  H53 non d ame     -32.079   9.975  28.680  0.00  0.00     0.084 H 
ENDBRANCH  58  61
ENDBRANCH  57  58
ENDBRANCH  55  57
ENDBRANCH  52  55
ENDBRANCH  49  52
ENDBRANCH  47  49
BRANCH  47  72
ATOM     72  C24 non d ame     -34.110  16.851  27.062  0.00  0.00    -0.039 C 
ATOM     73  H35 non d ame     -34.348  16.370  26.113  0.00  0.00     0.036 H 
ATOM     74  H36 non d ame     -34.757  16.701  27.926  0.00  0.00     0.036 H 
BRANCH  72  75
ATOM     75  C25 non d ame     -34.043  18.428  26.790  0.00  0.00    -0.001 C 
ATOM     76  C26 non d ame     -32.493  18.956  26.933  0.00  0.00    -0.035 C 
ATOM     77  C27 non d ame     -32.469  20.017  27.775  0.00  0.00     0.085 C 
ATOM     78  H38 non d ame     -31.890  18.208  27.448  0.00  0.00     0.036 H 
ATOM     79  H39 non d ame     -32.152  19.374  25.987  0.00  0.00     0.036 H 
ATOM     80  N5  non d ame     -33.807  20.056  28.473  0.00  0.00    -0.049 N 
ATOM     81  H40 non d ame     -31.693  19.791  28.507  0.00  0.00     0.075 H 
ATOM     82  H41 non d ame     -32.376  20.894  27.136  0.00  0.00     0.075 H 
ATOM     83  C28 non d ame     -34.777  19.080  27.630  0.00  0.00     0.193 C 
ATOM     84  H42 non d ame     -33.664  19.656  29.390  0.00  0.00     0.280 HD
ATOM     85  H43 non d ame     -34.148  21.004  28.384  0.00  0.00     0.280 HD
ATOM     86  H44 non d ame     -35.530  19.491  26.959  0.00  0.00     0.129 H 
ATOM     87  H37 non d ame     -34.584  18.715  25.888  0.00  0.00     0.046 H 
BRANCH  83  88
ATOM     88  O6  non d ame     -35.488  18.209  28.513  0.00  0.00    -0.369 OA
ATOM     89  H45 non d ame     -35.474  17.316  28.161  0.00  0.00     0.212 HD
ENDBRANCH  83  88
ENDBRANCH  72  75
ENDBRANCH  47  72
ENDBRANCH  45  47
ENDBRANCH   1  43
BRANCH   1  90
ATOM     90  C16 non d ame     -31.137  14.576  23.065  0.00  0.00    -0.035 C 
ATOM     91  H21 non d ame     -31.671  13.797  22.522  0.00  0.00     0.037 H 
ATOM     92  H22 non d ame     -31.523  15.595  23.074  0.00  0.00     0.037 H 
BRANCH  90  93
ATOM     93  C17 non d ame     -29.709  14.651  22.438  0.00  0.00    -0.059 C 
ATOM     94  H23 non d ame     -29.021  14.974  23.218  0.00  0.00     0.038 H 
BRANCH  93  95
ATOM     95  C18 non d ame     -29.221  13.261  21.918  0.00  0.00    -0.073 C 
ATOM     96  H24 non d ame     -30.061  12.568  21.889  0.00  0.00     0.028 H 
ATOM     97  H25 non d ame     -28.810  13.373  20.914  0.00  0.00     0.028 H 
ATOM     98  H26 non d ame     -28.451  12.873  22.584  0.00  0.00     0.028 H 
ENDBRANCH  93  95
BRANCH  93  99
ATOM     99  C19 non d ame     -29.656  15.698  21.323  0.00  0.00    -0.073 C 
ATOM    100  H27 non d ame     -29.989  16.661  21.712  0.00  0.00     0.028 H 
ATOM    101  H28 non d ame     -28.632  15.790  20.958  0.00  0.00     0.028 H 
ATOM    102  H29 non d ame     -30.306  15.392  20.504  0.00  0.00     0.028 H 
ENDBRANCH  93  99
ENDBRANCH  90  93
ENDBRANCH   1  90
TORSDOF 26
ENDMDL
MODEL 2
REMARK VINA RESULT:      -6.9      1.706      2.742
REMARK  26 active torsions:
REMARK  status: ('A' for Active; 'I' for Inactive)
REMARK    1  A    between atoms: C2_2  and  C3_3 
REMARK    2  A    between atoms: C4_6  and  C5_7 
REMARK       I    between atoms: C5_7  and  N2_9 
REMARK    3  A    between atoms: N2_9  and  C6_10 
REMARK    4  A    between atoms: C6_10  and  C7_11 
REMARK    5  A    between atoms: C6_10  and  C8_13 
REMARK       I    between atoms: C7_11  and  N3_14 
REMARK    6  A    between atoms: N3_14  and  C9_15 
REMARK    7  A    between atoms: C9_15  and  C10_16 
REMARK    8  A    between atoms: C9_15  and  C11_18 
REMARK       I    between atoms: C10_16  and  N4_21 
REMARK    9  A    between atoms: C11_18  and  C12_19 
REMARK   10  A    between atoms: C11_18  and  C13_20 
REMARK   11  A    between atoms: N4_21  and  C14_22 
REMARK   12  A    between atoms: C14_22  and  C15_23 
REMARK   13  A    between atoms: C14_22  and  C16_25 
REMARK       I    between atoms: C15_23  and  N6_40 
REMARK   14  A    between atoms: C16_25  and  C17_26 
REMARK   15  A    between atoms: C17_26  and  C18_27 
REMARK   16  A    between atoms: C17_26  and  C19_28 
REMARK   17  A    between atoms: C20_29  and  C21_30 
REMARK   18  A    between atoms: C20_29  and  C24_33 
REMARK   19  A    between atoms: C20_29  and  N6_40 
REMARK   20  A    between atoms: C21_30  and  C22_31 
REMARK   21  A    between atoms: C22_31  and  C23_32 
REMARK   22  A    between atoms: C23_32  and  O8_43 
REMARK   23  A    between atoms: C24_33  and  C25_34 
REMARK   24  A    between atoms: C28_38  and  O6_39 
REMARK   25  A    between atoms: C29_42  and  O8_43 
REMARK   26  A    between atoms: C29_42  and  C35_49 
ROOT
ATOM      1  C14 non d ame     -30.654  14.199  23.640  0.00  0.00     0.089 C 
ATOM      2  H20 non d ame     -29.570  14.221  23.517  0.00  0.00     0.087 H 
ENDROOT
BRANCH   1   3
ATOM      3  N4  non d ame     -31.039  12.816  23.876  0.00  0.00    -0.346 N 
ATOM      4  C10 non d ame     -30.388  11.700  23.099  0.00  0.00     0.241 C 
ATOM      5  O4  non d ame     -29.559  11.940  22.285  0.00  0.00    -0.271 OA
ATOM      6  H19 non d ame     -31.748  12.634  24.572  0.00  0.00     0.163 HD
BRANCH   4   7
ATOM      7  C9  non d ame     -30.795  10.274  23.362  0.00  0.00     0.092 C 
ATOM      8  H11 non d ame     -30.376   9.951  24.315  0.00  0.00     0.088 H 
BRANCH   7   9
ATOM      9  N3  non d ame     -32.253  10.195  23.479  0.00  0.00    -0.346 N 
ATOM     10  C7  non d ame     -32.858   9.888  24.752  0.00  0.00     0.240 C 
ATOM     11  O3  non d ame     -32.186   9.700  25.692  0.00  0.00    -0.271 OA
ATOM     12  H10 non d ame     -32.846  10.353  22.678  0.00  0.00     0.163 HD
BRANCH  10  13
ATOM     13  C6  non d ame     -34.412   9.803  24.871  0.00  0.00     0.086 C 
ATOM     14  H6  non d ame     -34.738   9.267  25.762  0.00  0.00     0.086 H 
BRANCH  13  15
ATOM     15  N2  non d ame     -34.951  11.149  24.975  0.00  0.00    -0.343 N 
ATOM     16  C5  non d ame     -35.981  11.438  25.976  0.00  0.00     0.273 C 
ATOM     17  O2  non d ame     -36.371  10.580  26.690  0.00  0.00    -0.266 OA
ATOM     18  H5  non d ame     -34.615  11.874  24.358  0.00  0.00     0.163 HD
BRANCH  16  19
ATOM     19  C4  non d ame     -36.558  12.856  26.098  0.00  0.00     0.154 A 
ATOM     20  C1  non d ame     -36.224  13.998  25.303  0.00  0.00    -0.017 A 
ATOM     21  C2  non d ame     -37.025  15.044  25.813  0.00  0.00     0.077 A 
ATOM     22  H1  non d ame     -35.509  14.059  24.483  0.00  0.00     0.091 H 
ATOM     23  O1  non d ame     -37.735  14.549  26.785  0.00  0.00    -0.218 OA
ATOM     24  N1  non d ame     -37.479  13.275  26.970  0.00  0.00    -0.123 NA
BRANCH  21  25
ATOM     25  C3  non d ame     -37.053  16.483  25.315  0.00  0.00    -0.029 C 
ATOM     26  H2  non d ame     -36.822  17.157  26.139  0.00  0.00     0.036 H 
ATOM     27  H3  non d ame     -36.313  16.608  24.525  0.00  0.00     0.036 H 
ATOM     28  H4  non d ame     -38.044  16.713  24.924  0.00  0.00     0.036 H 
ENDBRANCH  21  25
ENDBRANCH  16  19
ENDBRANCH  13  15
BRANCH  13  29
ATOM     29  C8  non d ame     -34.975   9.114  23.653  0.00  0.00    -0.049 C 
ATOM     30  H7  non d ame     -34.158   8.750  23.031  0.00  0.00     0.030 H 
ATOM     31  H8  non d ame     -35.595   8.274  23.966  0.00  0.00     0.030 H 
ATOM     32  H9  non d ame     -35.579   9.820  23.083  0.00  0.00     0.030 H 
ENDBRANCH  13  29
ENDBRANCH  10  13
ENDBRANCH   7   9
BRANCH   7  33
ATOM     33  C11 non d ame     -30.323   9.374  22.182  0.00  0.00    -0.033 C 
ATOM     34  H12 non d ame     -30.141  10.024  21.326  0.00  0.00     0.042 H 
BRANCH  33  35
ATOM     35  C12 non d ame     -28.979   8.654  22.518  0.00  0.00    -0.071 C 
ATOM     36  H13 non d ame     -28.837   7.815  21.837  0.00  0.00     0.028 H 
ATOM     37  H14 non d ame     -28.154   9.357  22.406  0.00  0.00     0.028 H 
ATOM     38  H15 non d ame     -29.009   8.288  23.544  0.00  0.00     0.028 H 
ENDBRANCH  33  35
BRANCH  33  39
ATOM     39  C13 non d ame     -31.431   8.348  21.783  0.00  0.00    -0.071 C 
ATOM     40  H16 non d ame     -32.062   8.140  22.647  0.00  0.00     0.028 H 
ATOM     41  H17 non d ame     -32.040   8.764  20.980  0.00  0.00     0.028 H 
ATOM     42  H18 non d ame     -30.965   7.424  21.442  0.00  0.00     0.028 H 
ENDBRANCH  33  39
ENDBRANCH   7  33
ENDBRANCH   4   7
ENDBRANCH   1   3
BRANCH   1  43
ATOM     43  C15 non d ame     -31.126  15.059  24.846  0.00  0.00     0.240 C 
ATOM     44  O5  non d ame     -30.747  16.180  24.957  0.00  0.00    -0.271 OA
ATOM     45  N6  non d ame     -32.059  14.489  25.858  0.00  0.00    -0.355 N 
ATOM     46  H46 non d ame     -32.392  13.539  25.771  0.00  0.00     0.162 HD
BRANCH  45  47
ATOM     47  C20 non d ame     -32.501  15.319  27.000  0.00  0.00     0.013 C 
ATOM     48  H30 non d ame     -31.626  15.829  27.402  0.00  0.00     0.072 H 
BRANCH  47  49
ATOM     49  C21 non d ame     -33.112  14.430  28.059  0.00  0.00    -0.038 C 
ATOM     50  H31 non d ame     -34.184  14.636  28.034  0.00  0.00     0.036 H 
ATOM     51  H32 non d ame     -32.746  13.426  27.846  0.00  0.00     0.036 H 
BRANCH  49  52
ATOM     52  C22 non d ame     -32.634  14.778  29.484  0.00  0.00     0.018 C 
ATOM     53  H33 non d ame     -32.636  15.865  29.539  0.00  0.00     0.048 H 
ATOM     54  H34 non d ame     -33.266  14.197  30.157  0.00  0.00     0.048 H 
BRANCH  52  55
ATOM     55  C23 non d ame     -31.174  14.337  29.780  0.00  0.00     0.259 C 
ATOM     56  O7  non d ame     -30.387  15.110  30.221  0.00  0.00    -0.265 OA
BRANCH  55  57
ATOM     57  O8  non d ame     -30.781  12.997  29.504  0.00  0.00    -0.317 OA
BRANCH  57  58
ATOM     58  C29 non d ame     -30.992  12.093  30.593  0.00  0.00     0.052 C 
ATOM     59  H47 non d ame     -30.163  11.387  30.554  0.00  0.00     0.082 H 
ATOM     60  H48 non d ame     -31.136  12.719  31.473  0.00  0.00     0.082 H 
BRANCH  58  61
ATOM     61  C35 non d ame     -32.310  11.318  30.323  0.00  0.00    -0.034 A 
ATOM     62  C30 non d ame     -32.497  10.664  29.108  0.00  0.00    -0.075 A 
ATOM     63  C31 non d ame     -33.680   9.968  28.866  0.00  0.00    -0.082 A 
ATOM     64  H49 non d ame     -31.717  10.698  28.347  0.00  0.00     0.084 H 
ATOM     65  C32 non d ame     -34.680   9.929  29.842  0.00  0.00    -0.083 A 
ATOM     66  H50 non d ame     -33.823   9.456  27.913  0.00  0.00     0.083 H 
ATOM     67  C33 non d ame     -34.490  10.585  31.050  0.00  0.00    -0.082 A 
ATOM     68  H51 non d ame     -35.607   9.386  29.660  0.00  0.00     0.083 H 
ATOM     69  C34 non d ame     -33.308  11.280  31.298  0.00  0.00    -0.075 A 
ATOM     70  H52 non d ame     -35.272  10.554  31.809  0.00  0.00     0.083 H 
ATOM     71  H53 non d ame     -33.166  11.792  32.250  0.00  0.00     0.084 H 
ENDBRANCH  58  61
ENDBRANCH  57  58
ENDBRANCH  55  57
ENDBRANCH  52  55
ENDBRANCH  49  52
ENDBRANCH  47  49
BRANCH  47  72
ATOM     72  C24 non d ame     -33.537  16.337  26.528  0.00  0.00    -0.039 C 
ATOM     73  H35 non d ame     -33.244  16.598  25.510  0.00  0.00     0.036 H 
ATOM     74  H36 non d ame     -34.505  15.872  26.713  0.00  0.00     0.036 H 
BRANCH  72  75
ATOM     75  C25 non d ame     -33.486  17.682  27.396  0.00  0.00    -0.001 C 
ATOM     76  C26 non d ame     -34.986  18.040  27.963  0.00  0.00    -0.035 C 
ATOM     77  C27 non d ame     -35.276  19.326  27.653  0.00  0.00     0.085 C 
ATOM     78  H38 non d ame     -35.738  17.470  27.418  0.00  0.00     0.036 H 
ATOM     79  H39 non d ame     -34.985  18.036  29.054  0.00  0.00     0.036 H 
ATOM     80  N5  non d ame     -34.249  19.777  26.642  0.00  0.00    -0.049 N 
ATOM     81  H40 non d ame     -36.256  19.297  27.175  0.00  0.00     0.075 H 
ATOM     82  H41 non d ame     -35.136  19.888  28.576  0.00  0.00     0.075 H 
ATOM     83  C28 non d ame     -33.067  18.679  26.689  0.00  0.00     0.193 C 
ATOM     84  H42 non d ame     -34.696  19.730  25.738  0.00  0.00     0.280 HD
ATOM     85  H43 non d ame     -33.884  20.658  26.980  0.00  0.00     0.280 HD
ATOM     86  H44 non d ame     -32.127  18.898  27.194  0.00  0.00     0.129 H 
ATOM     87  H37 non d ame     -32.670  17.676  28.119  0.00  0.00     0.046 H 
BRANCH  83  88
ATOM     88  O6  non d ame     -32.706  18.286  25.363  0.00  0.00    -0.369 OA
ATOM     89  H45 non d ame     -32.029  18.878  25.027  0.00  0.00     0.212 HD
ENDBRANCH  83  88
ENDBRANCH  72  75
ENDBRANCH  47  72
ENDBRANCH  45  47
ENDBRANCH   1  43
BRANCH   1  90
ATOM     90  C16 non d ame     -31.326  14.690  22.367  0.00  0.00    -0.035 C 
ATOM     91  H21 non d ame     -31.509  13.796  21.773  0.00  0.00     0.037 H 
ATOM     92  H22 non d ame     -32.163  15.303  22.701  0.00  0.00     0.037 H 
BRANCH  90  93
ATOM     93  C17 non d ame     -30.420  15.618  21.497  0.00  0.00    -0.059 C 
ATOM     94  H23 non d ame     -30.726  16.647  21.680  0.00  0.00     0.038 H 
BRANCH  93  95
ATOM     95  C18 non d ame     -28.910  15.493  21.879  0.00  0.00    -0.073 C 
ATOM     96  H24 non d ame     -28.449  16.481  21.865  0.00  0.00     0.028 H 
ATOM     97  H25 non d ame     -28.822  15.067  22.879  0.00  0.00     0.028 H 
ATOM     98  H26 non d ame     -28.405  14.846  21.163  0.00  0.00     0.028 H 
ENDBRANCH  93  95
BRANCH  93  99
ATOM     99  C19 non d ame     -30.628  15.341  20.005  0.00  0.00    -0.073 C 
ATOM    100  H27 non d ame     -30.503  14.275  19.812  0.00  0.00     0.028 H 
ATOM    101  H28 non d ame     -31.633  15.647  19.715  0.00  0.00     0.028 H 
ATOM    102  H29 non d ame     -29.896  15.904  19.426  0.00  0.00     0.028 H 
ENDBRANCH  93  99
ENDBRANCH  90  93
ENDBRANCH   1  90
TORSDOF 26
ENDMDL
MODEL 3
REMARK VINA RESULT:      -6.9      3.582      7.457
REMARK  26 active torsions:
REMARK  status: ('A' for Active; 'I' for Inactive)
REMARK    1  A    between atoms: C2_2  and  C3_3 
REMARK    2  A    between atoms: C4_6  and  C5_7 
REMARK       I    between atoms: C5_7  and  N2_9 
REMARK    3  A    between atoms: N2_9  and  C6_10 
REMARK    4  A    between atoms: C6_10  and  C7_11 
REMARK    5  A    between atoms: C6_10  and  C8_13 
REMARK       I    between atoms: C7_11  and  N3_14 
REMARK    6  A    between atoms: N3_14  and  C9_15 
REMARK    7  A    between atoms: C9_15  and  C10_16 
REMARK    8  A    between atoms: C9_15  and  C11_18 
REMARK       I    between atoms: C10_16  and  N4_21 
REMARK    9  A    between atoms: C11_18  and  C12_19 
REMARK   10  A    between atoms: C11_18  and  C13_20 
REMARK   11  A    between atoms: N4_21  and  C14_22 
REMARK   12  A    between atoms: C14_22  and  C15_23 
REMARK   13  A    between atoms: C14_22  and  C16_25 
REMARK       I    between atoms: C15_23  and  N6_40 
REMARK   14  A    between atoms: C16_25  and  C17_26 
REMARK   15  A    between atoms: C17_26  and  C18_27 
REMARK   16  A    between atoms: C17_26  and  C19_28 
REMARK   17  A    between atoms: C20_29  and  C21_30 
REMARK   18  A    between atoms: C20_29  and  C24_33 
REMARK   19  A    between atoms: C20_29  and  N6_40 
REMARK   20  A    between atoms: C21_30  and  C22_31 
REMARK   21  A    between atoms: C22_31  and  C23_32 
REMARK   22  A    between atoms: C23_32  and  O8_43 
REMARK   23  A    between atoms: C24_33  and  C25_34 
REMARK   24  A    between atoms: C28_38  and  O6_39 
REMARK   25  A    between atoms: C29_42  and  O8_43 
REMARK   26  A    between atoms: C29_42  and  C35_49 
ROOT
ATOM      1  C14 non d ame     -32.923  10.437  25.621  0.00  0.00     0.089 C 
ATOM      2  H20 non d ame     -33.652  10.516  24.814  0.00  0.00     0.087 H 
ENDROOT
BRANCH   1   3
ATOM      3  N4  non d ame     -32.364   9.094  25.576  0.00  0.00    -0.346 N 
ATOM      4  C10 non d ame     -33.078   7.997  24.826  0.00  0.00     0.241 C 
ATOM      5  O4  non d ame     -34.102   8.218  24.269  0.00  0.00    -0.271 OA
ATOM      6  H19 non d ame     -31.493   8.926  26.058  0.00  0.00     0.163 HD
BRANCH   4   7
ATOM      7  C9  non d ame     -32.482   6.614  24.785  0.00  0.00     0.092 C 
ATOM      8  H11 non d ame     -31.417   6.675  25.012  0.00  0.00     0.088 H 
BRANCH   7   9
ATOM      9  N3  non d ame     -33.100   5.784  25.822  0.00  0.00    -0.346 N 
ATOM     10  C7  non d ame     -32.653   5.888  27.190  0.00  0.00     0.240 C 
ATOM     11  O3  non d ame     -31.795   6.633  27.472  0.00  0.00    -0.271 OA
ATOM     12  H10 non d ame     -33.840   5.136  25.594  0.00  0.00     0.163 HD
BRANCH  10  13
ATOM     13  C6  non d ame     -33.312   4.999  28.290  0.00  0.00     0.086 C 
ATOM     14  H6  non d ame     -32.680   4.879  29.170  0.00  0.00     0.086 H 
BRANCH  13  15
ATOM     15  N2  non d ame     -34.536   5.640  28.741  0.00  0.00    -0.343 N 
ATOM     16  C5  non d ame     -34.922   5.546  30.152  0.00  0.00     0.273 C 
ATOM     17  O2  non d ame     -34.242   4.951  30.913  0.00  0.00    -0.266 OA
ATOM     18  H5  non d ame     -35.113   6.144  28.083  0.00  0.00     0.163 HD
BRANCH  16  19
ATOM     19  C4  non d ame     -36.212   6.221  30.643  0.00  0.00     0.154 A 
ATOM     20  C1  non d ame     -36.487   7.624  30.701  0.00  0.00    -0.017 A 
ATOM     21  C2  non d ame     -37.797   7.717  31.222  0.00  0.00     0.077 A 
ATOM     22  H1  non d ame     -35.836   8.448  30.411  0.00  0.00     0.091 H 
ATOM     23  O1  non d ame     -38.217   6.503  31.432  0.00  0.00    -0.218 OA
ATOM     24  N1  non d ame     -37.309   5.613  31.103  0.00  0.00    -0.123 NA
BRANCH  21  25
ATOM     25  C3  non d ame     -38.573   9.000  31.485  0.00  0.00    -0.029 C 
ATOM     26  H2  non d ame     -39.491   8.997  30.896  0.00  0.00     0.036 H 
ATOM     27  H3  non d ame     -38.823   9.062  32.545  0.00  0.00     0.036 H 
ATOM     28  H4  non d ame     -37.964   9.858  31.205  0.00  0.00     0.036 H 
ENDBRANCH  21  25
ENDBRANCH  16  19
ENDBRANCH  13  15
BRANCH  13  29
ATOM     29  C8  non d ame     -33.622   3.637  27.721  0.00  0.00    -0.049 C 
ATOM     30  H7  non d ame     -33.731   2.920  28.534  0.00  0.00     0.030 H 
ATOM     31  H8  non d ame     -34.551   3.685  27.152  0.00  0.00     0.030 H 
ATOM     32  H9  non d ame     -32.810   3.324  27.065  0.00  0.00     0.030 H 
ENDBRANCH  13  29
ENDBRANCH  10  13
ENDBRANCH   7   9
BRANCH   7  33
ATOM     33  C11 non d ame     -32.746   5.977  23.389  0.00  0.00    -0.033 C 
ATOM     34  H12 non d ame     -33.580   6.514  22.936  0.00  0.00     0.042 H 
BRANCH  33  35
ATOM     35  C12 non d ame     -31.513   6.142  22.446  0.00  0.00    -0.071 C 
ATOM     36  H13 non d ame     -31.713   5.646  21.497  0.00  0.00     0.028 H 
ATOM     37  H14 non d ame     -31.330   7.202  22.271  0.00  0.00     0.028 H 
ATOM     38  H15 non d ame     -30.636   5.693  22.912  0.00  0.00     0.028 H 
ENDBRANCH  33  35
BRANCH  33  39
ATOM     39  C13 non d ame     -33.156   4.476  23.528  0.00  0.00    -0.071 C 
ATOM     40  H16 non d ame     -33.723   4.338  24.449  0.00  0.00     0.028 H 
ATOM     41  H17 non d ame     -33.771   4.187  22.675  0.00  0.00     0.028 H 
ATOM     42  H18 non d ame     -32.261   3.856  23.555  0.00  0.00     0.028 H 
ENDBRANCH  33  39
ENDBRANCH   7  33
ENDBRANCH   4   7
ENDBRANCH   1   3
BRANCH   1  43
ATOM     43  C15 non d ame     -31.763  11.461  25.466  0.00  0.00     0.240 C 
ATOM     44  O5  non d ame     -30.663  11.165  25.807  0.00  0.00    -0.271 OA
ATOM     45  N6  non d ame     -32.020  12.809  24.883  0.00  0.00    -0.355 N 
ATOM     46  H46 non d ame     -32.949  13.070  24.584  0.00  0.00     0.162 HD
BRANCH  45  47
ATOM     47  C20 non d ame     -30.906  13.771  24.740  0.00  0.00     0.013 C 
ATOM     48  H30 non d ame     -30.083  13.427  25.367  0.00  0.00     0.072 H 
BRANCH  47  49
ATOM     49  C21 non d ame     -31.365  15.138  25.195  0.00  0.00    -0.038 C 
ATOM     50  H31 non d ame     -31.011  15.241  26.222  0.00  0.00     0.036 H 
ATOM     51  H32 non d ame     -31.024  15.833  24.429  0.00  0.00     0.036 H 
BRANCH  49  52
ATOM     52  C22 non d ame     -32.902  15.267  25.249  0.00  0.00     0.018 C 
ATOM     53  H33 non d ame     -33.178  15.877  24.390  0.00  0.00     0.048 H 
ATOM     54  H34 non d ame     -33.281  14.247  25.337  0.00  0.00     0.048 H 
BRANCH  52  55
ATOM     55  C23 non d ame     -33.424  16.027  26.499  0.00  0.00     0.259 C 
ATOM     56  O7  non d ame     -34.088  17.005  26.378  0.00  0.00    -0.265 OA
BRANCH  55  57
ATOM     57  O8  non d ame     -33.086  15.549  27.797  0.00  0.00    -0.317 OA
BRANCH  57  58
ATOM     58  C29 non d ame     -33.645  14.269  28.108  0.00  0.00     0.052 C 
ATOM     59  H47 non d ame     -34.507  14.471  28.743  0.00  0.00     0.082 H 
ATOM     60  H48 non d ame     -33.777  13.764  27.152  0.00  0.00     0.082 H 
BRANCH  58  61
ATOM     61  C35 non d ame     -32.598  13.479  28.939  0.00  0.00    -0.034 A 
ATOM     62  C30 non d ame     -31.263  13.466  28.546  0.00  0.00    -0.075 A 
ATOM     63  C31 non d ame     -30.323  12.756  29.292  0.00  0.00    -0.082 A 
ATOM     64  H49 non d ame     -30.954  14.010  27.654  0.00  0.00     0.084 H 
ATOM     65  C32 non d ame     -30.722  12.056  30.433  0.00  0.00    -0.083 A 
ATOM     66  H50 non d ame     -29.277  12.749  28.982  0.00  0.00     0.083 H 
ATOM     67  C33 non d ame     -32.055  12.070  30.820  0.00  0.00    -0.082 A 
ATOM     68  H51 non d ame     -29.993  11.500  31.022  0.00  0.00     0.083 H 
ATOM     69  C34 non d ame     -32.998  12.779  30.078  0.00  0.00    -0.075 A 
ATOM     70  H52 non d ame     -32.364  11.521  31.710  0.00  0.00     0.083 H 
ATOM     71  H53 non d ame     -34.043  12.786  30.389  0.00  0.00     0.084 H 
ENDBRANCH  58  61
ENDBRANCH  57  58
ENDBRANCH  55  57
ENDBRANCH  52  55
ENDBRANCH  49  52
ENDBRANCH  47  49
BRANCH  47  72
ATOM     72  C24 non d ame     -30.466  13.841  23.279  0.00  0.00    -0.039 C 
ATOM     73  H35 non d ame     -29.519  13.302  23.236  0.00  0.00     0.036 H 
ATOM     74  H36 non d ame     -31.321  13.487  22.703  0.00  0.00     0.036 H 
BRANCH  72  75
ATOM     75  C25 non d ame     -30.177  15.347  22.818  0.00  0.00    -0.001 C 
ATOM     76  C26 non d ame     -31.279  15.808  21.689  0.00  0.00    -0.035 C 
ATOM     77  C27 non d ame     -30.621  16.313  20.618  0.00  0.00     0.085 C 
ATOM     78  H38 non d ame     -31.789  14.934  21.285  0.00  0.00     0.036 H 
ATOM     79  H39 non d ame     -31.857  16.656  22.055  0.00  0.00     0.036 H 
ATOM     80  N5  non d ame     -29.167  15.938  20.775  0.00  0.00    -0.049 N 
ATOM     81  H40 non d ame     -31.031  15.792  19.752  0.00  0.00     0.075 H 
ATOM     82  H41 non d ame     -30.719  17.396  20.699  0.00  0.00     0.075 H 
ATOM     83  C28 non d ame     -28.995  15.461  22.308  0.00  0.00     0.193 C 
ATOM     84  H42 non d ame     -29.009  15.144  20.171  0.00  0.00     0.280 HD
ATOM     85  H43 non d ame     -28.637  16.787  20.641  0.00  0.00     0.280 HD
ATOM     86  H44 non d ame     -28.525  16.114  23.042  0.00  0.00     0.129 H 
ATOM     87  H37 non d ame     -30.024  16.016  23.664  0.00  0.00     0.046 H 
BRANCH  83  88
ATOM     88  O6  non d ame     -28.264  14.234  22.363  0.00  0.00    -0.369 OA
ATOM     89  H45 non d ame     -28.875  13.495  22.330  0.00  0.00     0.212 HD
ENDBRANCH  83  88
ENDBRANCH  72  75
ENDBRANCH  47  72
ENDBRANCH  45  47
ENDBRANCH   1  43
BRANCH   1  90
ATOM     90  C16 non d ame     -33.611  10.643  26.960  0.00  0.00    -0.035 C 
ATOM     91  H21 non d ame     -32.857  11.089  27.608  0.00  0.00     0.037 H 
ATOM     92  H22 non d ame     -34.526  11.190  26.733  0.00  0.00     0.037 H 
BRANCH  90  93
ATOM     93  C17 non d ame     -34.052   9.313  27.650  0.00  0.00    -0.059 C 
ATOM     94  H23 non d ame     -33.564   8.491  27.127  0.00  0.00     0.038 H 
BRANCH  93  95
ATOM     95  C18 non d ame     -33.614   9.253  29.148  0.00  0.00    -0.073 C 
ATOM     96  H24 non d ame     -32.527   9.305  29.211  0.00  0.00     0.028 H 
ATOM     97  H25 non d ame     -34.049  10.094  29.688  0.00  0.00     0.028 H 
ATOM     98  H26 non d ame     -33.959   8.319  29.591  0.00  0.00     0.028 H 
ENDBRANCH  93  95
BRANCH  93  99
ATOM     99  C19 non d ame     -35.563   9.103  27.516  0.00  0.00    -0.073 C 
ATOM    100  H27 non d ame     -36.051   9.364  28.456  0.00  0.00     0.028 H 
ATOM    101  H28 non d ame     -35.950   9.738  26.719  0.00  0.00     0.028 H 
ATOM    102  H29 non d ame     -35.765   8.059  27.279  0.00  0.00     0.028 H 
ENDBRANCH  93  99
ENDBRANCH  90  93
ENDBRANCH   1  90
TORSDOF 26
ENDMDL
MODEL 4
REMARK VINA RESULT:      -6.7      2.554      6.727
REMARK  26 active torsions:
REMARK  status: ('A' for Active; 'I' for Inactive)
REMARK    1  A    between atoms: C2_2  and  C3_3 
REMARK    2  A    between atoms: C4_6  and  C5_7 
REMARK       I    between atoms: C5_7  and  N2_9 
REMARK    3  A    between atoms: N2_9  and  C6_10 
REMARK    4  A    between atoms: C6_10  and  C7_11 
REMARK    5  A    between atoms: C6_10  and  C8_13 
REMARK       I    between atoms: C7_11  and  N3_14 
REMARK    6  A    between atoms: N3_14  and  C9_15 
REMARK    7  A    between atoms: C9_15  and  C10_16 
REMARK    8  A    between atoms: C9_15  and  C11_18 
REMARK       I    between atoms: C10_16  and  N4_21 
REMARK    9  A    between atoms: C11_18  and  C12_19 
REMARK   10  A    between atoms: C11_18  and  C13_20 
REMARK   11  A    between atoms: N4_21  and  C14_22 
REMARK   12  A    between atoms: C14_22  and  C15_23 
REMARK   13  A    between atoms: C14_22  and  C16_25 
REMARK       I    between atoms: C15_23  and  N6_40 
REMARK   14  A    between atoms: C16_25  and  C17_26 
REMARK   15  A    between atoms: C17_26  and  C18_27 
REMARK   16  A    between atoms: C17_26  and  C19_28 
REMARK   17  A    between atoms: C20_29  and  C21_30 
REMARK   18  A    between atoms: C20_29  and  C24_33 
REMARK   19  A    between atoms: C20_29  and  N6_40 
REMARK   20  A    between atoms: C21_30  and  C22_31 
REMARK   21  A    between atoms: C22_31  and  C23_32 
REMARK   22  A    between atoms: C23_32  and  O8_43 
REMARK   23  A    between atoms: C24_33  and  C25_34 
REMARK   24  A    between atoms: C28_38  and  O6_39 
REMARK   25  A    between atoms: C29_42  and  O8_43 
REMARK   26  A    between atoms: C29_42  and  C35_49 
ROOT
ATOM      1  C14 non d ame     -31.116  14.275  24.442  0.00  0.00     0.089 C 
ATOM      2  H20 non d ame     -30.154  14.274  24.956  0.00  0.00     0.087 H 
ENDROOT
BRANCH   1   3
ATOM      3  N4  non d ame     -31.420  12.898  24.082  0.00  0.00    -0.346 N 
ATOM      4  C10 non d ame     -31.247  11.791  25.091  0.00  0.00     0.241 C 
ATOM      5  O4  non d ame     -30.856  12.031  26.185  0.00  0.00    -0.271 OA
ATOM      6  H19 non d ame     -31.750  12.714  23.145  0.00  0.00     0.163 HD
BRANCH   4   7
ATOM      7  C9  non d ame     -31.573  10.373  24.703  0.00  0.00     0.092 C 
ATOM      8  H11 non d ame     -30.893   9.694  25.218  0.00  0.00     0.088 H 
BRANCH   7   9
ATOM      9  N3  non d ame     -32.931  10.044  25.144  0.00  0.00    -0.346 N 
ATOM     10  C7  non d ame     -33.153   8.914  26.012  0.00  0.00     0.240 C 
ATOM     11  O3  non d ame     -32.250   8.257  26.363  0.00  0.00    -0.271 OA
ATOM     12  H10 non d ame     -33.720  10.601  24.849  0.00  0.00     0.163 HD
BRANCH  10  13
ATOM     13  C6  non d ame     -34.602   8.567  26.477  0.00  0.00     0.086 C 
ATOM     14  H6  non d ame     -34.785   7.494  26.521  0.00  0.00     0.086 H 
BRANCH  13  15
ATOM     15  N2  non d ame     -34.799   9.078  27.824  0.00  0.00    -0.343 N 
ATOM     16  C5  non d ame     -34.646   8.175  28.967  0.00  0.00     0.273 C 
ATOM     17  O2  non d ame     -34.367   7.040  28.792  0.00  0.00    -0.266 OA
ATOM     18  H5  non d ame     -35.041  10.048  27.963  0.00  0.00     0.163 HD
BRANCH  16  19
ATOM     19  C4  non d ame     -34.850   8.701  30.396  0.00  0.00     0.154 A 
ATOM     20  C1  non d ame     -35.138  10.046  30.789  0.00  0.00    -0.017 A 
ATOM     21  C2  non d ame     -35.230  10.002  32.198  0.00  0.00     0.077 A 
ATOM     22  H1  non d ame     -35.261  10.921  30.151  0.00  0.00     0.091 H 
ATOM     23  O1  non d ame     -35.021   8.770  32.561  0.00  0.00    -0.218 OA
ATOM     24  N1  non d ame     -34.796   7.993  31.527  0.00  0.00    -0.123 NA
BRANCH  21  25
ATOM     25  C3  non d ame     -35.523  11.178  33.120  0.00  0.00    -0.029 C 
ATOM     26  H2  non d ame     -36.131  11.912  32.591  0.00  0.00     0.036 H 
ATOM     27  H3  non d ame     -36.064  10.825  33.998  0.00  0.00     0.036 H 
ATOM     28  H4  non d ame     -34.586  11.638  33.431  0.00  0.00     0.036 H 
ENDBRANCH  21  25
ENDBRANCH  16  19
ENDBRANCH  13  15
BRANCH  13  29
ATOM     29  C8  non d ame     -35.598   9.195  25.536  0.00  0.00    -0.049 C 
ATOM     30  H7  non d ame     -36.406   8.491  25.339  0.00  0.00     0.030 H 
ATOM     31  H8  non d ame     -36.007  10.099  25.990  0.00  0.00     0.030 H 
ATOM     32  H9  non d ame     -35.103   9.451  24.599  0.00  0.00     0.030 H 
ENDBRANCH  13  29
ENDBRANCH  10  13
ENDBRANCH   7   9
BRANCH   7  33
ATOM     33  C11 non d ame     -31.483  10.225  23.156  0.00  0.00    -0.033 C 
ATOM     34  H12 non d ame     -31.857  11.151  22.715  0.00  0.00     0.042 H 
BRANCH  33  35
ATOM     35  C12 non d ame     -30.006  10.045  22.685  0.00  0.00    -0.071 C 
ATOM     36  H13 non d ame     -29.968   9.307  21.884  0.00  0.00     0.028 H 
ATOM     37  H14 non d ame     -29.623  10.998  22.320  0.00  0.00     0.028 H 
ATOM     38  H15 non d ame     -29.397   9.704  23.522  0.00  0.00     0.028 H 
ENDBRANCH  33  35
BRANCH  33  39
ATOM     39  C13 non d ame     -32.385   9.053  22.652  0.00  0.00    -0.071 C 
ATOM     40  H16 non d ame     -31.756   8.243  22.282  0.00  0.00     0.028 H 
ATOM     41  H17 non d ame     -33.001   8.688  23.475  0.00  0.00     0.028 H 
ATOM     42  H18 non d ame     -33.029   9.409  21.848  0.00  0.00     0.028 H 
ENDBRANCH  33  39
ENDBRANCH   7  33
ENDBRANCH   4   7
ENDBRANCH   1   3
BRANCH   1  43
ATOM     43  C15 non d ame     -32.263  14.818  25.340  0.00  0.00     0.240 C 
ATOM     44  O5  non d ame     -33.394  14.679  25.002  0.00  0.00    -0.271 OA
ATOM     45  N6  non d ame     -31.953  15.504  26.626  0.00  0.00    -0.355 N 
ATOM     46  H46 non d ame     -30.995  15.623  26.926  0.00  0.00     0.162 HD
BRANCH  45  47
ATOM     47  C20 non d ame     -33.055  16.014  27.471  0.00  0.00     0.013 C 
ATOM     48  H30 non d ame     -33.996  15.771  26.976  0.00  0.00     0.072 H 
BRANCH  47  49
ATOM     49  C21 non d ame     -32.920  17.512  27.618  0.00  0.00    -0.038 C 
ATOM     50  H31 non d ame     -33.875  17.856  28.019  0.00  0.00     0.036 H 
ATOM     51  H32 non d ame     -32.003  17.671  28.184  0.00  0.00     0.036 H 
BRANCH  49  52
ATOM     52  C22 non d ame     -32.729  18.233  26.266  0.00  0.00     0.018 C 
ATOM     53  H33 non d ame     -31.678  18.517  26.228  0.00  0.00     0.048 H 
ATOM     54  H34 non d ame     -33.139  17.559  25.513  0.00  0.00     0.048 H 
BRANCH  52  55
ATOM     55  C23 non d ame     -33.535  19.555  26.142  0.00  0.00     0.259 C 
ATOM     56  O7  non d ame     -33.177  20.536  26.709  0.00  0.00    -0.265 OA
BRANCH  55  57
ATOM     57  O8  non d ame     -34.719  19.578  25.352  0.00  0.00    -0.317 OA
BRANCH  57  58
ATOM     58  C29 non d ame     -35.736  18.678  25.803  0.00  0.00     0.052 C 
ATOM     59  H47 non d ame     -36.482  18.655  25.009  0.00  0.00     0.082 H 
ATOM     60  H48 non d ame     -35.216  17.765  26.091  0.00  0.00     0.082 H 
BRANCH  58  61
ATOM     61  C35 non d ame     -36.390  19.291  27.071  0.00  0.00    -0.034 A 
ATOM     62  C30 non d ame     -36.964  20.557  27.016  0.00  0.00    -0.075 A 
ATOM     63  C31 non d ame     -37.551  21.108  28.155  0.00  0.00    -0.082 A 
ATOM     64  H49 non d ame     -36.954  21.118  26.082  0.00  0.00     0.084 H 
ATOM     65  C32 non d ame     -37.559  20.388  29.353  0.00  0.00    -0.083 A 
ATOM     66  H50 non d ame     -38.002  22.100  28.108  0.00  0.00     0.083 H 
ATOM     67  C33 non d ame     -36.982  19.127  29.404  0.00  0.00    -0.082 A 
ATOM     68  H51 non d ame     -38.017  20.811  30.247  0.00  0.00     0.083 H 
ATOM     69  C34 non d ame     -36.396  18.572  28.268  0.00  0.00    -0.075 A 
ATOM     70  H52 non d ame     -36.988  18.569  30.340  0.00  0.00     0.083 H 
ATOM     71  H53 non d ame     -35.946  17.580  28.316  0.00  0.00     0.084 H 
ENDBRANCH  58  61
ENDBRANCH  57  58
ENDBRANCH  55  57
ENDBRANCH  52  55
ENDBRANCH  49  52
ENDBRANCH  47  49
BRANCH  47  72
ATOM     72  C24 non d ame     -32.996  15.358  28.849  0.00  0.00    -0.039 C 
ATOM     73  H35 non d ame     -32.897  16.181  29.557  0.00  0.00     0.036 H 
ATOM     74  H36 non d ame     -33.865  14.702  28.895  0.00  0.00     0.036 H 
BRANCH  72  75
ATOM     75  C25 non d ame     -31.697  14.435  29.011  0.00  0.00    -0.001 C 
ATOM     76  C26 non d ame     -32.144  12.911  29.435  0.00  0.00    -0.035 C 
ATOM     77  C27 non d ame     -31.434  12.535  30.526  0.00  0.00     0.085 C 
ATOM     78  H38 non d ame     -33.175  12.907  29.788  0.00  0.00     0.036 H 
ATOM     79  H39 non d ame     -31.828  12.202  28.670  0.00  0.00     0.036 H 
ATOM     80  N5  non d ame     -30.786  13.780  31.080  0.00  0.00    -0.049 N 
ATOM     81  H40 non d ame     -32.172  12.170  31.242  0.00  0.00     0.075 H 
ATOM     82  H41 non d ame     -30.659  11.866  30.154  0.00  0.00     0.075 H 
ATOM     83  C28 non d ame     -30.905  14.897  29.921  0.00  0.00     0.193 C 
ATOM     84  H42 non d ame     -31.348  14.071  31.867  0.00  0.00     0.280 HD
ATOM     85  H43 non d ame     -29.809  13.558  31.213  0.00  0.00     0.280 HD
ATOM     86  H44 non d ame     -30.040  15.162  29.315  0.00  0.00     0.129 H 
ATOM     87  H37 non d ame     -31.011  14.535  28.170  0.00  0.00     0.046 H 
BRANCH  83  88
ATOM     88  O6  non d ame     -31.377  16.129  30.471  0.00  0.00    -0.369 OA
ATOM     89  H45 non d ame     -30.687  16.525  31.008  0.00  0.00     0.212 HD
ENDBRANCH  83  88
ENDBRANCH  72  75
ENDBRANCH  47  72
ENDBRANCH  45  47
ENDBRANCH   1  43
BRANCH   1  90
ATOM     90  C16 non d ame     -31.020  15.109  23.174  0.00  0.00    -0.035 C 
ATOM     91  H21 non d ame     -32.016  15.080  22.733  0.00  0.00     0.037 H 
ATOM     92  H22 non d ame     -30.591  16.061  23.486  0.00  0.00     0.037 H 
BRANCH  90  93
ATOM     93  C17 non d ame     -30.048  14.516  22.105  0.00  0.00    -0.059 C 
ATOM     94  H23 non d ame     -30.207  13.438  22.074  0.00  0.00     0.038 H 
BRANCH  93  95
ATOM     95  C18 non d ame     -30.328  15.081  20.676  0.00  0.00    -0.073 C 
ATOM     96  H24 non d ame     -30.933  15.984  20.754  0.00  0.00     0.028 H 
ATOM     97  H25 non d ame     -29.382  15.320  20.188  0.00  0.00     0.028 H 
ATOM     98  H26 non d ame     -30.861  14.335  20.088  0.00  0.00     0.028 H 
ENDBRANCH  93  95
BRANCH  93  99
ATOM     99  C19 non d ame     -28.588  14.747  22.505  0.00  0.00    -0.073 C 
ATOM    100  H27 non d ame     -27.940  14.546  21.651  0.00  0.00     0.028 H 
ATOM    101  H28 non d ame     -28.458  15.782  22.823  0.00  0.00     0.028 H 
ATOM    102  H29 non d ame     -28.326  14.081  23.326  0.00  0.00     0.028 H 
ENDBRANCH  93  99
ENDBRANCH  90  93
ENDBRANCH   1  90
TORSDOF 26
ENDMDL
MODEL 5
REMARK VINA RESULT:      -6.7      2.056      8.330
REMARK  26 active torsions:
REMARK  status: ('A' for Active; 'I' for Inactive)
REMARK    1  A    between atoms: C2_2  and  C3_3 
REMARK    2  A    between atoms: C4_6  and  C5_7 
REMARK       I    between atoms: C5_7  and  N2_9 
REMARK    3  A    between atoms: N2_9  and  C6_10 
REMARK    4  A    between atoms: C6_10  and  C7_11 
REMARK    5  A    between atoms: C6_10  and  C8_13 
REMARK       I    between atoms: C7_11  and  N3_14 
REMARK    6  A    between atoms: N3_14  and  C9_15 
REMARK    7  A    between atoms: C9_15  and  C10_16 
REMARK    8  A    between atoms: C9_15  and  C11_18 
REMARK       I    between atoms: C10_16  and  N4_21 
REMARK    9  A    between atoms: C11_18  and  C12_19 
REMARK   10  A    between atoms: C11_18  and  C13_20 
REMARK   11  A    between atoms: N4_21  and  C14_22 
REMARK   12  A    between atoms: C14_22  and  C15_23 
REMARK   13  A    between atoms: C14_22  and  C16_25 
REMARK       I    between atoms: C15_23  and  N6_40 
REMARK   14  A    between atoms: C16_25  and  C17_26 
REMARK   15  A    between atoms: C17_26  and  C18_27 
REMARK   16  A    between atoms: C17_26  and  C19_28 
REMARK   17  A    between atoms: C20_29  and  C21_30 
REMARK   18  A    between atoms: C20_29  and  C24_33 
REMARK   19  A    between atoms: C20_29  and  N6_40 
REMARK   20  A    between atoms: C21_30  and  C22_31 
REMARK   21  A    between atoms: C22_31  and  C23_32 
REMARK   22  A    between atoms: C23_32  and  O8_43 
REMARK   23  A    between atoms: C24_33  and  C25_34 
REMARK   24  A    between atoms: C28_38  and  O6_39 
REMARK   25  A    between atoms: C29_42  and  O8_43 
REMARK   26  A    between atoms: C29_42  and  C35_49 
ROOT
ATOM      1  C14 non d ame     -36.467  15.870  26.510  0.00  0.00     0.089 C 
ATOM      2  H20 non d ame     -37.095  16.428  27.205  0.00  0.00     0.087 H 
ENDROOT
BRANCH   1   3
ATOM      3  N4  non d ame     -35.084  16.056  26.924  0.00  0.00    -0.346 N 
ATOM      4  C10 non d ame     -34.711  17.190  27.846  0.00  0.00     0.241 C 
ATOM      5  O4  non d ame     -35.539  17.943  28.237  0.00  0.00    -0.271 OA
ATOM      6  H19 non d ame     -34.394  15.405  26.578  0.00  0.00     0.163 HD
BRANCH   4   7
ATOM      7  C9  non d ame     -33.276  17.362  28.269  0.00  0.00     0.092 C 
ATOM      8  H11 non d ame     -33.245  17.859  29.239  0.00  0.00     0.088 H 
BRANCH   7   9
ATOM      9  N3  non d ame     -32.653  16.047  28.435  0.00  0.00    -0.346 N 
ATOM     10  C7  non d ame     -31.753  15.809  29.537  0.00  0.00     0.240 C 
ATOM     11  O3  non d ame     -31.517  16.666  30.298  0.00  0.00    -0.271 OA
ATOM     12  H10 non d ame     -32.845  15.298  27.786  0.00  0.00     0.163 HD
BRANCH  10  13
ATOM     13  C6  non d ame     -31.090  14.406  29.707  0.00  0.00     0.086 C 
ATOM     14  H6  non d ame     -30.444  14.349  30.582  0.00  0.00     0.086 H 
BRANCH  13  15
ATOM     15  N2  non d ame     -32.134  13.412  29.895  0.00  0.00    -0.343 N 
ATOM     16  C5  non d ame     -31.821  12.161  30.590  0.00  0.00     0.273 C 
ATOM     17  O2  non d ame     -30.728  11.963  30.991  0.00  0.00    -0.266 OA
ATOM     18  H5  non d ame     -33.065  13.588  29.545  0.00  0.00     0.163 HD
BRANCH  16  19
ATOM     19  C4  non d ame     -32.915  11.102  30.796  0.00  0.00     0.154 A 
ATOM     20  C1  non d ame     -33.308  10.074  29.882  0.00  0.00    -0.017 A 
ATOM     21  C2  non d ame     -34.344   9.376  30.542  0.00  0.00     0.077 A 
ATOM     22  H1  non d ame     -32.905   9.868  28.890  0.00  0.00     0.091 H 
ATOM     23  O1  non d ame     -34.515   9.943  31.701  0.00  0.00    -0.218 OA
ATOM     24  N1  non d ame     -33.694  10.952  31.871  0.00  0.00    -0.123 NA
BRANCH  21  25
ATOM     25  C3  non d ame     -35.114   8.180  29.998  0.00  0.00    -0.029 C 
ATOM     26  H2  non d ame     -34.565   7.264  30.215  0.00  0.00     0.036 H 
ATOM     27  H3  non d ame     -36.095   8.135  30.471  0.00  0.00     0.036 H 
ATOM     28  H4  non d ame     -35.234   8.285  28.921  0.00  0.00     0.036 H 
ENDBRANCH  21  25
ENDBRANCH  16  19
ENDBRANCH  13  15
BRANCH  13  29
ATOM     29  C8  non d ame     -30.279  14.078  28.478  0.00  0.00    -0.049 C 
ATOM     30  H7  non d ame     -30.494  13.058  28.163  0.00  0.00     0.030 H 
ATOM     31  H8  non d ame     -30.541  14.769  27.676  0.00  0.00     0.030 H 
ATOM     32  H9  non d ame     -29.218  14.173  28.708  0.00  0.00     0.030 H 
ENDBRANCH  13  29
ENDBRANCH  10  13
ENDBRANCH   7   9
BRANCH   7  33
ATOM     33  C11 non d ame     -32.507  18.164  27.179  0.00  0.00    -0.033 C 
ATOM     34  H12 non d ame     -31.468  17.831  27.198  0.00  0.00     0.042 H 
BRANCH  33  35
ATOM     35  C12 non d ame     -33.068  17.869  25.753  0.00  0.00    -0.071 C 
ATOM     36  H13 non d ame     -32.286  17.419  25.141  0.00  0.00     0.028 H 
ATOM     37  H14 non d ame     -33.910  17.182  25.829  0.00  0.00     0.028 H 
ATOM     38  H15 non d ame     -33.398  18.800  25.292  0.00  0.00     0.028 H 
ENDBRANCH  33  35
BRANCH  33  39
ATOM     39  C13 non d ame     -32.528  19.695  27.490  0.00  0.00    -0.071 C 
ATOM     40  H16 non d ame     -32.773  19.849  28.542  0.00  0.00     0.028 H 
ATOM     41  H17 non d ame     -31.548  20.124  27.279  0.00  0.00     0.028 H 
ATOM     42  H18 non d ame     -33.278  20.182  26.867  0.00  0.00     0.028 H 
ENDBRANCH  33  39
ENDBRANCH   7  33
ENDBRANCH   4   7
ENDBRANCH   1   3
BRANCH   1  43
ATOM     43  C15 non d ame     -36.788  14.349  26.519  0.00  0.00     0.240 C 
ATOM     44  O5  non d ame     -37.815  13.964  26.977  0.00  0.00    -0.271 OA
ATOM     45  N6  non d ame     -35.819  13.371  25.948  0.00  0.00    -0.355 N 
ATOM     46  H46 non d ame     -34.945  13.687  25.551  0.00  0.00     0.162 HD
BRANCH  45  47
ATOM     47  C20 non d ame     -36.139  11.927  25.962  0.00  0.00     0.013 C 
ATOM     48  H30 non d ame     -37.033  11.788  26.571  0.00  0.00     0.072 H 
BRANCH  47  49
ATOM     49  C21 non d ame     -34.980  11.164  26.565  0.00  0.00    -0.038 C 
ATOM     50  H31 non d ame     -34.833  11.589  27.559  0.00  0.00     0.036 H 
ATOM     51  H32 non d ame     -35.233  10.110  26.455  0.00  0.00     0.036 H 
BRANCH  49  52
ATOM     52  C22 non d ame     -33.658  11.379  25.798  0.00  0.00     0.018 C 
ATOM     53  H33 non d ame     -33.010  10.554  26.091  0.00  0.00     0.048 H 
ATOM     54  H34 non d ame     -33.941  11.503  24.752  0.00  0.00     0.048 H 
BRANCH  52  55
ATOM     55  C23 non d ame     -32.906  12.678  26.196  0.00  0.00     0.259 C 
ATOM     56  O7  non d ame     -33.239  13.299  27.153  0.00  0.00    -0.265 OA
BRANCH  55  57
ATOM     57  O8  non d ame     -31.821  13.130  25.394  0.00  0.00    -0.317 OA
BRANCH  57  58
ATOM     58  C29 non d ame     -31.925  14.499  24.992  0.00  0.00     0.052 C 
ATOM     59  H47 non d ame     -32.989  14.682  24.842  0.00  0.00     0.082 H 
ATOM     60  H48 non d ame     -31.374  15.069  25.740  0.00  0.00     0.082 H 
BRANCH  58  61
ATOM     61  C35 non d ame     -31.203  14.654  23.626  0.00  0.00    -0.034 A 
ATOM     62  C30 non d ame     -30.381  13.636  23.155  0.00  0.00    -0.075 A 
ATOM     63  C31 non d ame     -29.732  13.775  21.928  0.00  0.00    -0.082 A 
ATOM     64  H49 non d ame     -30.243  12.730  23.745  0.00  0.00     0.084 H 
ATOM     65  C32 non d ame     -29.906  14.938  21.174  0.00  0.00    -0.083 A 
ATOM     66  H50 non d ame     -29.089  12.975  21.560  0.00  0.00     0.083 H 
ATOM     67  C33 non d ame     -30.726  15.952  21.651  0.00  0.00    -0.082 A 
ATOM     68  H51 non d ame     -29.403  15.054  20.214  0.00  0.00     0.083 H 
ATOM     69  C34 non d ame     -31.378  15.817  22.875  0.00  0.00    -0.075 A 
ATOM     70  H52 non d ame     -30.859  16.860  21.061  0.00  0.00     0.083 H 
ATOM     71  H53 non d ame     -32.021  16.618  23.242  0.00  0.00     0.084 H 
ENDBRANCH  58  61
ENDBRANCH  57  58
ENDBRANCH  55  57
ENDBRANCH  52  55
ENDBRANCH  49  52
ENDBRANCH  47  49
BRANCH  47  72
ATOM     72  C24 non d ame     -36.386  11.438  24.537  0.00  0.00    -0.039 C 
ATOM     73  H35 non d ame     -35.828  12.121  23.896  0.00  0.00     0.036 H 
ATOM     74  H36 non d ame     -36.139  10.376  24.548  0.00  0.00     0.036 H 
BRANCH  72  75
ATOM     75  C25 non d ame     -37.930  11.560  24.128  0.00  0.00    -0.001 C 
ATOM     76  C26 non d ame     -38.444  10.149  23.457  0.00  0.00    -0.035 C 
ATOM     77  C27 non d ame     -39.045  10.422  22.274  0.00  0.00     0.085 C 
ATOM     78  H38 non d ame     -37.588   9.536  23.173  0.00  0.00     0.036 H 
ATOM     79  H39 non d ame     -39.246   9.720  24.058  0.00  0.00     0.036 H 
ATOM     80  N5  non d ame     -38.698  11.848  21.922  0.00  0.00    -0.049 N 
ATOM     81  H40 non d ame     -38.579   9.753  21.550  0.00  0.00     0.075 H 
ATOM     82  H41 non d ame     -40.115  10.354  22.469  0.00  0.00     0.075 H 
ATOM     83  C28 non d ame     -38.113  12.510  23.273  0.00  0.00     0.193 C 
ATOM     84  H42 non d ame     -37.956  11.802  21.238  0.00  0.00     0.280 HD
ATOM     85  H43 non d ame     -39.570  12.305  21.691  0.00  0.00     0.280 HD
ATOM     86  H44 non d ame     -38.722  13.193  23.864  0.00  0.00     0.129 H 
ATOM     87  H37 non d ame     -38.538  11.978  24.929  0.00  0.00     0.046 H 
BRANCH  83  88
ATOM     88  O6  non d ame     -36.907  13.222  22.990  0.00  0.00    -0.369 OA
ATOM     89  H45 non d ame     -36.226  12.602  22.720  0.00  0.00     0.212 HD
ENDBRANCH  83  88
ENDBRANCH  72  75
ENDBRANCH  47  72
ENDBRANCH  45  47
ENDBRANCH   1  43
BRANCH   1  90
ATOM     90  C16 non d ame     -36.641  16.421  25.103  0.00  0.00    -0.035 C 
ATOM     91  H21 non d ame     -35.636  16.676  24.766  0.00  0.00     0.037 H 
ATOM     92  H22 non d ame     -37.219  15.668  24.568  0.00  0.00     0.037 H 
BRANCH  90  93
ATOM     93  C17 non d ame     -37.472  17.742  25.045  0.00  0.00    -0.059 C 
ATOM     94  H23 non d ame     -38.037  17.737  24.113  0.00  0.00     0.038 H 
BRANCH  93  95
ATOM     95  C18 non d ame     -38.495  17.846  26.221  0.00  0.00    -0.073 C 
ATOM     96  H24 non d ame     -38.193  18.649  26.894  0.00  0.00     0.028 H 
ATOM     97  H25 non d ame     -39.487  18.061  25.823  0.00  0.00     0.028 H 
ATOM     98  H26 non d ame     -38.519  16.904  26.767  0.00  0.00     0.028 H 
ENDBRANCH  93  95
BRANCH  93  99
ATOM     99  C19 non d ame     -36.553  18.965  25.013  0.00  0.00    -0.073 C 
ATOM    100  H27 non d ame     -36.180  19.114  23.998  0.00  0.00     0.028 H 
ATOM    101  H28 non d ame     -37.111  19.848  25.325  0.00  0.00     0.028 H 
ATOM    102  H29 non d ame     -35.714  18.808  25.690  0.00  0.00     0.028 H 
ENDBRANCH  93  99
ENDBRANCH  90  93
ENDBRANCH   1  90
TORSDOF 26
ENDMDL
MODEL 6
REMARK VINA RESULT:      -6.7      2.639      6.991
REMARK  26 active torsions:
REMARK  status: ('A' for Active; 'I' for Inactive)
REMARK    1  A    between atoms: C2_2  and  C3_3 
REMARK    2  A    between atoms: C4_6  and  C5_7 
REMARK       I    between atoms: C5_7  and  N2_9 
REMARK    3  A    between atoms: N2_9  and  C6_10 
REMARK    4  A    between atoms: C6_10  and  C7_11 
REMARK    5  A    between atoms: C6_10  and  C8_13 
REMARK       I    between atoms: C7_11  and  N3_14 
REMARK    6  A    between atoms: N3_14  and  C9_15 
REMARK    7  A    between atoms: C9_15  and  C10_16 
REMARK    8  A    between atoms: C9_15  and  C11_18 
REMARK       I    between atoms: C10_16  and  N4_21 
REMARK    9  A    between atoms: C11_18  and  C12_19 
REMARK   10  A    between atoms: C11_18  and  C13_20 
REMARK   11  A    between atoms: N4_21  and  C14_22 
REMARK   12  A    between atoms: C14_22  and  C15_23 
REMARK   13  A    between atoms: C14_22  and  C16_25 
REMARK       I    between atoms: C15_23  and  N6_40 
REMARK   14  A    between atoms: C16_25  and  C17_26 
REMARK   15  A    between atoms: C17_26  and  C18_27 
REMARK   16  A    between atoms: C17_26  and  C19_28 
REMARK   17  A    between atoms: C20_29  and  C21_30 
REMARK   18  A    between atoms: C20_29  and  C24_33 
REMARK   19  A    between atoms: C20_29  and  N6_40 
REMARK   20  A    between atoms: C21_30  and  C22_31 
REMARK   21  A    between atoms: C22_31  and  C23_32 
REMARK   22  A    between atoms: C23_32  and  O8_43 
REMARK   23  A    between atoms: C24_33  and  C25_34 
REMARK   24  A    between atoms: C28_38  and  O6_39 
REMARK   25  A    between atoms: C29_42  and  O8_43 
REMARK   26  A    between atoms: C29_42  and  C35_49 
ROOT
ATOM      1  C14 non d ame     -32.465   9.504  25.341  0.00  0.00     0.089 C 
ATOM      2  H20 non d ame     -31.796   8.645  25.406  0.00  0.00     0.087 H 
ENDROOT
BRANCH   1   3
ATOM      3  N4  non d ame     -33.409   9.407  26.444  0.00  0.00    -0.346 N 
ATOM      4  C10 non d ame     -33.257   8.326  27.485  0.00  0.00     0.241 C 
ATOM      5  O4  non d ame     -32.369   7.543  27.412  0.00  0.00    -0.271 OA
ATOM      6  H19 non d ame     -34.160  10.081  26.487  0.00  0.00     0.163 HD
BRANCH   4   7
ATOM      7  C9  non d ame     -34.241   8.244  28.623  0.00  0.00     0.092 C 
ATOM      8  H11 non d ame     -33.985   7.396  29.258  0.00  0.00     0.088 H 
BRANCH   7   9
ATOM      9  N3  non d ame     -34.136   9.451  29.447  0.00  0.00    -0.346 N 
ATOM     10  C7  non d ame     -34.209   9.350  30.884  0.00  0.00     0.240 C 
ATOM     11  O3  non d ame     -34.355   8.306  31.393  0.00  0.00    -0.271 OA
ATOM     12  H10 non d ame     -34.012  10.358  29.023  0.00  0.00     0.163 HD
BRANCH  10  13
ATOM     13  C6  non d ame     -34.100  10.639  31.758  0.00  0.00     0.086 C 
ATOM     14  H6  non d ame     -33.332  10.562  32.528  0.00  0.00     0.086 H 
BRANCH  13  15
ATOM     15  N2  non d ame     -33.724  11.755  30.905  0.00  0.00    -0.343 N 
ATOM     16  C5  non d ame     -32.308  12.007  30.631  0.00  0.00     0.273 C 
ATOM     17  O2  non d ame     -31.479  11.309  31.102  0.00  0.00    -0.266 OA
ATOM     18  H5  non d ame     -34.439  12.349  30.510  0.00  0.00     0.163 HD
BRANCH  16  19
ATOM     19  C4  non d ame     -31.896  13.182  29.730  0.00  0.00     0.154 A 
ATOM     20  C1  non d ame     -32.629  14.389  29.494  0.00  0.00    -0.017 A 
ATOM     21  C2  non d ame     -31.826  15.133  28.601  0.00  0.00     0.077 A 
ATOM     22  H1  non d ame     -33.595  14.679  29.906  0.00  0.00     0.091 H 
ATOM     23  O1  non d ame     -30.758  14.428  28.361  0.00  0.00    -0.218 OA
ATOM     24  N1  non d ame     -30.777  13.286  29.008  0.00  0.00    -0.123 NA
BRANCH  21  25
ATOM     25  C3  non d ame     -32.150  16.506  28.027  0.00  0.00    -0.029 C 
ATOM     26  H2  non d ame     -31.446  16.742  27.229  0.00  0.00     0.036 H 
ATOM     27  H3  non d ame     -33.164  16.502  27.627  0.00  0.00     0.036 H 
ATOM     28  H4  non d ame     -32.072  17.256  28.813  0.00  0.00     0.036 H 
ENDBRANCH  21  25
ENDBRANCH  16  19
ENDBRANCH  13  15
BRANCH  13  29
ATOM     29  C8  non d ame     -35.427  10.917  32.417  0.00  0.00    -0.049 C 
ATOM     30  H7  non d ame     -35.763  10.027  32.948  0.00  0.00     0.030 H 
ATOM     31  H8  non d ame     -35.316  11.740  33.123  0.00  0.00     0.030 H 
ATOM     32  H9  non d ame     -36.161  11.185  31.657  0.00  0.00     0.030 H 
ENDBRANCH  13  29
ENDBRANCH  10  13
ENDBRANCH   7   9
BRANCH   7  33
ATOM     33  C11 non d ame     -35.685   8.133  28.052  0.00  0.00    -0.033 C 
ATOM     34  H12 non d ame     -35.601   7.967  26.977  0.00  0.00     0.042 H 
BRANCH  33  35
ATOM     35  C12 non d ame     -36.444   6.911  28.658  0.00  0.00    -0.071 C 
ATOM     36  H13 non d ame     -37.041   7.240  29.508  0.00  0.00     0.028 H 
ATOM     37  H14 non d ame     -37.096   6.478  27.901  0.00  0.00     0.028 H 
ATOM     38  H15 non d ame     -35.723   6.163  28.989  0.00  0.00     0.028 H 
ENDBRANCH  33  35
BRANCH  33  39
ATOM     39  C13 non d ame     -36.478   9.460  28.275  0.00  0.00    -0.071 C 
ATOM     40  H16 non d ame     -36.842   9.498  29.302  0.00  0.00     0.028 H 
ATOM     41  H17 non d ame     -35.823  10.312  28.089  0.00  0.00     0.028 H 
ATOM     42  H18 non d ame     -37.323   9.498  27.589  0.00  0.00     0.028 H 
ENDBRANCH  33  39
ENDBRANCH   7  33
ENDBRANCH   4   7
ENDBRANCH   1   3
BRANCH   1  43
ATOM     43  C15 non d ame     -31.703  10.854  25.459  0.00  0.00     0.240 C 
ATOM     44  O5  non d ame     -30.999  11.056  26.396  0.00  0.00    -0.271 OA
ATOM     45  N6  non d ame     -31.841  11.893  24.399  0.00  0.00    -0.355 N 
ATOM     46  H46 non d ame     -32.431  11.730  23.596  0.00  0.00     0.162 HD
BRANCH  45  47
ATOM     47  C20 non d ame     -31.108  13.171  24.524  0.00  0.00     0.013 C 
ATOM     48  H30 non d ame     -30.392  13.069  25.340  0.00  0.00     0.072 H 
BRANCH  47  49
ATOM     49  C21 non d ame     -32.087  14.281  24.833  0.00  0.00    -0.038 C 
ATOM     50  H31 non d ame     -31.536  15.000  25.440  0.00  0.00     0.036 H 
ATOM     51  H32 non d ame     -32.501  14.583  23.872  0.00  0.00     0.036 H 
BRANCH  49  52
ATOM     52  C22 non d ame     -33.278  13.807  25.693  0.00  0.00     0.018 C 
ATOM     53  H33 non d ame     -33.706  12.958  25.163  0.00  0.00     0.048 H 
ATOM     54  H34 non d ame     -32.881  13.676  26.701  0.00  0.00     0.048 H 
BRANCH  52  55
ATOM     55  C23 non d ame     -34.419  14.855  25.815  0.00  0.00     0.259 C 
ATOM     56  O7  non d ame     -35.298  14.701  26.599  0.00  0.00    -0.265 OA
BRANCH  55  57
ATOM     57  O8  non d ame     -34.410  15.997  24.967  0.00  0.00    -0.317 OA
BRANCH  57  58
ATOM     58  C29 non d ame     -35.387  16.984  25.310  0.00  0.00     0.052 C 
ATOM     59  H47 non d ame     -35.759  17.373  24.363  0.00  0.00     0.082 H 
ATOM     60  H48 non d ame     -36.069  16.495  26.006  0.00  0.00     0.082 H 
BRANCH  58  61
ATOM     61  C35 non d ame     -34.663  18.134  26.061  0.00  0.00    -0.034 A 
ATOM     62  C30 non d ame     -35.132  18.562  27.299  0.00  0.00    -0.075 A 
ATOM     63  C31 non d ame     -34.482  19.596  27.973  0.00  0.00    -0.082 A 
ATOM     64  H49 non d ame     -36.010  18.090  27.740  0.00  0.00     0.084 H 
ATOM     65  C32 non d ame     -33.359  20.202  27.403  0.00  0.00    -0.083 A 
ATOM     66  H50 non d ame     -34.852  19.928  28.943  0.00  0.00     0.083 H 
ATOM     67  C33 non d ame     -32.896  19.773  26.167  0.00  0.00    -0.082 A 
ATOM     68  H51 non d ame     -32.845  21.009  27.924  0.00  0.00     0.083 H 
ATOM     69  C34 non d ame     -33.542  18.740  25.491  0.00  0.00    -0.075 A 
ATOM     70  H52 non d ame     -32.021  20.250  25.724  0.00  0.00     0.083 H 
ATOM     71  H53 non d ame     -33.171  18.408  24.521  0.00  0.00     0.084 H 
ENDBRANCH  58  61
ENDBRANCH  57  58
ENDBRANCH  55  57
ENDBRANCH  52  55
ENDBRANCH  49  52
ENDBRANCH  47  49
BRANCH  47  72
ATOM     72  C24 non d ame     -30.381  13.481  23.218  0.00  0.00    -0.039 C 
ATOM     73  H35 non d ame     -29.336  13.224  23.400  0.00  0.00     0.036 H 
ATOM     74  H36 non d ame     -30.942  12.959  22.443  0.00  0.00     0.036 H 
BRANCH  72  75
ATOM     75  C25 non d ame     -30.430  15.043  22.867  0.00  0.00    -0.001 C 
ATOM     76  C26 non d ame     -31.237  15.273  21.453  0.00  0.00    -0.035 C 
ATOM     77  C27 non d ame     -30.476  16.039  20.636  0.00  0.00     0.085 C 
ATOM     78  H38 non d ame     -31.322  14.330  20.913  0.00  0.00     0.036 H 
ATOM     79  H39 non d ame     -32.123  15.885  21.624  0.00  0.00     0.036 H 
ATOM     80  N5  non d ame     -29.090  16.079  21.232  0.00  0.00    -0.049 N 
ATOM     81  H40 non d ame     -30.438  15.504  19.686  0.00  0.00     0.075 H 
ATOM     82  H41 non d ame     -30.911  17.037  20.682  0.00  0.00     0.075 H 
ATOM     83  C28 non d ame     -29.241  15.533  22.744  0.00  0.00     0.193 C 
ATOM     84  H42 non d ame     -28.532  15.421  20.707  0.00  0.00     0.280 HD
ATOM     85  H43 non d ame     -28.822  17.052  21.267  0.00  0.00     0.280 HD
ATOM     86  H44 non d ame     -29.224  16.223  23.587  0.00  0.00     0.129 H 
ATOM     87  H37 non d ame     -30.740  15.648  23.719  0.00  0.00     0.046 H 
BRANCH  83  88
ATOM     88  O6  non d ame     -28.228  14.564  23.023  0.00  0.00    -0.369 OA
ATOM     89  H45 non d ame     -28.098  14.007  22.252  0.00  0.00     0.212 HD
ENDBRANCH  83  88
ENDBRANCH  72  75
ENDBRANCH  47  72
ENDBRANCH  45  47
ENDBRANCH   1  43
BRANCH   1  90
ATOM     90  C16 non d ame     -33.230   9.461  24.028  0.00  0.00    -0.035 C 
ATOM     91  H21 non d ame     -34.130   8.883  24.236  0.00  0.00     0.037 H 
ATOM     92  H22 non d ame     -33.313  10.500  23.709  0.00  0.00     0.037 H 
BRANCH  90  93
ATOM     93  C17 non d ame     -32.476   8.707  22.887  0.00  0.00    -0.059 C 
ATOM     94  H23 non d ame     -31.796   9.415  22.415  0.00  0.00     0.038 H 
BRANCH  93  95
ATOM     95  C18 non d ame     -31.624   7.516  23.431  0.00  0.00    -0.073 C 
ATOM     96  H24 non d ame     -30.632   7.873  23.704  0.00  0.00     0.028 H 
ATOM     97  H25 non d ame     -32.111   7.093  24.311  0.00  0.00     0.028 H 
ATOM     98  H26 non d ame     -31.536   6.750  22.662  0.00  0.00     0.028 H 
ENDBRANCH  93  95
BRANCH  93  99
ATOM     99  C19 non d ame     -33.454   8.229  21.810  0.00  0.00    -0.073 C 
ATOM    100  H27 non d ame     -34.052   9.072  21.461  0.00  0.00     0.028 H 
ATOM    101  H28 non d ame     -32.896   7.810  20.972  0.00  0.00     0.028 H 
ATOM    102  H29 non d ame     -34.109   7.465  22.226  0.00  0.00     0.028 H 
ENDBRANCH  93  99
ENDBRANCH  90  93
ENDBRANCH   1  90
TORSDOF 26
ENDMDL
MODEL 7
REMARK VINA RESULT:      -6.7      3.138      7.989
REMARK  26 active torsions:
REMARK  status: ('A' for Active; 'I' for Inactive)
REMARK    1  A    between atoms: C2_2  and  C3_3 
REMARK    2  A    between atoms: C4_6  and  C5_7 
REMARK       I    between atoms: C5_7  and  N2_9 
REMARK    3  A    between atoms: N2_9  and  C6_10 
REMARK    4  A    between atoms: C6_10  and  C7_11 
REMARK    5  A    between atoms: C6_10  and  C8_13 
REMARK       I    between atoms: C7_11  and  N3_14 
REMARK    6  A    between atoms: N3_14  and  C9_15 
REMARK    7  A    between atoms: C9_15  and  C10_16 
REMARK    8  A    between atoms: C9_15  and  C11_18 
REMARK       I    between atoms: C10_16  and  N4_21 
REMARK    9  A    between atoms: C11_18  and  C12_19 
REMARK   10  A    between atoms: C11_18  and  C13_20 
REMARK   11  A    between atoms: N4_21  and  C14_22 
REMARK   12  A    between atoms: C14_22  and  C15_23 
REMARK   13  A    between atoms: C14_22  and  C16_25 
REMARK       I    between atoms: C15_23  and  N6_40 
REMARK   14  A    between atoms: C16_25  and  C17_26 
REMARK   15  A    between atoms: C17_26  and  C18_27 
REMARK   16  A    between atoms: C17_26  and  C19_28 
REMARK   17  A    between atoms: C20_29  and  C21_30 
REMARK   18  A    between atoms: C20_29  and  C24_33 
REMARK   19  A    between atoms: C20_29  and  N6_40 
REMARK   20  A    between atoms: C21_30  and  C22_31 
REMARK   21  A    between atoms: C22_31  and  C23_32 
REMARK   22  A    between atoms: C23_32  and  O8_43 
REMARK   23  A    between atoms: C24_33  and  C25_34 
REMARK   24  A    between atoms: C28_38  and  O6_39 
REMARK   25  A    between atoms: C29_42  and  O8_43 
REMARK   26  A    between atoms: C29_42  and  C35_49 
ROOT
ATOM      1  C14 non d ame     -31.069  13.794  24.643  0.00  0.00     0.089 C 
ATOM      2  H20 non d ame     -30.066  13.763  25.071  0.00  0.00     0.087 H 
ENDROOT
BRANCH   1   3
ATOM      3  N4  non d ame     -31.428  12.435  24.269  0.00  0.00    -0.346 N 
ATOM      4  C10 non d ame     -31.378  11.325  25.289  0.00  0.00     0.241 C 
ATOM      5  O4  non d ame     -31.042  11.550  26.405  0.00  0.00    -0.271 OA
ATOM      6  H19 non d ame     -31.709  12.264  23.314  0.00  0.00     0.163 HD
BRANCH   4   7
ATOM      7  C9  non d ame     -31.759   9.925  24.885  0.00  0.00     0.092 C 
ATOM      8  H11 non d ame     -31.022   9.225  25.279  0.00  0.00     0.088 H 
BRANCH   7   9
ATOM      9  N3  non d ame     -33.051   9.577  25.483  0.00  0.00    -0.346 N 
ATOM     10  C7  non d ame     -33.103   8.693  26.621  0.00  0.00     0.240 C 
ATOM     11  O3  non d ame     -32.115   8.250  27.067  0.00  0.00    -0.271 OA
ATOM     12  H10 non d ame     -33.911   9.950  25.109  0.00  0.00     0.163 HD
BRANCH  10  13
ATOM     13  C6  non d ame     -34.482   8.323  27.252  0.00  0.00     0.086 C 
ATOM     14  H6  non d ame     -35.052   7.625  26.640  0.00  0.00     0.086 H 
BRANCH  13  15
ATOM     15  N2  non d ame     -34.255   7.667  28.529  0.00  0.00    -0.343 N 
ATOM     16  C5  non d ame     -34.629   6.261  28.694  0.00  0.00     0.273 C 
ATOM     17  O2  non d ame     -35.114   5.667  27.794  0.00  0.00    -0.266 OA
ATOM     18  H5  non d ame     -33.843   8.183  29.293  0.00  0.00     0.163 HD
BRANCH  16  19
ATOM     19  C4  non d ame     -34.393   5.554  30.038  0.00  0.00     0.154 A 
ATOM     20  C1  non d ame     -33.412   4.555  30.329  0.00  0.00    -0.017 A 
ATOM     21  C2  non d ame     -33.610   4.236  31.691  0.00  0.00     0.077 A 
ATOM     22  H1  non d ame     -32.670   4.125  29.656  0.00  0.00     0.091 H 
ATOM     23  O1  non d ame     -34.591   4.974  32.123  0.00  0.00    -0.218 OA
ATOM     24  N1  non d ame     -35.065   5.751  31.176  0.00  0.00    -0.123 NA
BRANCH  21  25
ATOM     25  C3  non d ame     -32.820   3.219  32.503  0.00  0.00    -0.029 C 
ATOM     26  H2  non d ame     -32.807   3.521  33.551  0.00  0.00     0.036 H 
ATOM     27  H3  non d ame     -33.289   2.239  32.414  0.00  0.00     0.036 H 
ATOM     28  H4  non d ame     -31.798   3.168  32.128  0.00  0.00     0.036 H 
ENDBRANCH  21  25
ENDBRANCH  16  19
ENDBRANCH  13  15
BRANCH  13  29
ATOM     29  C8  non d ame     -35.298   9.576  27.453  0.00  0.00    -0.049 C 
ATOM     30  H7  non d ame     -36.044   9.403  28.227  0.00  0.00     0.030 H 
ATOM     31  H8  non d ame     -34.641  10.391  27.757  0.00  0.00     0.030 H 
ATOM     32  H9  non d ame     -35.796   9.839  26.519  0.00  0.00     0.030 H 
ENDBRANCH  13  29
ENDBRANCH  10  13
ENDBRANCH   7   9
BRANCH   7  33
ATOM     33  C11 non d ame     -31.869   9.845  23.335  0.00  0.00    -0.033 C 
ATOM     34  H12 non d ame     -32.083  10.850  22.969  0.00  0.00     0.042 H 
BRANCH  33  35
ATOM     35  C12 non d ame     -30.524   9.388  22.690  0.00  0.00    -0.071 C 
ATOM     36  H13 non d ame     -29.694   9.681  23.334  0.00  0.00     0.028 H 
ATOM     37  H14 non d ame     -30.527   8.304  22.574  0.00  0.00     0.028 H 
ATOM     38  H15 non d ame     -30.409   9.858  21.714  0.00  0.00     0.028 H 
ENDBRANCH  33  35
BRANCH  33  39
ATOM     39  C13 non d ame     -33.048   8.915  22.905  0.00  0.00    -0.071 C 
ATOM     40  H16 non d ame     -32.699   7.883  22.858  0.00  0.00     0.028 H 
ATOM     41  H17 non d ame     -33.857   8.992  23.633  0.00  0.00     0.028 H 
ATOM     42  H18 non d ame     -33.414   9.220  21.925  0.00  0.00     0.028 H 
ENDBRANCH  33  39
ENDBRANCH   7  33
ENDBRANCH   4   7
ENDBRANCH   1   3
BRANCH   1  43
ATOM     43  C15 non d ame     -32.123  14.324  25.656  0.00  0.00     0.240 C 
ATOM     44  O5  non d ame     -33.220  14.590  25.283  0.00  0.00    -0.271 OA
ATOM     45  N6  non d ame     -31.769  14.492  27.094  0.00  0.00    -0.355 N 
ATOM     46  H46 non d ame     -30.841  14.265  27.424  0.00  0.00     0.162 HD
BRANCH  45  47
ATOM     47  C20 non d ame     -32.783  14.995  28.046  0.00  0.00     0.013 C 
ATOM     48  H30 non d ame     -33.768  14.789  27.627  0.00  0.00     0.072 H 
BRANCH  47  49
ATOM     49  C21 non d ame     -32.601  16.485  28.229  0.00  0.00    -0.038 C 
ATOM     50  H31 non d ame     -32.672  16.661  29.304  0.00  0.00     0.036 H 
ATOM     51  H32 non d ame     -31.686  16.737  27.695  0.00  0.00     0.036 H 
BRANCH  49  52
ATOM     52  C22 non d ame     -33.730  17.312  27.578  0.00  0.00     0.018 C 
ATOM     53  H33 non d ame     -34.445  16.585  27.195  0.00  0.00     0.048 H 
ATOM     54  H34 non d ame     -34.040  18.034  28.334  0.00  0.00     0.048 H 
BRANCH  52  55
ATOM     55  C23 non d ame     -33.268  18.147  26.352  0.00  0.00     0.259 C 
ATOM     56  O7  non d ame     -32.296  17.837  25.743  0.00  0.00    -0.265 OA
BRANCH  55  57
ATOM     57  O8  non d ame     -34.013  19.298  25.972  0.00  0.00    -0.317 OA
BRANCH  57  58
ATOM     58  C29 non d ame     -35.257  19.440  26.664  0.00  0.00     0.052 C 
ATOM     59  H47 non d ame     -35.368  18.534  27.260  0.00  0.00     0.082 H 
ATOM     60  H48 non d ame     -35.215  20.413  27.152  0.00  0.00     0.082 H 
BRANCH  58  61
ATOM     61  C35 non d ame     -36.393  19.472  25.605  0.00  0.00    -0.034 A 
ATOM     62  C30 non d ame     -37.070  20.659  25.346  0.00  0.00    -0.075 A 
ATOM     63  C31 non d ame     -38.090  20.688  24.396  0.00  0.00    -0.082 A 
ATOM     64  H49 non d ame     -36.803  21.566  25.888  0.00  0.00     0.084 H 
ATOM     65  C32 non d ame     -38.433  19.522  23.705  0.00  0.00    -0.083 A 
ATOM     66  H50 non d ame     -38.618  21.620  24.194  0.00  0.00     0.083 H 
ATOM     67  C33 non d ame     -37.756  18.340  23.969  0.00  0.00    -0.082 A 
ATOM     68  H51 non d ame     -39.228  19.537  22.960  0.00  0.00     0.083 H 
ATOM     69  C34 non d ame     -36.735  18.307  24.916  0.00  0.00    -0.075 A 
ATOM     70  H52 non d ame     -38.027  17.431  23.430  0.00  0.00     0.083 H 
ATOM     71  H53 non d ame     -36.208  17.374  25.117  0.00  0.00     0.084 H 
ENDBRANCH  58  61
ENDBRANCH  57  58
ENDBRANCH  55  57
ENDBRANCH  52  55
ENDBRANCH  49  52
ENDBRANCH  47  49
BRANCH  47  72
ATOM     72  C24 non d ame     -32.623  14.292  29.392  0.00  0.00    -0.039 C 
ATOM     73  H35 non d ame     -31.957  14.931  29.975  0.00  0.00     0.036 H 
ATOM     74  H36 non d ame     -33.637  14.100  29.742  0.00  0.00     0.036 H 
BRANCH  72  75
ATOM     75  C25 non d ame     -31.899  12.871  29.237  0.00  0.00    -0.001 C 
ATOM     76  C26 non d ame     -33.013  11.665  29.319  0.00  0.00    -0.035 C 
ATOM     77  C27 non d ame     -32.603  10.755  30.236  0.00  0.00     0.085 C 
ATOM     78  H38 non d ame     -33.946  12.044  29.736  0.00  0.00     0.036 H 
ATOM     79  H39 non d ame     -33.022  11.100  28.387  0.00  0.00     0.036 H 
ATOM     80  N5  non d ame     -31.482  11.393  31.020  0.00  0.00    -0.049 N 
ATOM     81  H40 non d ame     -33.458  10.603  30.897  0.00  0.00     0.075 H 
ATOM     82  H41 non d ame     -32.204   9.921  29.660  0.00  0.00     0.075 H 
ATOM     83  C28 non d ame     -31.025  12.687  30.170  0.00  0.00     0.193 C 
ATOM     84  H42 non d ame     -31.884  11.706  31.892  0.00  0.00     0.280 HD
ATOM     85  H43 non d ame     -30.723  10.727  31.025  0.00  0.00     0.280 HD
ATOM     86  H44 non d ame     -30.109  12.668  29.582  0.00  0.00     0.129 H 
ATOM     87  H37 non d ame     -31.206  12.851  28.396  0.00  0.00     0.046 H 
BRANCH  83  88
ATOM     88  O6  non d ame     -30.905  13.823  31.028  0.00  0.00    -0.369 OA
ATOM     89  H45 non d ame     -31.779  14.116  31.296  0.00  0.00     0.212 HD
ENDBRANCH  83  88
ENDBRANCH  72  75
ENDBRANCH  47  72
ENDBRANCH  45  47
ENDBRANCH   1  43
BRANCH   1  90
ATOM     90  C16 non d ame     -31.071  14.668  23.399  0.00  0.00    -0.035 C 
ATOM     91  H21 non d ame     -32.029  14.480  22.916  0.00  0.00     0.037 H 
ATOM     92  H22 non d ame     -30.825  15.670  23.750  0.00  0.00     0.037 H 
BRANCH  90  93
ATOM     93  C17 non d ame     -29.971  14.282  22.360  0.00  0.00    -0.059 C 
ATOM     94  H23 non d ame     -29.910  13.194  22.331  0.00  0.00     0.038 H 
BRANCH  93  95
ATOM     95  C18 non d ame     -30.320  14.778  20.920  0.00  0.00    -0.073 C 
ATOM     96  H24 non d ame     -31.390  14.974  20.853  0.00  0.00     0.028 H 
ATOM     97  H25 non d ame     -29.770  15.696  20.709  0.00  0.00     0.028 H 
ATOM     98  H26 non d ame     -30.043  14.014  20.195  0.00  0.00     0.028 H 
ENDBRANCH  93  95
BRANCH  93  99
ATOM     99  C19 non d ame     -28.599  14.803  22.797  0.00  0.00    -0.073 C 
ATOM    100  H27 non d ame     -28.434  14.555  23.846  0.00  0.00     0.028 H 
ATOM    101  H28 non d ame     -27.823  14.338  22.189  0.00  0.00     0.028 H 
ATOM    102  H29 non d ame     -28.563  15.884  22.668  0.00  0.00     0.028 H 
ENDBRANCH  93  99
ENDBRANCH  90  93
ENDBRANCH   1  90
TORSDOF 26
ENDMDL
MODEL 8
REMARK VINA RESULT:      -6.7      3.105      7.588
REMARK  26 active torsions:
REMARK  status: ('A' for Active; 'I' for Inactive)
REMARK    1  A    between atoms: C2_2  and  C3_3 
REMARK    2  A    between atoms: C4_6  and  C5_7 
REMARK       I    between atoms: C5_7  and  N2_9 
REMARK    3  A    between atoms: N2_9  and  C6_10 
REMARK    4  A    between atoms: C6_10  and  C7_11 
REMARK    5  A    between atoms: C6_10  and  C8_13 
REMARK       I    between atoms: C7_11  and  N3_14 
REMARK    6  A    between atoms: N3_14  and  C9_15 
REMARK    7  A    between atoms: C9_15  and  C10_16 
REMARK    8  A    between atoms: C9_15  and  C11_18 
REMARK       I    between atoms: C10_16  and  N4_21 
REMARK    9  A    between atoms: C11_18  and  C12_19 
REMARK   10  A    between atoms: C11_18  and  C13_20 
REMARK   11  A    between atoms: N4_21  and  C14_22 
REMARK   12  A    between atoms: C14_22  and  C15_23 
REMARK   13  A    between atoms: C14_22  and  C16_25 
REMARK       I    between atoms: C15_23  and  N6_40 
REMARK   14  A    between atoms: C16_25  and  C17_26 
REMARK   15  A    between atoms: C17_26  and  C18_27 
REMARK   16  A    between atoms: C17_26  and  C19_28 
REMARK   17  A    between atoms: C20_29  and  C21_30 
REMARK   18  A    between atoms: C20_29  and  C24_33 
REMARK   19  A    between atoms: C20_29  and  N6_40 
REMARK   20  A    between atoms: C21_30  and  C22_31 
REMARK   21  A    between atoms: C22_31  and  C23_32 
REMARK   22  A    between atoms: C23_32  and  O8_43 
REMARK   23  A    between atoms: C24_33  and  C25_34 
REMARK   24  A    between atoms: C28_38  and  O6_39 
REMARK   25  A    between atoms: C29_42  and  O8_43 
REMARK   26  A    between atoms: C29_42  and  C35_49 
ROOT
ATOM      1  C14 non d ame     -35.441  14.270  26.724  0.00  0.00     0.089 C 
ATOM      2  H20 non d ame     -35.672  14.697  27.700  0.00  0.00     0.087 H 
ENDROOT
BRANCH   1   3
ATOM      3  N4  non d ame     -34.490  15.157  26.071  0.00  0.00    -0.346 N 
ATOM      4  C10 non d ame     -33.568  16.022  26.893  0.00  0.00     0.241 C 
ATOM      5  O4  non d ame     -33.612  15.990  28.078  0.00  0.00    -0.271 OA
ATOM      6  H19 non d ame     -34.470  15.171  25.061  0.00  0.00     0.163 HD
BRANCH   4   7
ATOM      7  C9  non d ame     -32.586  16.930  26.200  0.00  0.00     0.092 C 
ATOM      8  H11 non d ame     -31.683  17.012  26.807  0.00  0.00     0.088 H 
BRANCH   7   9
ATOM      9  N3  non d ame     -32.194  16.339  24.918  0.00  0.00    -0.346 N 
ATOM     10  C7  non d ame     -31.217  15.279  24.881  0.00  0.00     0.240 C 
ATOM     11  O3  non d ame     -30.734  14.891  25.875  0.00  0.00    -0.271 OA
ATOM     12  H10 non d ame     -32.600  16.665  24.052  0.00  0.00     0.163 HD
BRANCH  10  13
ATOM     13  C6  non d ame     -30.801  14.656  23.512  0.00  0.00     0.086 C 
ATOM     14  H6  non d ame     -29.745  14.801  23.286  0.00  0.00     0.086 H 
BRANCH  13  15
ATOM     15  N2  non d ame     -31.022  13.220  23.562  0.00  0.00    -0.343 N 
ATOM     16  C5  non d ame     -30.181  12.332  22.755  0.00  0.00     0.273 C 
ATOM     17  O2  non d ame     -29.333  12.783  22.067  0.00  0.00    -0.266 OA
ATOM     18  H5  non d ame     -31.752  12.843  24.150  0.00  0.00     0.163 HD
BRANCH  16  19
ATOM     19  C4  non d ame     -30.403  10.813  22.799  0.00  0.00     0.154 A 
ATOM     20  C1  non d ame     -31.431  10.109  23.502  0.00  0.00    -0.017 A 
ATOM     21  C2  non d ame     -31.195   8.744  23.222  0.00  0.00     0.077 A 
ATOM     22  H1  non d ame     -32.226  10.523  24.122  0.00  0.00     0.091 H 
ATOM     23  O1  non d ame     -30.152   8.683  22.445  0.00  0.00    -0.218 OA
ATOM     24  N1  non d ame     -29.672   9.877  22.186  0.00  0.00    -0.123 NA
BRANCH  21  25
ATOM     25  C3  non d ame     -32.011   7.564  23.733  0.00  0.00    -0.029 C 
ATOM     26  H2  non d ame     -32.217   6.881  22.909  0.00  0.00     0.036 H 
ATOM     27  H3  non d ame     -31.449   7.041  24.506  0.00  0.00     0.036 H 
ATOM     28  H4  non d ame     -32.951   7.925  24.148  0.00  0.00     0.036 H 
ENDBRANCH  21  25
ENDBRANCH  16  19
ENDBRANCH  13  15
BRANCH  13  29
ATOM     29  C8  non d ame     -31.625  15.267  22.407  0.00  0.00    -0.049 C 
ATOM     30  H7  non d ame     -31.794  16.322  22.620  0.00  0.00     0.030 H 
ATOM     31  H8  non d ame     -31.093  15.168  21.461  0.00  0.00     0.030 H 
ATOM     32  H9  non d ame     -32.584  14.752  22.342  0.00  0.00     0.030 H 
ENDBRANCH  13  29
ENDBRANCH  10  13
ENDBRANCH   7   9
BRANCH   7  33
ATOM     33  C11 non d ame     -33.249  18.316  25.949  0.00  0.00    -0.033 C 
ATOM     34  H12 non d ame     -32.994  18.623  24.934  0.00  0.00     0.042 H 
BRANCH  33  35
ATOM     35  C12 non d ame     -34.805  18.227  26.036  0.00  0.00    -0.071 C 
ATOM     36  H13 non d ame     -35.108  18.177  27.082  0.00  0.00     0.028 H 
ATOM     37  H14 non d ame     -35.245  19.109  25.572  0.00  0.00     0.028 H 
ATOM     38  H15 non d ame     -35.147  17.333  25.516  0.00  0.00     0.028 H 
ENDBRANCH  33  35
BRANCH  33  39
ATOM     39  C13 non d ame     -32.687  19.391  26.934  0.00  0.00    -0.071 C 
ATOM     40  H16 non d ame     -33.472  20.108  27.175  0.00  0.00     0.028 H 
ATOM     41  H17 non d ame     -32.345  18.904  27.848  0.00  0.00     0.028 H 
ATOM     42  H18 non d ame     -31.851  19.910  26.466  0.00  0.00     0.028 H 
ENDBRANCH  33  39
ENDBRANCH   7  33
ENDBRANCH   4   7
ENDBRANCH   1   3
BRANCH   1  43
ATOM     43  C15 non d ame     -34.804  12.856  26.836  0.00  0.00     0.240 C 
ATOM     44  O5  non d ame     -34.195  12.408  25.919  0.00  0.00    -0.271 OA
ATOM     45  N6  non d ame     -34.944  12.063  28.091  0.00  0.00    -0.355 N 
ATOM     46  H46 non d ame     -35.455  12.436  28.878  0.00  0.00     0.162 HD
BRANCH  45  47
ATOM     47  C20 non d ame     -34.330  10.721  28.183  0.00  0.00     0.013 C 
ATOM     48  H30 non d ame     -34.144  10.367  27.169  0.00  0.00     0.072 H 
BRANCH  47  49
ATOM     49  C21 non d ame     -35.283   9.784  28.891  0.00  0.00    -0.038 C 
ATOM     50  H31 non d ame     -35.655  10.338  29.754  0.00  0.00     0.036 H 
ATOM     51  H32 non d ame     -35.976   9.436  28.126  0.00  0.00     0.036 H 
BRANCH  49  52
ATOM     52  C22 non d ame     -34.582   8.527  29.450  0.00  0.00     0.018 C 
ATOM     53  H33 non d ame     -35.004   7.685  28.902  0.00  0.00     0.048 H 
ATOM     54  H34 non d ame     -33.513   8.734  29.391  0.00  0.00     0.048 H 
BRANCH  52  55
ATOM     55  C23 non d ame     -34.883   8.257  30.950  0.00  0.00     0.259 C 
ATOM     56  O7  non d ame     -34.428   8.959  31.793  0.00  0.00    -0.265 OA
BRANCH  55  57
ATOM     57  O8  non d ame     -35.700   7.148  31.308  0.00  0.00    -0.317 OA
BRANCH  57  58
ATOM     58  C29 non d ame     -35.819   6.157  30.283  0.00  0.00     0.052 C 
ATOM     59  H47 non d ame     -36.707   5.578  30.533  0.00  0.00     0.082 H 
ATOM     60  H48 non d ame     -35.770   6.701  29.340  0.00  0.00     0.082 H 
BRANCH  58  61
ATOM     61  C35 non d ame     -34.582   5.223  30.374  0.00  0.00    -0.034 A 
ATOM     62  C30 non d ame     -33.899   4.856  29.219  0.00  0.00    -0.075 A 
ATOM     63  C31 non d ame     -32.789   4.017  29.301  0.00  0.00    -0.082 A 
ATOM     64  H49 non d ame     -34.234   5.225  28.250  0.00  0.00     0.084 H 
ATOM     65  C32 non d ame     -32.363   3.542  30.545  0.00  0.00    -0.083 A 
ATOM     66  H50 non d ame     -32.255   3.732  28.394  0.00  0.00     0.083 H 
ATOM     67  C33 non d ame     -33.050   3.909  31.695  0.00  0.00    -0.082 A 
ATOM     68  H51 non d ame     -31.496   2.886  30.618  0.00  0.00     0.083 H 
ATOM     69  C34 non d ame     -34.159   4.749  31.617  0.00  0.00    -0.075 A 
ATOM     70  H52 non d ame     -32.717   3.535  32.663  0.00  0.00     0.083 H 
ATOM     71  H53 non d ame     -34.692   5.033  32.525  0.00  0.00     0.084 H 
ENDBRANCH  58  61
ENDBRANCH  57  58
ENDBRANCH  55  57
ENDBRANCH  52  55
ENDBRANCH  49  52
ENDBRANCH  47  49
BRANCH  47  72
ATOM     72  C24 non d ame     -33.021  10.804  28.965  0.00  0.00    -0.039 C 
ATOM     73  H35 non d ame     -33.111  10.063  29.761  0.00  0.00     0.036 H 
ATOM     74  H36 non d ame     -32.232  10.707  28.219  0.00  0.00     0.036 H 
BRANCH  72  75
ATOM     75  C25 non d ame     -32.838  12.233  29.665  0.00  0.00    -0.001 C 
ATOM     76  C26 non d ame     -31.675  13.093  28.884  0.00  0.00    -0.035 C 
ATOM     77  C27 non d ame     -30.779  13.544  29.795  0.00  0.00     0.085 C 
ATOM     78  H38 non d ame     -31.084  12.433  28.250  0.00  0.00     0.036 H 
ATOM     79  H39 non d ame     -32.101  14.008  28.472  0.00  0.00     0.036 H 
ATOM     80  N5  non d ame     -31.042  12.796  31.080  0.00  0.00    -0.049 N 
ATOM     81  H40 non d ame     -29.801  13.254  29.410  0.00  0.00     0.075 H 
ATOM     82  H41 non d ame     -31.017  14.597  29.942  0.00  0.00     0.075 H 
ATOM     83  C28 non d ame     -32.491  12.106  30.903  0.00  0.00     0.193 C 
ATOM     84  H42 non d ame     -30.344  12.069  31.137  0.00  0.00     0.280 HD
ATOM     85  H43 non d ame     -31.105  13.493  31.808  0.00  0.00     0.280 HD
ATOM     86  H44 non d ame     -33.367  12.522  31.397  0.00  0.00     0.129 H 
ATOM     87  H37 non d ame     -33.790  12.731  29.841  0.00  0.00     0.046 H 
BRANCH  83  88
ATOM     88  O6  non d ame     -32.438  10.737  31.310  0.00  0.00    -0.369 OA
ATOM     89  H45 non d ame     -32.572  10.170  30.547  0.00  0.00     0.212 HD
ENDBRANCH  83  88
ENDBRANCH  72  75
ENDBRANCH  47  72
ENDBRANCH  45  47
ENDBRANCH   1  43
BRANCH   1  90
ATOM     90  C16 non d ame     -36.707  14.195  25.884  0.00  0.00    -0.035 C 
ATOM     91  H21 non d ame     -36.848  13.136  25.668  0.00  0.00     0.037 H 
ATOM     92  H22 non d ame     -37.461  14.741  26.449  0.00  0.00     0.037 H 
BRANCH  90  93
ATOM     93  C17 non d ame     -36.585  14.913  24.502  0.00  0.00    -0.059 C 
ATOM     94  H23 non d ame     -35.538  15.180  24.358  0.00  0.00     0.038 H 
BRANCH  93  95
ATOM     95  C18 non d ame     -37.008  13.986  23.317  0.00  0.00    -0.073 C 
ATOM     96  H24 non d ame     -37.970  14.313  22.925  0.00  0.00     0.028 H 
ATOM     97  H25 non d ame     -36.257  14.040  22.528  0.00  0.00     0.028 H 
ATOM     98  H26 non d ame     -37.089  12.958  23.671  0.00  0.00     0.028 H 
ENDBRANCH  93  95
BRANCH  93  99
ATOM     99  C19 non d ame     -37.392  16.214  24.489  0.00  0.00    -0.073 C 
ATOM    100  H27 non d ame     -36.857  16.968  23.910  0.00  0.00     0.028 H 
ATOM    101  H28 non d ame     -38.366  16.033  24.035  0.00  0.00     0.028 H 
ATOM    102  H29 non d ame     -37.528  16.567  25.510  0.00  0.00     0.028 H 
ENDBRANCH  93  99
ENDBRANCH  90  93
ENDBRANCH   1  90
TORSDOF 26
ENDMDL
MODEL 9
REMARK VINA RESULT:      -6.6      2.001      5.905
REMARK  26 active torsions:
REMARK  status: ('A' for Active; 'I' for Inactive)
REMARK    1  A    between atoms: C2_2  and  C3_3 
REMARK    2  A    between atoms: C4_6  and  C5_7 
REMARK       I    between atoms: C5_7  and  N2_9 
REMARK    3  A    between atoms: N2_9  and  C6_10 
REMARK    4  A    between atoms: C6_10  and  C7_11 
REMARK    5  A    between atoms: C6_10  and  C8_13 
REMARK       I    between atoms: C7_11  and  N3_14 
REMARK    6  A    between atoms: N3_14  and  C9_15 
REMARK    7  A    between atoms: C9_15  and  C10_16 
REMARK    8  A    between atoms: C9_15  and  C11_18 
REMARK       I    between atoms: C10_16  and  N4_21 
REMARK    9  A    between atoms: C11_18  and  C12_19 
REMARK   10  A    between atoms: C11_18  and  C13_20 
REMARK   11  A    between atoms: N4_21  and  C14_22 
REMARK   12  A    between atoms: C14_22  and  C15_23 
REMARK   13  A    between atoms: C14_22  and  C16_25 
REMARK       I    between atoms: C15_23  and  N6_40 
REMARK   14  A    between atoms: C16_25  and  C17_26 
REMARK   15  A    between atoms: C17_26  and  C18_27 
REMARK   16  A    between atoms: C17_26  and  C19_28 
REMARK   17  A    between atoms: C20_29  and  C21_30 
REMARK   18  A    between atoms: C20_29  and  C24_33 
REMARK   19  A    between atoms: C20_29  and  N6_40 
REMARK   20  A    between atoms: C21_30  and  C22_31 
REMARK   21  A    between atoms: C22_31  and  C23_32 
REMARK   22  A    between atoms: C23_32  and  O8_43 
REMARK   23  A    between atoms: C24_33  and  C25_34 
REMARK   24  A    between atoms: C28_38  and  O6_39 
REMARK   25  A    between atoms: C29_42  and  O8_43 
REMARK   26  A    between atoms: C29_42  and  C35_49 
ROOT
ATOM      1  C14 non d ame     -30.959  13.655  24.673  0.00  0.00     0.089 C 
ATOM      2  H20 non d ame     -29.980  13.456  25.109  0.00  0.00     0.087 H 
ENDROOT
BRANCH   1   3
ATOM      3  N4  non d ame     -31.419  12.424  24.048  0.00  0.00    -0.346 N 
ATOM      4  C10 non d ame     -31.323  11.112  24.787  0.00  0.00     0.241 C 
ATOM      5  O4  non d ame     -30.868  11.072  25.882  0.00  0.00    -0.271 OA
ATOM      6  H19 non d ame     -31.800  12.479  23.114  0.00  0.00     0.163 HD
BRANCH   4   7
ATOM      7  C9  non d ame     -31.809   9.849  24.126  0.00  0.00     0.092 C 
ATOM      8  H11 non d ame     -31.627   9.004  24.791  0.00  0.00     0.088 H 
BRANCH   7   9
ATOM      9  N3  non d ame     -33.257   9.933  23.917  0.00  0.00    -0.346 N 
ATOM     10  C7  non d ame     -34.158   9.336  24.872  0.00  0.00     0.240 C 
ATOM     11  O3  non d ame     -33.735   8.783  25.813  0.00  0.00    -0.271 OA
ATOM     12  H10 non d ame     -33.637  10.404  23.109  0.00  0.00     0.163 HD
BRANCH  10  13
ATOM     13  C6  non d ame     -35.699   9.425  24.642  0.00  0.00     0.086 C 
ATOM     14  H6  non d ame     -36.267   8.821  25.350  0.00  0.00     0.086 H 
BRANCH  13  15
ATOM     15  N2  non d ame     -36.125  10.801  24.835  0.00  0.00    -0.343 N 
ATOM     16  C5  non d ame     -36.727  11.198  26.111  0.00  0.00     0.273 C 
ATOM     17  O2  non d ame     -36.866  10.402  26.973  0.00  0.00    -0.266 OA
ATOM     18  H5  non d ame     -36.006  11.474  24.092  0.00  0.00     0.163 HD
BRANCH  16  19
ATOM     19  C4  non d ame     -37.180  12.649  26.329  0.00  0.00     0.154 A 
ATOM     20  C1  non d ame     -36.497  13.839  25.925  0.00  0.00    -0.017 A 
ATOM     21  C2  non d ame     -37.323  14.900  26.358  0.00  0.00     0.077 A 
ATOM     22  H1  non d ame     -35.546  13.921  25.399  0.00  0.00     0.091 H 
ATOM     23  O1  non d ame     -38.360  14.369  26.940  0.00  0.00    -0.218 OA
ATOM     24  N1  non d ame     -38.298  13.058  26.936  0.00  0.00    -0.123 NA
BRANCH  21  25
ATOM     25  C3  non d ame     -37.052  16.387  26.176  0.00  0.00    -0.029 C 
ATOM     26  H2  non d ame     -37.641  16.764  25.341  0.00  0.00     0.036 H 
ATOM     27  H3  non d ame     -37.329  16.921  27.085  0.00  0.00     0.036 H 
ATOM     28  H4  non d ame     -35.993  16.541  25.973  0.00  0.00     0.036 H 
ENDBRANCH  21  25
ENDBRANCH  16  19
ENDBRANCH  13  15
BRANCH  13  29
ATOM     29  C8  non d ame     -36.029   8.974  23.241  0.00  0.00    -0.049 C 
ATOM     30  H7  non d ame     -37.090   8.738  23.175  0.00  0.00     0.030 H 
ATOM     31  H8  non d ame     -35.790   9.773  22.538  0.00  0.00     0.030 H 
ATOM     32  H9  non d ame     -35.443   8.088  22.997  0.00  0.00     0.030 H 
ENDBRANCH  13  29
ENDBRANCH  10  13
ENDBRANCH   7   9
BRANCH   7  33
ATOM     33  C11 non d ame     -31.098   9.676  22.753  0.00  0.00    -0.033 C 
ATOM     34  H12 non d ame     -31.305  10.568  22.161  0.00  0.00     0.042 H 
BRANCH  33  35
ATOM     35  C12 non d ame     -29.549   9.574  22.922  0.00  0.00    -0.071 C 
ATOM     36  H13 non d ame     -29.067   9.744  21.959  0.00  0.00     0.028 H 
ATOM     37  H14 non d ame     -29.212  10.326  23.635  0.00  0.00     0.028 H 
ATOM     38  H15 non d ame     -29.288   8.581  23.288  0.00  0.00     0.028 H 
ENDBRANCH  33  35
BRANCH  33  39
ATOM     39  C13 non d ame     -31.665   8.442  21.981  0.00  0.00    -0.071 C 
ATOM     40  H16 non d ame     -31.366   8.498  20.934  0.00  0.00     0.028 H 
ATOM     41  H17 non d ame     -31.274   7.525  22.422  0.00  0.00     0.028 H 
ATOM     42  H18 non d ame     -32.753   8.440  22.048  0.00  0.00     0.028 H 
ENDBRANCH  33  39
ENDBRANCH   7  33
ENDBRANCH   4   7
ENDBRANCH   1   3
BRANCH   1  43
ATOM     43  C15 non d ame     -32.002  14.088  25.742  0.00  0.00     0.240 C 
ATOM     44  O5  non d ame     -33.161  14.071  25.478  0.00  0.00    -0.271 OA
ATOM     45  N6  non d ame     -31.557  14.514  27.100  0.00  0.00    -0.355 N 
ATOM     46  H46 non d ame     -30.575  14.527  27.337  0.00  0.00     0.162 HD
BRANCH  45  47
ATOM     47  C20 non d ame     -32.561  14.920  28.107  0.00  0.00     0.013 C 
ATOM     48  H30 non d ame     -33.535  14.561  27.773  0.00  0.00     0.072 H 
BRANCH  47  49
ATOM     49  C21 non d ame     -32.577  16.428  28.217  0.00  0.00    -0.038 C 
ATOM     50  H31 non d ame     -32.927  16.647  29.227  0.00  0.00     0.036 H 
ATOM     51  H32 non d ame     -31.588  16.756  27.900  0.00  0.00     0.036 H 
BRANCH  49  52
ATOM     52  C22 non d ame     -33.586  17.089  27.253  0.00  0.00     0.018 C 
ATOM     53  H33 non d ame     -34.143  16.270  26.802  0.00  0.00     0.048 H 
ATOM     54  H34 non d ame     -34.109  17.842  27.845  0.00  0.00     0.048 H 
BRANCH  52  55
ATOM     55  C23 non d ame     -32.920  17.855  26.077  0.00  0.00     0.259 C 
ATOM     56  O7  non d ame     -31.985  17.393  25.509  0.00  0.00    -0.265 OA
BRANCH  55  57
ATOM     57  O8  non d ame     -33.432  19.126  25.694  0.00  0.00    -0.317 OA
BRANCH  57  58
ATOM     58  C29 non d ame     -34.103  19.824  26.748  0.00  0.00     0.052 C 
ATOM     59  H47 non d ame     -34.178  19.114  27.571  0.00  0.00     0.082 H 
ATOM     60  H48 non d ame     -33.554  20.757  26.881  0.00  0.00     0.082 H 
BRANCH  58  61
ATOM     61  C35 non d ame     -35.537  20.165  26.261  0.00  0.00    -0.034 A 
ATOM     62  C30 non d ame     -35.979  19.707  25.023  0.00  0.00    -0.075 A 
ATOM     63  C31 non d ame     -37.267  20.013  24.585  0.00  0.00    -0.082 A 
ATOM     64  H49 non d ame     -35.316  19.110  24.397  0.00  0.00     0.084 H 
ATOM     65  C32 non d ame     -38.113  20.781  25.389  0.00  0.00    -0.083 A 
ATOM     66  H50 non d ame     -37.610  19.652  23.615  0.00  0.00     0.083 H 
ATOM     67  C33 non d ame     -37.667  21.238  26.621  0.00  0.00    -0.082 A 
ATOM     68  H51 non d ame     -39.122  21.024  25.054  0.00  0.00     0.083 H 
ATOM     69  C34 non d ame     -36.381  20.933  27.064  0.00  0.00    -0.075 A 
ATOM     70  H52 non d ame     -38.329  21.839  27.246  0.00  0.00     0.083 H 
ATOM     71  H53 non d ame     -36.039  21.295  28.034  0.00  0.00     0.084 H 
ENDBRANCH  58  61
ENDBRANCH  57  58
ENDBRANCH  55  57
ENDBRANCH  52  55
ENDBRANCH  49  52
ENDBRANCH  47  49
BRANCH  47  72
ATOM     72  C24 non d ame     -32.208  14.313  29.463  0.00  0.00    -0.039 C 
ATOM     73  H35 non d ame     -31.415  14.945  29.865  0.00  0.00     0.036 H 
ATOM     74  H36 non d ame     -33.155  14.223  29.995  0.00  0.00     0.036 H 
BRANCH  72  75
ATOM     75  C25 non d ame     -31.607  12.836  29.313  0.00  0.00    -0.001 C 
ATOM     76  C26 non d ame     -32.826  11.756  29.093  0.00  0.00    -0.035 C 
ATOM     77  C27 non d ame     -32.681  10.746  29.984  0.00  0.00     0.085 C 
ATOM     78  H38 non d ame     -33.779  12.206  29.371  0.00  0.00     0.036 H 
ATOM     79  H39 non d ame     -32.718  11.261  28.128  0.00  0.00     0.036 H 
ATOM     80  N5  non d ame     -31.667  11.202  31.006  0.00  0.00    -0.049 N 
ATOM     81  H40 non d ame     -33.652  10.643  30.469  0.00  0.00     0.075 H 
ATOM     82  H41 non d ame     -32.264   9.914  29.417  0.00  0.00     0.075 H 
ATOM     83  C28 non d ame     -30.941  12.494  30.366  0.00  0.00     0.193 C 
ATOM     84  H42 non d ame     -32.191  11.496  31.818  0.00  0.00     0.280 HD
ATOM     85  H43 non d ame     -30.988  10.458  31.086  0.00  0.00     0.280 HD
ATOM     86  H44 non d ame     -29.938  12.415  29.948  0.00  0.00     0.129 H 
ATOM     87  H37 non d ame     -30.777  12.798  28.609  0.00  0.00     0.046 H 
BRANCH  83  88
ATOM     88  O6  non d ame     -30.873  13.548  31.328  0.00  0.00    -0.369 OA
ATOM     89  H45 non d ame     -31.310  14.328  30.979  0.00  0.00     0.212 HD
ENDBRANCH  83  88
ENDBRANCH  72  75
ENDBRANCH  47  72
ENDBRANCH  45  47
ENDBRANCH   1  43
BRANCH   1  90
ATOM     90  C16 non d ame     -30.839  14.736  23.610  0.00  0.00    -0.035 C 
ATOM     91  H21 non d ame     -31.829  14.813  23.163  0.00  0.00     0.037 H 
ATOM     92  H22 non d ame     -30.403  15.594  24.120  0.00  0.00     0.037 H 
BRANCH  90  93
ATOM     93  C17 non d ame     -29.860  14.367  22.450  0.00  0.00    -0.059 C 
ATOM     94  H23 non d ame     -29.741  13.284  22.448  0.00  0.00     0.038 H 
BRANCH  93  95
ATOM     95  C18 non d ame     -30.418  14.788  21.053  0.00  0.00    -0.073 C 
ATOM     96  H24 non d ame     -30.687  13.897  20.485  0.00  0.00     0.028 H 
ATOM     97  H25 non d ame     -31.302  15.412  21.187  0.00  0.00     0.028 H 
ATOM     98  H26 non d ame     -29.657  15.348  20.511  0.00  0.00     0.028 H 
ENDBRANCH  93  95
BRANCH  93  99
ATOM     99  C19 non d ame     -28.476  14.976  22.689  0.00  0.00    -0.073 C 
ATOM    100  H27 non d ame     -27.750  14.502  22.026  0.00  0.00     0.028 H 
ATOM    101  H28 non d ame     -28.508  16.046  22.482  0.00  0.00     0.028 H 
ATOM    102  H29 non d ame     -28.182  14.816  23.725  0.00  0.00     0.028 H 
ENDBRANCH  93  99
ENDBRANCH  90  93
ENDBRANCH   1  90
TORSDOF 26
ENDMDL
MODEL 10
REMARK VINA RESULT:      -6.6      3.074      8.768
REMARK  26 active torsions:
REMARK  status: ('A' for Active; 'I' for Inactive)
REMARK    1  A    between atoms: C2_2  and  C3_3 
REMARK    2  A    between atoms: C4_6  and  C5_7 
REMARK       I    between atoms: C5_7  and  N2_9 
REMARK    3  A    between atoms: N2_9  and  C6_10 
REMARK    4  A    between atoms: C6_10  and  C7_11 
REMARK    5  A    between atoms: C6_10  and  C8_13 
REMARK       I    between atoms: C7_11  and  N3_14 
REMARK    6  A    between atoms: N3_14  and  C9_15 
REMARK    7  A    between atoms: C9_15  and  C10_16 
REMARK    8  A    between atoms: C9_15  and  C11_18 
REMARK       I    between atoms: C10_16  and  N4_21 
REMARK    9  A    between atoms: C11_18  and  C12_19 
REMARK   10  A    between atoms: C11_18  and  C13_20 
REMARK   11  A    between atoms: N4_21  and  C14_22 
REMARK   12  A    between atoms: C14_22  and  C15_23 
REMARK   13  A    between atoms: C14_22  and  C16_25 
REMARK       I    between atoms: C15_23  and  N6_40 
REMARK   14  A    between atoms: C16_25  and  C17_26 
REMARK   15  A    between atoms: C17_26  and  C18_27 
REMARK   16  A    between atoms: C17_26  and  C19_28 
REMARK   17  A    between atoms: C20_29  and  C21_30 
REMARK   18  A    between atoms: C20_29  and  C24_33 
REMARK   19  A    between atoms: C20_29  and  N6_40 
REMARK   20  A    between atoms: C21_30  and  C22_31 
REMARK   21  A    between atoms: C22_31  and  C23_32 
REMARK   22  A    between atoms: C23_32  and  O8_43 
REMARK   23  A    between atoms: C24_33  and  C25_34 
REMARK   24  A    between atoms: C28_38  and  O6_39 
REMARK   25  A    between atoms: C29_42  and  O8_43 
REMARK   26  A    between atoms: C29_42  and  C35_49 
ROOT
ATOM      1  C14 non d ame     -33.742   6.950  27.862  0.00  0.00     0.089 C 
ATOM      2  H20 non d ame     -33.268   6.568  28.767  0.00  0.00     0.087 H 
ENDROOT
BRANCH   1   3
ATOM      3  N4  non d ame     -34.134   8.327  28.122  0.00  0.00    -0.346 N 
ATOM      4  C10 non d ame     -34.703   8.718  29.463  0.00  0.00     0.241 C 
ATOM      5  O4  non d ame     -34.839   7.906  30.317  0.00  0.00    -0.271 OA
ATOM      6  H19 non d ame     -34.013   9.003  27.381  0.00  0.00     0.163 HD
BRANCH   4   7
ATOM      7  C9  non d ame     -35.098  10.149  29.716  0.00  0.00     0.092 C 
ATOM      8  H11 non d ame     -35.293  10.285  30.780  0.00  0.00     0.088 H 
BRANCH   7   9
ATOM      9  N3  non d ame     -33.985  11.034  29.362  0.00  0.00    -0.346 N 
ATOM     10  C7  non d ame     -32.909  11.248  30.298  0.00  0.00     0.240 C 
ATOM     11  O3  non d ame     -32.924  10.718  31.342  0.00  0.00    -0.271 OA
ATOM     12  H10 non d ame     -33.958  11.500  28.467  0.00  0.00     0.163 HD
BRANCH  10  13
ATOM     13  C6  non d ame     -31.727  12.194  29.918  0.00  0.00     0.086 C 
ATOM     14  H6  non d ame     -31.239  11.904  28.988  0.00  0.00     0.086 H 
BRANCH  13  15
ATOM     15  N2  non d ame     -32.246  13.537  29.714  0.00  0.00    -0.343 N 
ATOM     16  C5  non d ame     -31.567  14.438  28.779  0.00  0.00     0.273 C 
ATOM     17  O2  non d ame     -30.604  14.074  28.199  0.00  0.00    -0.266 OA
ATOM     18  H5  non d ame     -33.067  13.840  30.217  0.00  0.00     0.163 HD
BRANCH  16  19
ATOM     19  C4  non d ame     -32.105  15.859  28.553  0.00  0.00     0.154 A 
ATOM     20  C1  non d ame     -32.607  16.410  27.332  0.00  0.00    -0.017 A 
ATOM     21  C2  non d ame     -32.971  17.736  27.654  0.00  0.00     0.077 A 
ATOM     22  H1  non d ame     -32.693  15.923  26.361  0.00  0.00     0.091 H 
ATOM     23  O1  non d ame     -32.708  17.915  28.915  0.00  0.00    -0.218 OA
ATOM     24  N1  non d ame     -32.201  16.834  29.461  0.00  0.00    -0.123 NA
BRANCH  21  25
ATOM     25  C3  non d ame     -33.564  18.765  26.700  0.00  0.00    -0.029 C 
ATOM     26  H2  non d ame     -33.049  18.711  25.741  0.00  0.00     0.036 H 
ATOM     27  H3  non d ame     -34.624  18.557  26.554  0.00  0.00     0.036 H 
ATOM     28  H4  non d ame     -33.444  19.762  27.121  0.00  0.00     0.036 H 
ENDBRANCH  21  25
ENDBRANCH  16  19
ENDBRANCH  13  15
BRANCH  13  29
ATOM     29  C8  non d ame     -30.705  12.197  31.026  0.00  0.00    -0.049 C 
ATOM     30  H7  non d ame     -30.792  11.278  31.604  0.00  0.00     0.030 H 
ATOM     31  H8  non d ame     -29.705  12.264  30.597  0.00  0.00     0.030 H 
ATOM     32  H9  non d ame     -30.879  13.054  31.678  0.00  0.00     0.030 H 
ENDBRANCH  13  29
ENDBRANCH  10  13
ENDBRANCH   7   9
BRANCH   7  33
ATOM     33  C11 non d ame     -36.338  10.506  28.845  0.00  0.00    -0.033 C 
ATOM     34  H12 non d ame     -36.889  11.290  29.364  0.00  0.00     0.042 H 
BRANCH  33  35
ATOM     35  C12 non d ame     -35.913  11.073  27.454  0.00  0.00    -0.071 C 
ATOM     36  H13 non d ame     -36.492  10.585  26.670  0.00  0.00     0.028 H 
ATOM     37  H14 non d ame     -36.098  12.147  27.429  0.00  0.00     0.028 H 
ATOM     38  H15 non d ame     -34.852  10.883  27.293  0.00  0.00     0.028 H 
ENDBRANCH  33  35
BRANCH  33  39
ATOM     39  C13 non d ame     -37.284   9.273  28.688  0.00  0.00    -0.071 C 
ATOM     40  H16 non d ame     -36.694   8.388  28.448  0.00  0.00     0.028 H 
ATOM     41  H17 non d ame     -37.824   9.107  29.621  0.00  0.00     0.028 H 
ATOM     42  H18 non d ame     -37.998   9.462  27.886  0.00  0.00     0.028 H 
ENDBRANCH  33  39
ENDBRANCH   7  33
ENDBRANCH   4   7
ENDBRANCH   1   3
BRANCH   1  43
ATOM     43  C15 non d ame     -32.778   6.931  26.642  0.00  0.00     0.240 C 
ATOM     44  O5  non d ame     -31.836   6.207  26.644  0.00  0.00    -0.271 OA
ATOM     45  N6  non d ame     -33.035   7.809  25.465  0.00  0.00    -0.355 N 
ATOM     46  H46 non d ame     -33.835   8.425  25.450  0.00  0.00     0.162 HD
BRANCH  45  47
ATOM     47  C20 non d ame     -32.110   7.778  24.311  0.00  0.00     0.013 C 
ATOM     48  H30 non d ame     -31.186   7.298  24.634  0.00  0.00     0.072 H 
BRANCH  47  49
ATOM     49  C21 non d ame     -31.827   9.193  23.860  0.00  0.00    -0.038 C 
ATOM     50  H31 non d ame     -30.779   9.376  24.102  0.00  0.00     0.036 H 
ATOM     51  H32 non d ame     -32.164   9.245  22.825  0.00  0.00     0.036 H 
BRANCH  49  52
ATOM     52  C22 non d ame     -32.644  10.246  24.638  0.00  0.00     0.018 C 
ATOM     53  H33 non d ame     -32.788  11.077  23.950  0.00  0.00     0.048 H 
ATOM     54  H34 non d ame     -33.509   9.713  25.036  0.00  0.00     0.048 H 
BRANCH  52  55
ATOM     55  C23 non d ame     -31.900  10.832  25.869  0.00  0.00     0.259 C 
ATOM     56  O7  non d ame     -32.048  10.355  26.948  0.00  0.00    -0.265 OA
BRANCH  55  57
ATOM     57  O8  non d ame     -31.047  11.958  25.697  0.00  0.00    -0.317 OA
BRANCH  57  58
ATOM     58  C29 non d ame     -31.701  13.102  25.138  0.00  0.00     0.052 C 
ATOM     59  H47 non d ame     -32.638  12.732  24.723  0.00  0.00     0.082 H 
ATOM     60  H48 non d ame     -31.711  13.852  25.928  0.00  0.00     0.082 H 
BRANCH  58  61
ATOM     61  C35 non d ame     -30.824  13.631  23.971  0.00  0.00    -0.034 A 
ATOM     62  C30 non d ame     -30.268  12.741  23.058  0.00  0.00    -0.075 A 
ATOM     63  C31 non d ame     -29.480  13.216  22.010  0.00  0.00    -0.082 A 
ATOM     64  H49 non d ame     -30.449  11.671  23.163  0.00  0.00     0.084 H 
ATOM     65  C32 non d ame     -29.247  14.588  21.879  0.00  0.00    -0.083 A 
ATOM     66  H50 non d ame     -29.047  12.516  21.295  0.00  0.00     0.083 H 
ATOM     67  C33 non d ame     -29.801  15.472  22.795  0.00  0.00    -0.082 A 
ATOM     68  H51 non d ame     -28.633  14.967  21.063  0.00  0.00     0.083 H 
ATOM     69  C34 non d ame     -30.590  15.002  23.842  0.00  0.00    -0.075 A 
ATOM     70  H52 non d ame     -29.615  16.542  22.692  0.00  0.00     0.083 H 
ATOM     71  H53 non d ame     -31.023  15.703  24.556  0.00  0.00     0.084 H 
ENDBRANCH  58  61
ENDBRANCH  57  58
ENDBRANCH  55  57
ENDBRANCH  52  55
ENDBRANCH  49  52
ENDBRANCH  47  49
BRANCH  47  72
ATOM     72  C24 non d ame     -32.742   6.993  23.163  0.00  0.00    -0.039 C 
ATOM     73  H35 non d ame     -32.049   6.177  22.956  0.00  0.00     0.036 H 
ATOM     74  H36 non d ame     -33.759   6.775  23.487  0.00  0.00     0.036 H 
BRANCH  72  75
ATOM     75  C25 non d ame     -32.849   7.874  21.830  0.00  0.00    -0.001 C 
ATOM     76  C26 non d ame     -34.428   8.125  21.450  0.00  0.00    -0.035 C 
ATOM     77  C27 non d ame     -34.626   7.782  20.155  0.00  0.00     0.085 C 
ATOM     78  H38 non d ame     -35.060   7.427  21.999  0.00  0.00     0.036 H 
ATOM     79  H39 non d ame     -34.652   9.192  21.468  0.00  0.00     0.036 H 
ATOM     80  N5  non d ame     -33.405   7.012  19.711  0.00  0.00    -0.049 N 
ATOM     81  H40 non d ame     -35.486   7.111  20.159  0.00  0.00     0.075 H 
ATOM     82  H41 non d ame     -34.671   8.723  19.607  0.00  0.00     0.075 H 
ATOM     83  C28 non d ame     -32.276   7.285  20.833  0.00  0.00     0.193 C 
ATOM     84  H42 non d ame     -33.656   6.035  19.739  0.00  0.00     0.280 HD
ATOM     85  H43 non d ame     -33.103   7.432  18.843  0.00  0.00     0.280 HD
ATOM     86  H44 non d ame     -31.457   7.976  20.638  0.00  0.00     0.129 H 
ATOM     87  H37 non d ame     -32.201   8.750  21.861  0.00  0.00     0.046 H 
BRANCH  83  88
ATOM     88  O6  non d ame     -31.656   6.056  21.217  0.00  0.00    -0.369 OA
ATOM     89  H45 non d ame     -31.341   5.598  20.434  0.00  0.00     0.212 HD
ENDBRANCH  83  88
ENDBRANCH  72  75
ENDBRANCH  47  72
ENDBRANCH  45  47
ENDBRANCH   1  43
BRANCH   1  90
ATOM     90  C16 non d ame     -34.984   6.132  27.547  0.00  0.00    -0.035 C 
ATOM     91  H21 non d ame     -35.811   6.674  28.004  0.00  0.00     0.037 H 
ATOM     92  H22 non d ame     -34.963   5.981  26.468  0.00  0.00     0.037 H 
BRANCH  90  93
ATOM     93  C17 non d ame     -34.978   4.710  28.192  0.00  0.00    -0.059 C 
ATOM     94  H23 non d ame     -35.979   4.518  28.578  0.00  0.00     0.038 H 
BRANCH  93  95
ATOM     95  C18 non d ame     -34.645   3.592  27.153  0.00  0.00    -0.073 C 
ATOM     96  H24 non d ame     -33.934   2.891  27.589  0.00  0.00     0.028 H 
ATOM     97  H25 non d ame     -35.558   3.061  26.885  0.00  0.00     0.028 H 
ATOM     98  H26 non d ame     -34.211   4.043  26.261  0.00  0.00     0.028 H 
ENDBRANCH  93  95
BRANCH  93  99
ATOM     99  C19 non d ame     -34.015   4.653  29.381  0.00  0.00    -0.073 C 
ATOM    100  H27 non d ame     -32.994   4.812  29.030  0.00  0.00     0.028 H 
ATOM    101  H28 non d ame     -34.276   5.431  30.098  0.00  0.00     0.028 H 
ATOM    102  H29 non d ame     -34.087   3.678  29.861  0.00  0.00     0.028 H 
ENDBRANCH  93  99
ENDBRANCH  90  93
ENDBRANCH   1  90
TORSDOF 26
ENDMDL
MODEL 11
REMARK VINA RESULT:      -6.6      2.046      5.841
REMARK  26 active torsions:
REMARK  status: ('A' for Active; 'I' for Inactive)
REMARK    1  A    between atoms: C2_2  and  C3_3 
REMARK    2  A    between atoms: C4_6  and  C5_7 
REMARK       I    between atoms: C5_7  and  N2_9 
REMARK    3  A    between atoms: N2_9  and  C6_10 
REMARK    4  A    between atoms: C6_10  and  C7_11 
REMARK    5  A    between atoms: C6_10  and  C8_13 
REMARK       I    between atoms: C7_11  and  N3_14 
REMARK    6  A    between atoms: N3_14  and  C9_15 
REMARK    7  A    between atoms: C9_15  and  C10_16 
REMARK    8  A    between atoms: C9_15  and  C11_18 
REMARK       I    between atoms: C10_16  and  N4_21 
REMARK    9  A    between atoms: C11_18  and  C12_19 
REMARK   10  A    between atoms: C11_18  and  C13_20 
REMARK   11  A    between atoms: N4_21  and  C14_22 
REMARK   12  A    between atoms: C14_22  and  C15_23 
REMARK   13  A    between atoms: C14_22  and  C16_25 
REMARK       I    between atoms: C15_23  and  N6_40 
REMARK   14  A    between atoms: C16_25  and  C17_26 
REMARK   15  A    between atoms: C17_26  and  C18_27 
REMARK   16  A    between atoms: C17_26  and  C19_28 
REMARK   17  A    between atoms: C20_29  and  C21_30 
REMARK   18  A    between atoms: C20_29  and  C24_33 
REMARK   19  A    between atoms: C20_29  and  N6_40 
REMARK   20  A    between atoms: C21_30  and  C22_31 
REMARK   21  A    between atoms: C22_31  and  C23_32 
REMARK   22  A    between atoms: C23_32  and  O8_43 
REMARK   23  A    between atoms: C24_33  and  C25_34 
REMARK   24  A    between atoms: C28_38  and  O6_39 
REMARK   25  A    between atoms: C29_42  and  O8_43 
REMARK   26  A    between atoms: C29_42  and  C35_49 
ROOT
ATOM      1  C14 non d ame     -31.180  14.590  24.158  0.00  0.00     0.089 C 
ATOM      2  H20 non d ame     -30.197  14.660  24.624  0.00  0.00     0.087 H 
ENDROOT
BRANCH   1   3
ATOM      3  N4  non d ame     -31.440  13.182  23.896  0.00  0.00    -0.346 N 
ATOM      4  C10 non d ame     -31.254  12.157  24.986  0.00  0.00     0.241 C 
ATOM      5  O4  non d ame     -30.889  12.488  26.065  0.00  0.00    -0.271 OA
ATOM      6  H19 non d ame     -31.748  12.921  22.969  0.00  0.00     0.163 HD
BRANCH   4   7
ATOM      7  C9  non d ame     -31.534  10.705  24.698  0.00  0.00     0.092 C 
ATOM      8  H11 non d ame     -30.979  10.086  25.403  0.00  0.00     0.088 H 
BRANCH   7   9
ATOM      9  N3  non d ame     -32.958  10.431  24.906  0.00  0.00    -0.346 N 
ATOM     10  C7  non d ame     -33.375   9.548  25.967  0.00  0.00     0.240 C 
ATOM     11  O3  non d ame     -32.576   9.048  26.662  0.00  0.00    -0.271 OA
ATOM     12  H10 non d ame     -33.658  10.853  24.314  0.00  0.00     0.163 HD
BRANCH  10  13
ATOM     13  C6  non d ame     -34.892   9.257  26.182  0.00  0.00     0.086 C 
ATOM     14  H6  non d ame     -35.118   8.922  27.195  0.00  0.00     0.086 H 
BRANCH  13  15
ATOM     15  N2  non d ame     -35.641  10.485  25.974  0.00  0.00    -0.343 N 
ATOM     16  C5  non d ame     -35.863  11.395  27.101  0.00  0.00     0.273 C 
ATOM     17  O2  non d ame     -35.437  11.128  28.170  0.00  0.00    -0.266 OA
ATOM     18  H5  non d ame     -36.005  10.703  25.057  0.00  0.00     0.163 HD
BRANCH  16  19
ATOM     19  C4  non d ame     -36.651  12.697  26.894  0.00  0.00     0.154 A 
ATOM     20  C1  non d ame     -36.162  13.928  26.351  0.00  0.00    -0.017 A 
ATOM     21  C2  non d ame     -37.271  14.803  26.376  0.00  0.00     0.077 A 
ATOM     22  H1  non d ame     -35.157  14.152  25.995  0.00  0.00     0.091 H 
ATOM     23  O1  non d ame     -38.276  14.141  26.873  0.00  0.00    -0.218 OA
ATOM     24  N1  non d ame     -37.938  12.911  27.184  0.00  0.00    -0.123 NA
BRANCH  21  25
ATOM     25  C3  non d ame     -37.288  16.251  25.905  0.00  0.00    -0.029 C 
ATOM     26  H2  non d ame     -36.348  16.481  25.404  0.00  0.00     0.036 H 
ATOM     27  H3  non d ame     -38.114  16.397  25.209  0.00  0.00     0.036 H 
ATOM     28  H4  non d ame     -37.414  16.910  26.762  0.00  0.00     0.036 H 
ENDBRANCH  21  25
ENDBRANCH  16  19
ENDBRANCH  13  15
BRANCH  13  29
ATOM     29  C8  non d ame     -35.348   8.202  25.206  0.00  0.00    -0.049 C 
ATOM     30  H7  non d ame     -35.763   8.682  24.320  0.00  0.00     0.030 H 
ATOM     31  H8  non d ame     -34.498   7.582  24.919  0.00  0.00     0.030 H 
ATOM     32  H9  non d ame     -36.111   7.579  25.674  0.00  0.00     0.030 H 
ENDBRANCH  13  29
ENDBRANCH  10  13
ENDBRANCH   7   9
BRANCH   7  33
ATOM     33  C11 non d ame     -31.157  10.388  23.221  0.00  0.00    -0.033 C 
ATOM     34  H12 non d ame     -31.437  11.252  22.618  0.00  0.00     0.042 H 
BRANCH  33  35
ATOM     35  C12 non d ame     -29.619  10.180  23.058  0.00  0.00    -0.071 C 
ATOM     36  H13 non d ame     -29.171  10.003  24.035  0.00  0.00     0.028 H 
ATOM     37  H14 non d ame     -29.436   9.320  22.413  0.00  0.00     0.028 H 
ATOM     38  H15 non d ame     -29.177  11.070  22.611  0.00  0.00     0.028 H 
ENDBRANCH  33  35
BRANCH  33  39
ATOM     39  C13 non d ame     -31.955   9.152  22.693  0.00  0.00    -0.071 C 
ATOM     40  H16 non d ame     -31.399   8.678  21.885  0.00  0.00     0.028 H 
ATOM     41  H17 non d ame     -32.098   8.438  23.505  0.00  0.00     0.028 H 
ATOM     42  H18 non d ame     -32.927   9.478  22.324  0.00  0.00     0.028 H 
ENDBRANCH  33  39
ENDBRANCH   7  33
ENDBRANCH   4   7
ENDBRANCH   1   3
BRANCH   1  43
ATOM     43  C15 non d ame     -32.308  15.139  25.077  0.00  0.00     0.240 C 
ATOM     44  O5  non d ame     -33.403  15.293  24.641  0.00  0.00    -0.271 OA
ATOM     45  N6  non d ame     -32.025  15.465  26.503  0.00  0.00    -0.355 N 
ATOM     46  H46 non d ame     -31.099  15.334  26.886  0.00  0.00     0.162 HD
BRANCH  45  47
ATOM     47  C20 non d ame     -33.108  15.986  27.366  0.00  0.00     0.013 C 
ATOM     48  H30 non d ame     -34.060  15.714  26.909  0.00  0.00     0.072 H 
BRANCH  47  49
ATOM     49  C21 non d ame     -32.992  17.490  27.461  0.00  0.00    -0.038 C 
ATOM     50  H31 non d ame     -33.011  17.720  28.528  0.00  0.00     0.036 H 
ATOM     51  H32 non d ame     -32.123  17.757  26.861  0.00  0.00     0.036 H 
BRANCH  49  52
ATOM     52  C22 non d ame     -34.197  18.225  26.836  0.00  0.00     0.018 C 
ATOM     53  H33 non d ame     -33.797  19.149  26.421  0.00  0.00     0.048 H 
ATOM     54  H34 non d ame     -34.678  17.498  26.180  0.00  0.00     0.048 H 
BRANCH  52  55
ATOM     55  C23 non d ame     -35.277  18.650  27.868  0.00  0.00     0.259 C 
ATOM     56  O7  non d ame     -35.569  17.930  28.768  0.00  0.00    -0.265 OA
BRANCH  55  57
ATOM     57  O8  non d ame     -35.927  19.908  27.720  0.00  0.00    -0.317 OA
BRANCH  57  58
ATOM     58  C29 non d ame     -35.718  20.523  26.446  0.00  0.00     0.052 C 
ATOM     59  H47 non d ame     -35.746  21.597  26.629  0.00  0.00     0.082 H 
ATOM     60  H48 non d ame     -34.818  20.062  26.039  0.00  0.00     0.082 H 
BRANCH  58  61
ATOM     61  C35 non d ame     -36.916  20.151  25.531  0.00  0.00    -0.034 A 
ATOM     62  C30 non d ame     -36.732  20.026  24.158  0.00  0.00    -0.075 A 
ATOM     63  C31 non d ame     -37.808  19.692  23.337  0.00  0.00    -0.082 A 
ATOM     64  H49 non d ame     -35.745  20.192  23.725  0.00  0.00     0.084 H 
ATOM     65  C32 non d ame     -39.073  19.484  23.894  0.00  0.00    -0.083 A 
ATOM     66  H50 non d ame     -37.660  19.594  22.261  0.00  0.00     0.083 H 
ATOM     67  C33 non d ame     -39.252  19.612  25.264  0.00  0.00    -0.082 A 
ATOM     68  H51 non d ame     -39.919  19.221  23.259  0.00  0.00     0.083 H 
ATOM     69  C34 non d ame     -38.179  19.944  26.089  0.00  0.00    -0.075 A 
ATOM     70  H52 non d ame     -40.240  19.451  25.696  0.00  0.00     0.083 H 
ATOM     71  H53 non d ame     -38.328  20.042  27.165  0.00  0.00     0.084 H 
ENDBRANCH  58  61
ENDBRANCH  57  58
ENDBRANCH  55  57
ENDBRANCH  52  55
ENDBRANCH  49  52
ENDBRANCH  47  49
BRANCH  47  72
ATOM     72  C24 non d ame     -32.996  15.376  28.762  0.00  0.00    -0.039 C 
ATOM     73  H35 non d ame     -32.947  16.224  29.445  0.00  0.00     0.036 H 
ATOM     74  H36 non d ame     -33.819  14.665  28.834  0.00  0.00     0.036 H 
BRANCH  72  75
ATOM     75  C25 non d ame     -31.637  14.546  28.939  0.00  0.00    -0.001 C 
ATOM     76  C26 non d ame     -31.980  13.000  29.380  0.00  0.00    -0.035 C 
ATOM     77  C27 non d ame     -31.250  12.688  30.477  0.00  0.00     0.085 C 
ATOM     78  H38 non d ame     -33.009  12.930  29.730  0.00  0.00     0.036 H 
ATOM     79  H39 non d ame     -31.613  12.306  28.624  0.00  0.00     0.036 H 
ATOM     80  N5  non d ame     -30.690  13.981  31.018  0.00  0.00    -0.049 N 
ATOM     81  H40 non d ame     -31.963  12.281  31.196  0.00  0.00     0.075 H 
ATOM     82  H41 non d ame     -30.428  12.070  30.115  0.00  0.00     0.075 H 
ATOM     83  C28 non d ame     -30.882  15.073  29.845  0.00  0.00     0.193 C 
ATOM     84  H42 non d ame     -31.274  14.242  31.800  0.00  0.00     0.280 HD
ATOM     85  H43 non d ame     -29.701  13.829  31.156  0.00  0.00     0.280 HD
ATOM     86  H44 non d ame     -30.036  15.389  29.238  0.00  0.00     0.129 H 
ATOM     87  H37 non d ame     -30.957  14.683  28.099  0.00  0.00     0.046 H 
BRANCH  83  88
ATOM     88  O6  non d ame     -31.440  16.276  30.378  0.00  0.00    -0.369 OA
ATOM     89  H45 non d ame     -30.889  16.594  31.097  0.00  0.00     0.212 HD
ENDBRANCH  83  88
ENDBRANCH  72  75
ENDBRANCH  47  72
ENDBRANCH  45  47
ENDBRANCH   1  43
BRANCH   1  90
ATOM     90  C16 non d ame     -31.180  15.347  22.840  0.00  0.00    -0.035 C 
ATOM     91  H21 non d ame     -32.196  15.264  22.458  0.00  0.00     0.037 H 
ATOM     92  H22 non d ame     -30.764  16.328  23.071  0.00  0.00     0.037 H 
BRANCH  90  93
ATOM     93  C17 non d ame     -30.249  14.718  21.755  0.00  0.00    -0.059 C 
ATOM     94  H23 non d ame     -30.389  13.638  21.784  0.00  0.00     0.038 H 
BRANCH  93  95
ATOM     95  C18 non d ame     -30.608  15.207  20.315  0.00  0.00    -0.073 C 
ATOM     96  H24 non d ame     -29.787  14.975  19.637  0.00  0.00     0.028 H 
ATOM     97  H25 non d ame     -31.512  14.701  19.975  0.00  0.00     0.028 H 
ATOM     98  H26 non d ame     -30.777  16.283  20.328  0.00  0.00     0.028 H 
ENDBRANCH  93  95
BRANCH  93  99
ATOM     99  C19 non d ame     -28.777  14.994  22.071  0.00  0.00    -0.073 C 
ATOM    100  H27 non d ame     -28.552  14.655  23.084  0.00  0.00     0.028 H 
ATOM    101  H28 non d ame     -28.145  14.458  21.362  0.00  0.00     0.028 H 
ATOM    102  H29 non d ame     -28.582  16.063  21.993  0.00  0.00     0.028 H 
ENDBRANCH  93  99
ENDBRANCH  90  93
ENDBRANCH   1  90
TORSDOF 26
ENDMDL
MODEL 12
REMARK VINA RESULT:      -6.5      3.627      8.012
REMARK  26 active torsions:
REMARK  status: ('A' for Active; 'I' for Inactive)
REMARK    1  A    between atoms: C2_2  and  C3_3 
REMARK    2  A    between atoms: C4_6  and  C5_7 
REMARK       I    between atoms: C5_7  and  N2_9 
REMARK    3  A    between atoms: N2_9  and  C6_10 
REMARK    4  A    between atoms: C6_10  and  C7_11 
REMARK    5  A    between atoms: C6_10  and  C8_13 
REMARK       I    between atoms: C7_11  and  N3_14 
REMARK    6  A    between atoms: N3_14  and  C9_15 
REMARK    7  A    between atoms: C9_15  and  C10_16 
REMARK    8  A    between atoms: C9_15  and  C11_18 
REMARK       I    between atoms: C10_16  and  N4_21 
REMARK    9  A    between atoms: C11_18  and  C12_19 
REMARK   10  A    between atoms: C11_18  and  C13_20 
REMARK   11  A    between atoms: N4_21  and  C14_22 
REMARK   12  A    between atoms: C14_22  and  C15_23 
REMARK   13  A    between atoms: C14_22  and  C16_25 
REMARK       I    between atoms: C15_23  and  N6_40 
REMARK   14  A    between atoms: C16_25  and  C17_26 
REMARK   15  A    between atoms: C17_26  and  C18_27 
REMARK   16  A    between atoms: C17_26  and  C19_28 
REMARK   17  A    between atoms: C20_29  and  C21_30 
REMARK   18  A    between atoms: C20_29  and  C24_33 
REMARK   19  A    between atoms: C20_29  and  N6_40 
REMARK   20  A    between atoms: C21_30  and  C22_31 
REMARK   21  A    between atoms: C22_31  and  C23_32 
REMARK   22  A    between atoms: C23_32  and  O8_43 
REMARK   23  A    between atoms: C24_33  and  C25_34 
REMARK   24  A    between atoms: C28_38  and  O6_39 
REMARK   25  A    between atoms: C29_42  and  O8_43 
REMARK   26  A    between atoms: C29_42  and  C35_49 
ROOT
ATOM      1  C14 non d ame     -33.027  10.270  25.700  0.00  0.00     0.089 C 
ATOM      2  H20 non d ame     -33.735  10.346  24.874  0.00  0.00     0.087 H 
ENDROOT
BRANCH   1   3
ATOM      3  N4  non d ame     -32.470   8.926  25.676  0.00  0.00    -0.346 N 
ATOM      4  C10 non d ame     -33.077   7.865  24.791  0.00  0.00     0.241 C 
ATOM      5  O4  non d ame     -34.015   8.117  24.110  0.00  0.00    -0.271 OA
ATOM      6  H19 non d ame     -31.673   8.732  26.265  0.00  0.00     0.163 HD
BRANCH   4   7
ATOM      7  C9  non d ame     -32.483   6.481  24.775  0.00  0.00     0.092 C 
ATOM      8  H11 non d ame     -31.424   6.542  25.026  0.00  0.00     0.088 H 
BRANCH   7   9
ATOM      9  N3  non d ame     -33.127   5.661  25.804  0.00  0.00    -0.346 N 
ATOM     10  C7  non d ame     -32.666   5.726  27.170  0.00  0.00     0.240 C 
ATOM     11  O3  non d ame     -31.778   6.433  27.457  0.00  0.00    -0.271 OA
ATOM     12  H10 non d ame     -33.892   5.045  25.572  0.00  0.00     0.163 HD
BRANCH  10  13
ATOM     13  C6  non d ame     -33.353   4.848  28.261  0.00  0.00     0.086 C 
ATOM     14  H6  non d ame     -32.756   4.760  29.169  0.00  0.00     0.086 H 
BRANCH  13  15
ATOM     15  N2  non d ame     -34.608   5.472  28.647  0.00  0.00    -0.343 N 
ATOM     16  C5  non d ame     -35.009   5.475  30.056  0.00  0.00     0.273 C 
ATOM     17  O2  non d ame     -34.316   4.971  30.870  0.00  0.00    -0.266 OA
ATOM     18  H5  non d ame     -35.195   5.897  27.944  0.00  0.00     0.163 HD
BRANCH  16  19
ATOM     19  C4  non d ame     -36.331   6.133  30.478  0.00  0.00     0.154 A 
ATOM     20  C1  non d ame     -36.860   7.382  30.024  0.00  0.00    -0.017 A 
ATOM     21  C2  non d ame     -38.087   7.529  30.708  0.00  0.00     0.077 A 
ATOM     22  H1  non d ame     -36.420   8.077  29.309  0.00  0.00     0.091 H 
ATOM     23  O1  non d ame     -38.238   6.479  31.462  0.00  0.00    -0.218 OA
ATOM     24  N1  non d ame     -37.226   5.651  31.346  0.00  0.00    -0.123 NA
BRANCH  21  25
ATOM     25  C3  non d ame     -39.055   8.698  30.584  0.00  0.00    -0.029 C 
ATOM     26  H2  non d ame     -38.503   9.636  30.651  0.00  0.00     0.036 H 
ATOM     27  H3  non d ame     -39.566   8.646  29.623  0.00  0.00     0.036 H 
ATOM     28  H4  non d ame     -39.788   8.651  31.388  0.00  0.00     0.036 H 
ENDBRANCH  21  25
ENDBRANCH  16  19
ENDBRANCH  13  15
BRANCH  13  29
ATOM     29  C8  non d ame     -33.611   3.468  27.711  0.00  0.00    -0.049 C 
ATOM     30  H7  non d ame     -34.680   3.260  27.736  0.00  0.00     0.030 H 
ATOM     31  H8  non d ame     -33.255   3.415  26.682  0.00  0.00     0.030 H 
ATOM     32  H9  non d ame     -33.083   2.731  28.317  0.00  0.00     0.030 H 
ENDBRANCH  13  29
ENDBRANCH  10  13
ENDBRANCH   7   9
BRANCH   7  33
ATOM     33  C11 non d ame     -32.716   5.834  23.378  0.00  0.00    -0.033 C 
ATOM     34  H12 non d ame     -33.545   6.362  22.906  0.00  0.00     0.042 H 
BRANCH  33  35
ATOM     35  C12 non d ame     -31.468   6.002  22.457  0.00  0.00    -0.071 C 
ATOM     36  H13 non d ame     -31.739   6.588  21.580  0.00  0.00     0.028 H 
ATOM     37  H14 non d ame     -30.678   6.514  23.006  0.00  0.00     0.028 H 
ATOM     38  H15 non d ame     -31.114   5.020  22.142  0.00  0.00     0.028 H 
ENDBRANCH  33  35
BRANCH  33  39
ATOM     39  C13 non d ame     -33.119   4.331  23.519  0.00  0.00    -0.071 C 
ATOM     40  H16 non d ame     -33.751   4.044  22.678  0.00  0.00     0.028 H 
ATOM     41  H17 non d ame     -32.221   3.713  23.527  0.00  0.00     0.028 H 
ATOM     42  H18 non d ame     -33.666   4.187  24.450  0.00  0.00     0.028 H 
ENDBRANCH  33  39
ENDBRANCH   7  33
ENDBRANCH   4   7
ENDBRANCH   1   3
BRANCH   1  43
ATOM     43  C15 non d ame     -31.861  11.292  25.572  0.00  0.00     0.240 C 
ATOM     44  O5  non d ame     -30.808  11.052  26.068  0.00  0.00    -0.271 OA
ATOM     45  N6  non d ame     -32.055  12.565  24.823  0.00  0.00    -0.355 N 
ATOM     46  H46 non d ame     -32.944  12.777  24.392  0.00  0.00     0.162 HD
BRANCH  45  47
ATOM     47  C20 non d ame     -30.936  13.526  24.708  0.00  0.00     0.013 C 
ATOM     48  H30 non d ame     -30.089  13.122  25.262  0.00  0.00     0.072 H 
BRANCH  47  49
ATOM     49  C21 non d ame     -31.354  14.853  25.299  0.00  0.00    -0.038 C 
ATOM     50  H31 non d ame     -30.573  15.561  25.016  0.00  0.00     0.036 H 
ATOM     51  H32 non d ame     -32.380  15.012  24.969  0.00  0.00     0.036 H 
BRANCH  49  52
ATOM     52  C22 non d ame     -31.389  14.837  26.842  0.00  0.00     0.018 C 
ATOM     53  H33 non d ame     -30.878  13.923  27.140  0.00  0.00     0.048 H 
ATOM     54  H34 non d ame     -30.999  15.807  27.156  0.00  0.00     0.048 H 
BRANCH  52  55
ATOM     55  C23 non d ame     -32.822  14.741  27.436  0.00  0.00     0.259 C 
ATOM     56  O7  non d ame     -33.569  13.890  27.074  0.00  0.00    -0.265 OA
BRANCH  55  57
ATOM     57  O8  non d ame     -33.239  15.692  28.408  0.00  0.00    -0.317 OA
BRANCH  57  58
ATOM     58  C29 non d ame     -34.435  16.396  28.058  0.00  0.00     0.052 C 
ATOM     59  H47 non d ame     -34.832  15.883  27.182  0.00  0.00     0.082 H 
ATOM     60  H48 non d ame     -35.024  16.450  28.972  0.00  0.00     0.082 H 
BRANCH  58  61
ATOM     61  C35 non d ame     -34.038  17.839  27.644  0.00  0.00    -0.034 A 
ATOM     62  C30 non d ame     -32.749  18.303  27.888  0.00  0.00    -0.075 A 
ATOM     63  C31 non d ame     -32.393  19.599  27.517  0.00  0.00    -0.082 A 
ATOM     64  H49 non d ame     -32.020  17.654  28.371  0.00  0.00     0.084 H 
ATOM     65  C32 non d ame     -33.331  20.432  26.901  0.00  0.00    -0.083 A 
ATOM     66  H50 non d ame     -31.382  19.960  27.709  0.00  0.00     0.083 H 
ATOM     67  C33 non d ame     -34.616  19.965  26.662  0.00  0.00    -0.082 A 
ATOM     68  H51 non d ame     -33.059  21.446  26.607  0.00  0.00     0.083 H 
ATOM     69  C34 non d ame     -34.976  18.670  27.030  0.00  0.00    -0.075 A 
ATOM     70  H52 non d ame     -35.347  20.617  26.183  0.00  0.00     0.083 H 
ATOM     71  H53 non d ame     -35.987  18.310  26.837  0.00  0.00     0.084 H 
ENDBRANCH  58  61
ENDBRANCH  57  58
ENDBRANCH  55  57
ENDBRANCH  52  55
ENDBRANCH  49  52
ENDBRANCH  47  49
BRANCH  47  72
ATOM     72  C24 non d ame     -30.566  13.716  23.238  0.00  0.00    -0.039 C 
ATOM     73  H35 non d ame     -29.660  13.128  23.089  0.00  0.00     0.036 H 
ATOM     74  H36 non d ame     -31.470  13.475  22.679  0.00  0.00     0.036 H 
BRANCH  72  75
ATOM     75  C25 non d ame     -30.201  15.241  22.911  0.00  0.00    -0.001 C 
ATOM     76  C26 non d ame     -31.324  15.880  21.895  0.00  0.00    -0.035 C 
ATOM     77  C27 non d ame     -30.688  16.450  20.844  0.00  0.00     0.085 C 
ATOM     78  H38 non d ame     -31.910  15.083  21.437  0.00  0.00     0.036 H 
ATOM     79  H39 non d ame     -31.826  16.720  22.374  0.00  0.00     0.036 H 
ATOM     80  N5  non d ame     -29.256  15.973  20.883  0.00  0.00    -0.049 N 
ATOM     81  H40 non d ame     -31.173  16.045  19.955  0.00  0.00     0.075 H 
ATOM     82  H41 non d ame     -30.710  17.522  21.036  0.00  0.00     0.075 H 
ATOM     83  C28 non d ame     -29.041  15.334  22.350  0.00  0.00     0.193 C 
ATOM     84  H42 non d ame     -29.180  15.236  20.197  0.00  0.00     0.280 HD
ATOM     85  H43 non d ame     -28.678  16.798  20.803  0.00  0.00     0.280 HD
ATOM     86  H44 non d ame     -28.493  15.879  23.117  0.00  0.00     0.129 H 
ATOM     87  H37 non d ame     -29.963  15.811  23.809  0.00  0.00     0.046 H 
BRANCH  83  88
ATOM     88  O6  non d ame     -28.390  14.066  22.244  0.00  0.00    -0.369 OA
ATOM     89  H45 non d ame     -28.998  13.424  21.870  0.00  0.00     0.212 HD
ENDBRANCH  83  88
ENDBRANCH  72  75
ENDBRANCH  47  72
ENDBRANCH  45  47
ENDBRANCH   1  43
BRANCH   1  90
ATOM     90  C16 non d ame     -33.751  10.483  27.020  0.00  0.00    -0.035 C 
ATOM     91  H21 non d ame     -33.798  11.563  27.153  0.00  0.00     0.037 H 
ATOM     92  H22 non d ame     -34.671   9.904  26.941  0.00  0.00     0.037 H 
BRANCH  90  93
ATOM     93  C17 non d ame     -32.980   9.921  28.256  0.00  0.00    -0.059 C 
ATOM     94  H23 non d ame     -32.115   9.372  27.885  0.00  0.00     0.038 H 
BRANCH  93  95
ATOM     95  C18 non d ame     -32.460  11.057  29.193  0.00  0.00    -0.073 C 
ATOM     96  H24 non d ame     -31.868  10.622  29.998  0.00  0.00     0.028 H 
ATOM     97  H25 non d ame     -31.839  11.746  28.619  0.00  0.00     0.028 H 
ATOM     98  H26 non d ame     -33.307  11.597  29.615  0.00  0.00     0.028 H 
ENDBRANCH  93  95
BRANCH  93  99
ATOM     99  C19 non d ame     -33.847   8.928  29.035  0.00  0.00    -0.073 C 
ATOM    100  H27 non d ame     -33.383   8.718  30.000  0.00  0.00     0.028 H 
ATOM    101  H28 non d ame     -34.837   9.356  29.195  0.00  0.00     0.028 H 
ATOM    102  H29 non d ame     -33.940   8.003  28.468  0.00  0.00     0.028 H 
ENDBRANCH  93  99
ENDBRANCH  90  93
ENDBRANCH   1  90
TORSDOF 26
ENDMDL
MODEL 13
REMARK VINA RESULT:      -6.5      2.541      7.626
REMARK  26 active torsions:
REMARK  status: ('A' for Active; 'I' for Inactive)
REMARK    1  A    between atoms: C2_2  and  C3_3 
REMARK    2  A    between atoms: C4_6  and  C5_7 
REMARK       I    between atoms: C5_7  and  N2_9 
REMARK    3  A    between atoms: N2_9  and  C6_10 
REMARK    4  A    between atoms: C6_10  and  C7_11 
REMARK    5  A    between atoms: C6_10  and  C8_13 
REMARK       I    between atoms: C7_11  and  N3_14 
REMARK    6  A    between atoms: N3_14  and  C9_15 
REMARK    7  A    between atoms: C9_15  and  C10_16 
REMARK    8  A    between atoms: C9_15  and  C11_18 
REMARK       I    between atoms: C10_16  and  N4_21 
REMARK    9  A    between atoms: C11_18  and  C12_19 
REMARK   10  A    between atoms: C11_18  and  C13_20 
REMARK   11  A    between atoms: N4_21  and  C14_22 
REMARK   12  A    between atoms: C14_22  and  C15_23 
REMARK   13  A    between atoms: C14_22  and  C16_25 
REMARK       I    between atoms: C15_23  and  N6_40 
REMARK   14  A    between atoms: C16_25  and  C17_26 
REMARK   15  A    between atoms: C17_26  and  C18_27 
REMARK   16  A    between atoms: C17_26  and  C19_28 
REMARK   17  A    between atoms: C20_29  and  C21_30 
REMARK   18  A    between atoms: C20_29  and  C24_33 
REMARK   19  A    between atoms: C20_29  and  N6_40 
REMARK   20  A    between atoms: C21_30  and  C22_31 
REMARK   21  A    between atoms: C22_31  and  C23_32 
REMARK   22  A    between atoms: C23_32  and  O8_43 
REMARK   23  A    between atoms: C24_33  and  C25_34 
REMARK   24  A    between atoms: C28_38  and  O6_39 
REMARK   25  A    between atoms: C29_42  and  O8_43 
REMARK   26  A    between atoms: C29_42  and  C35_49 
ROOT
ATOM      1  C14 non d ame     -32.956  12.015  28.843  0.00  0.00     0.089 C 
ATOM      2  H20 non d ame     -33.122  12.356  29.866  0.00  0.00     0.087 H 
ENDROOT
BRANCH   1   3
ATOM      3  N4  non d ame     -33.698  10.775  28.669  0.00  0.00    -0.346 N 
ATOM      4  C10 non d ame     -33.879   9.826  29.828  0.00  0.00     0.241 C 
ATOM      5  O4  non d ame     -33.415  10.081  30.889  0.00  0.00    -0.271 OA
ATOM      6  H19 non d ame     -34.083  10.577  27.756  0.00  0.00     0.163 HD
BRANCH   4   7
ATOM      7  C9  non d ame     -34.655   8.551  29.630  0.00  0.00     0.092 C 
ATOM      8  H11 non d ame     -35.570   8.769  29.080  0.00  0.00     0.088 H 
BRANCH   7   9
ATOM      9  N3  non d ame     -33.869   7.622  28.814  0.00  0.00    -0.346 N 
ATOM     10  C7  non d ame     -34.043   7.596  27.382  0.00  0.00     0.240 C 
ATOM     11  O3  non d ame     -34.812   8.316  26.871  0.00  0.00    -0.271 OA
ATOM     12  H10 non d ame     -33.203   6.994  29.240  0.00  0.00     0.163 HD
BRANCH  10  13
ATOM     13  C6  non d ame     -33.206   6.603  26.518  0.00  0.00     0.086 C 
ATOM     14  H6  non d ame     -33.815   6.049  25.803  0.00  0.00     0.086 H 
BRANCH  13  15
ATOM     15  N2  non d ame     -32.235   7.357  25.741  0.00  0.00    -0.343 N 
ATOM     16  C5  non d ame     -32.562   7.756  24.370  0.00  0.00     0.273 C 
ATOM     17  O2  non d ame     -33.607   7.464  23.901  0.00  0.00    -0.266 OA
ATOM     18  H5  non d ame     -31.343   7.598  26.149  0.00  0.00     0.163 HD
BRANCH  16  19
ATOM     19  C4  non d ame     -31.546   8.554  23.538  0.00  0.00     0.154 A 
ATOM     20  C1  non d ame     -31.327   9.968  23.565  0.00  0.00    -0.017 A 
ATOM     21  C2  non d ame     -30.297  10.194  22.625  0.00  0.00     0.077 A 
ATOM     22  H1  non d ame     -31.838  10.715  24.171  0.00  0.00     0.091 H 
ATOM     23  O1  non d ame     -29.968   9.038  22.125  0.00  0.00    -0.218 OA
ATOM     24  N1  non d ame     -30.684   8.067  22.642  0.00  0.00    -0.123 NA
BRANCH  21  25
ATOM     25  C3  non d ame     -29.684  11.541  22.265  0.00  0.00    -0.029 C 
ATOM     26  H2  non d ame     -30.101  12.314  22.911  0.00  0.00     0.036 H 
ATOM     27  H3  non d ame     -28.604  11.497  22.403  0.00  0.00     0.036 H 
ATOM     28  H4  non d ame     -29.909  11.777  21.226  0.00  0.00     0.036 H 
ENDBRANCH  21  25
ENDBRANCH  16  19
ENDBRANCH  13  15
BRANCH  13  29
ATOM     29  C8  non d ame     -32.497   5.623  27.418  0.00  0.00    -0.049 C 
ATOM     30  H7  non d ame     -33.185   5.273  28.188  0.00  0.00     0.030 H 
ATOM     31  H8  non d ame     -32.150   4.774  26.828  0.00  0.00     0.030 H 
ATOM     32  H9  non d ame     -31.644   6.112  27.888  0.00  0.00     0.030 H 
ENDBRANCH  13  29
ENDBRANCH  10  13
ENDBRANCH   7   9
BRANCH   7  33
ATOM     33  C11 non d ame     -34.946   7.902  31.015  0.00  0.00    -0.033 C 
ATOM     34  H12 non d ame     -34.136   8.186  31.688  0.00  0.00     0.042 H 
BRANCH  33  35
ATOM     35  C12 non d ame     -36.276   8.441  31.628  0.00  0.00    -0.071 C 
ATOM     36  H13 non d ame     -37.123   7.996  31.105  0.00  0.00     0.028 H 
ATOM     37  H14 non d ame     -36.322   8.177  32.684  0.00  0.00     0.028 H 
ATOM     38  H15 non d ame     -36.312   9.525  31.522  0.00  0.00     0.028 H 
ENDBRANCH  33  35
BRANCH  33  39
ATOM     39  C13 non d ame     -34.961   6.343  30.910  0.00  0.00    -0.071 C 
ATOM     40  H16 non d ame     -34.893   5.911  31.909  0.00  0.00     0.028 H 
ATOM     41  H17 non d ame     -35.888   6.019  30.436  0.00  0.00     0.028 H 
ATOM     42  H18 non d ame     -34.113   6.011  30.312  0.00  0.00     0.028 H 
ENDBRANCH  33  39
ENDBRANCH   7  33
ENDBRANCH   4   7
ENDBRANCH   1   3
BRANCH   1  43
ATOM     43  C15 non d ame     -33.459  13.045  27.792  0.00  0.00     0.240 C 
ATOM     44  O5  non d ame     -33.362  12.802  26.633  0.00  0.00    -0.271 OA
ATOM     45  N6  non d ame     -34.071  14.331  28.230  0.00  0.00    -0.355 N 
ATOM     46  H46 non d ame     -34.164  14.547  29.213  0.00  0.00     0.162 HD
BRANCH  45  47
ATOM     47  C20 non d ame     -34.547  15.300  27.219  0.00  0.00     0.013 C 
ATOM     48  H30 non d ame     -33.980  15.133  26.302  0.00  0.00     0.072 H 
BRANCH  47  49
ATOM     49  C21 non d ame     -34.310  16.706  27.723  0.00  0.00    -0.038 C 
ATOM     50  H31 non d ame     -34.934  17.351  27.101  0.00  0.00     0.036 H 
ATOM     51  H32 non d ame     -34.474  16.664  28.799  0.00  0.00     0.036 H 
BRANCH  49  52
ATOM     52  C22 non d ame     -32.855  17.179  27.520  0.00  0.00     0.018 C 
ATOM     53  H33 non d ame     -32.844  18.230  27.803  0.00  0.00     0.048 H 
ATOM     54  H34 non d ame     -32.234  16.463  28.061  0.00  0.00     0.048 H 
BRANCH  52  55
ATOM     55  C23 non d ame     -32.380  17.127  26.042  0.00  0.00     0.259 C 
ATOM     56  O7  non d ame     -32.975  17.711  25.196  0.00  0.00    -0.265 OA
BRANCH  55  57
ATOM     57  O8  non d ame     -31.229  16.361  25.707  0.00  0.00    -0.317 OA
BRANCH  57  58
ATOM     58  C29 non d ame     -31.506  15.228  24.878  0.00  0.00     0.052 C 
ATOM     59  H47 non d ame     -31.059  14.374  25.387  0.00  0.00     0.082 H 
ATOM     60  H48 non d ame     -32.580  15.252  24.695  0.00  0.00     0.082 H 
BRANCH  58  61
ATOM     61  C35 non d ame     -30.773  15.432  23.525  0.00  0.00    -0.034 A 
ATOM     62  C30 non d ame     -29.426  15.106  23.407  0.00  0.00    -0.075 A 
ATOM     63  C31 non d ame     -28.768  15.290  22.191  0.00  0.00    -0.082 A 
ATOM     64  H49 non d ame     -28.886  14.707  24.265  0.00  0.00     0.084 H 
ATOM     65  C32 non d ame     -29.461  15.805  21.093  0.00  0.00    -0.083 A 
ATOM     66  H50 non d ame     -27.712  15.032  22.101  0.00  0.00     0.083 H 
ATOM     67  C33 non d ame     -30.804  16.132  21.217  0.00  0.00    -0.082 A 
ATOM     68  H51 non d ame     -28.954  15.951  20.139  0.00  0.00     0.083 H 
ATOM     69  C34 non d ame     -31.467  15.948  22.429  0.00  0.00    -0.075 A 
ATOM     70  H52 non d ame     -31.343  16.536  20.359  0.00  0.00     0.083 H 
ATOM     71  H53 non d ame     -32.523  16.206  22.518  0.00  0.00     0.084 H 
ENDBRANCH  58  61
ENDBRANCH  57  58
ENDBRANCH  55  57
ENDBRANCH  52  55
ENDBRANCH  49  52
ENDBRANCH  47  49
BRANCH  47  72
ATOM     72  C24 non d ame     -36.039  15.093  26.965  0.00  0.00    -0.039 C 
ATOM     73  H35 non d ame     -36.394  14.494  27.804  0.00  0.00     0.036 H 
ATOM     74  H36 non d ame     -36.445  16.090  26.797  0.00  0.00     0.036 H 
BRANCH  72  75
ATOM     75  C25 non d ame     -36.301  14.245  25.632  0.00  0.00    -0.001 C 
ATOM     76  C26 non d ame     -37.379  15.032  24.672  0.00  0.00    -0.035 C 
ATOM     77  C27 non d ame     -38.368  14.172  24.329  0.00  0.00     0.085 C 
ATOM     78  H38 non d ame     -37.897  15.802  25.243  0.00  0.00     0.036 H 
ATOM     79  H39 non d ame     -36.916  15.281  23.716  0.00  0.00     0.036 H 
ATOM     80  N5  non d ame     -38.238  12.969  25.232  0.00  0.00    -0.049 N 
ATOM     81  H40 non d ame     -39.299  14.691  24.561  0.00  0.00     0.075 H 
ATOM     82  H41 non d ame     -38.151  13.871  23.304  0.00  0.00     0.075 H 
ATOM     83  C28 non d ame     -36.776  13.075  25.908  0.00  0.00     0.193 C 
ATOM     84  H42 non d ame     -38.935  13.076  25.955  0.00  0.00     0.280 HD
ATOM     85  H43 non d ame     -38.256  12.157  24.630  0.00  0.00     0.280 HD
ATOM     86  H44 non d ame     -35.959  12.444  25.562  0.00  0.00     0.129 H 
ATOM     87  H37 non d ame     -35.375  13.909  25.167  0.00  0.00     0.046 H 
BRANCH  83  88
ATOM     88  O6  non d ame     -36.866  12.848  27.316  0.00  0.00    -0.369 OA
ATOM     89  H45 non d ame     -37.294  13.599  27.734  0.00  0.00     0.212 HD
ENDBRANCH  83  88
ENDBRANCH  72  75
ENDBRANCH  47  72
ENDBRANCH  45  47
ENDBRANCH   1  43
BRANCH   1  90
ATOM     90  C16 non d ame     -31.477  11.743  28.625  0.00  0.00    -0.035 C 
ATOM     91  H21 non d ame     -31.308  10.738  29.011  0.00  0.00     0.037 H 
ATOM     92  H22 non d ame     -31.296  11.959  27.572  0.00  0.00     0.037 H 
BRANCH  90  93
ATOM     93  C17 non d ame     -30.538  12.689  29.439  0.00  0.00    -0.059 C 
ATOM     94  H23 non d ame     -29.557  12.218  29.491  0.00  0.00     0.038 H 
BRANCH  93  95
ATOM     95  C18 non d ame     -30.364  14.081  28.750  0.00  0.00    -0.073 C 
ATOM     96  H24 non d ame     -29.630  14.670  29.300  0.00  0.00     0.028 H 
ATOM     97  H25 non d ame     -30.019  13.938  27.725  0.00  0.00     0.028 H 
ATOM     98  H26 non d ame     -31.319  14.605  28.741  0.00  0.00     0.028 H 
ENDBRANCH  93  95
BRANCH  93  99
ATOM     99  C19 non d ame     -31.040  12.853  30.876  0.00  0.00    -0.073 C 
ATOM    100  H27 non d ame     -31.799  12.098  31.085  0.00  0.00     0.028 H 
ATOM    101  H28 non d ame     -30.207  12.730  31.568  0.00  0.00     0.028 H 
ATOM    102  H29 non d ame     -31.471  13.846  31.000  0.00  0.00     0.028 H 
ENDBRANCH  93  99
ENDBRANCH  90  93
ENDBRANCH   1  90
TORSDOF 26
ENDMDL
MODEL 14
REMARK VINA RESULT:      -6.5      2.535      5.466
REMARK  26 active torsions:
REMARK  status: ('A' for Active; 'I' for Inactive)
REMARK    1  A    between atoms: C2_2  and  C3_3 
REMARK    2  A    between atoms: C4_6  and  C5_7 
REMARK       I    between atoms: C5_7  and  N2_9 
REMARK    3  A    between atoms: N2_9  and  C6_10 
REMARK    4  A    between atoms: C6_10  and  C7_11 
REMARK    5  A    between atoms: C6_10  and  C8_13 
REMARK       I    between atoms: C7_11  and  N3_14 
REMARK    6  A    between atoms: N3_14  and  C9_15 
REMARK    7  A    between atoms: C9_15  and  C10_16 
REMARK    8  A    between atoms: C9_15  and  C11_18 
REMARK       I    between atoms: C10_16  and  N4_21 
REMARK    9  A    between atoms: C11_18  and  C12_19 
REMARK   10  A    between atoms: C11_18  and  C13_20 
REMARK   11  A    between atoms: N4_21  and  C14_22 
REMARK   12  A    between atoms: C14_22  and  C15_23 
REMARK   13  A    between atoms: C14_22  and  C16_25 
REMARK       I    between atoms: C15_23  and  N6_40 
REMARK   14  A    between atoms: C16_25  and  C17_26 
REMARK   15  A    between atoms: C17_26  and  C18_27 
REMARK   16  A    between atoms: C17_26  and  C19_28 
REMARK   17  A    between atoms: C20_29  and  C21_30 
REMARK   18  A    between atoms: C20_29  and  C24_33 
REMARK   19  A    between atoms: C20_29  and  N6_40 
REMARK   20  A    between atoms: C21_30  and  C22_31 
REMARK   21  A    between atoms: C22_31  and  C23_32 
REMARK   22  A    between atoms: C23_32  and  O8_43 
REMARK   23  A    between atoms: C24_33  and  C25_34 
REMARK   24  A    between atoms: C28_38  and  O6_39 
REMARK   25  A    between atoms: C29_42  and  O8_43 
REMARK   26  A    between atoms: C29_42  and  C35_49 
ROOT
ATOM      1  C14 non d ame     -31.023  14.005  24.674  0.00  0.00     0.089 C 
ATOM      2  H20 non d ame     -30.144  13.454  25.008  0.00  0.00     0.087 H 
ENDROOT
BRANCH   1   3
ATOM      3  N4  non d ame     -32.140  13.072  24.644  0.00  0.00    -0.346 N 
ATOM      4  C10 non d ame     -31.923  11.614  24.967  0.00  0.00     0.241 C 
ATOM      5  O4  non d ame     -30.841  11.215  25.243  0.00  0.00    -0.271 OA
ATOM      6  H19 non d ame     -33.053  13.431  24.405  0.00  0.00     0.163 HD
BRANCH   4   7
ATOM      7  C9  non d ame     -33.091  10.664  24.937  0.00  0.00     0.092 C 
ATOM      8  H11 non d ame     -33.388  10.493  23.902  0.00  0.00     0.088 H 
BRANCH   7   9
ATOM      9  N3  non d ame     -32.684   9.371  25.492  0.00  0.00    -0.346 N 
ATOM     10  C7  non d ame     -32.743   8.185  24.673  0.00  0.00     0.240 C 
ATOM     11  O3  non d ame     -33.117   8.254  23.566  0.00  0.00    -0.271 OA
ATOM     12  H10 non d ame     -32.361   9.295  26.445  0.00  0.00     0.163 HD
BRANCH  10  13
ATOM     13  C6  non d ame     -32.311   6.809  25.270  0.00  0.00     0.086 C 
ATOM     14  H6  non d ame     -31.411   6.879  25.882  0.00  0.00     0.086 H 
BRANCH  13  15
ATOM     15  N2  non d ame     -33.368   6.321  26.140  0.00  0.00    -0.343 N 
ATOM     16  C5  non d ame     -33.449   6.806  27.520  0.00  0.00     0.273 C 
ATOM     17  O2  non d ame     -32.658   7.587  27.921  0.00  0.00    -0.266 OA
ATOM     18  H5  non d ame     -34.037   5.650  25.790  0.00  0.00     0.163 HD
BRANCH  16  19
ATOM     19  C4  non d ame     -34.562   6.299  28.450  0.00  0.00     0.154 A 
ATOM     20  C1  non d ame     -35.972   6.472  28.285  0.00  0.00    -0.017 A 
ATOM     21  C2  non d ame     -36.552   5.825  29.399  0.00  0.00     0.077 A 
ATOM     22  H1  non d ame     -36.496   6.989  27.481  0.00  0.00     0.091 H 
ATOM     23  O1  non d ame     -35.578   5.338  30.113  0.00  0.00    -0.218 OA
ATOM     24  N1  non d ame     -34.408   5.602  29.579  0.00  0.00    -0.123 NA
BRANCH  21  25
ATOM     25  C3  non d ame     -38.039   5.717  29.706  0.00  0.00    -0.029 C 
ATOM     26  H2  non d ame     -38.286   4.683  29.950  0.00  0.00     0.036 H 
ATOM     27  H3  non d ame     -38.283   6.357  30.554  0.00  0.00     0.036 H 
ATOM     28  H4  non d ame     -38.614   6.031  28.836  0.00  0.00     0.036 H 
ENDBRANCH  21  25
ENDBRANCH  16  19
ENDBRANCH  13  15
BRANCH  13  29
ATOM     29  C8  non d ame     -32.066   5.827  24.152  0.00  0.00    -0.049 C 
ATOM     30  H7  non d ame     -31.007   5.576  24.114  0.00  0.00     0.030 H 
ATOM     31  H8  non d ame     -32.648   4.922  24.331  0.00  0.00     0.030 H 
ATOM     32  H9  non d ame     -32.369   6.273  23.205  0.00  0.00     0.030 H 
ENDBRANCH  13  29
ENDBRANCH  10  13
ENDBRANCH   7   9
BRANCH   7  33
ATOM     33  C11 non d ame     -34.255  11.248  25.790  0.00  0.00    -0.033 C 
ATOM     34  H12 non d ame     -34.454  12.257  25.427  0.00  0.00     0.042 H 
BRANCH  33  35
ATOM     35  C12 non d ame     -35.565  10.418  25.610  0.00  0.00    -0.071 C 
ATOM     36  H13 non d ame     -35.313   9.407  25.292  0.00  0.00     0.028 H 
ATOM     37  H14 non d ame     -36.102  10.378  26.558  0.00  0.00     0.028 H 
ATOM     38  H15 non d ame     -36.194  10.890  24.855  0.00  0.00     0.028 H 
ENDBRANCH  33  35
BRANCH  33  39
ATOM     39  C13 non d ame     -33.851  11.349  27.296  0.00  0.00    -0.071 C 
ATOM     40  H16 non d ame     -33.933  10.366  27.761  0.00  0.00     0.028 H 
ATOM     41  H17 non d ame     -32.822  11.703  27.373  0.00  0.00     0.028 H 
ATOM     42  H18 non d ame     -34.513  12.049  27.804  0.00  0.00     0.028 H 
ENDBRANCH  33  39
ENDBRANCH   7  33
ENDBRANCH   4   7
ENDBRANCH   1   3
BRANCH   1  43
ATOM     43  C15 non d ame     -31.382  15.177  25.631  0.00  0.00     0.240 C 
ATOM     44  O5  non d ame     -31.017  16.279  25.378  0.00  0.00    -0.271 OA
ATOM     45  N6  non d ame     -32.189  14.927  26.858  0.00  0.00    -0.355 N 
ATOM     46  H46 non d ame     -32.510  13.995  27.081  0.00  0.00     0.162 HD
BRANCH  45  47
ATOM     47  C20 non d ame     -32.524  16.052  27.759  0.00  0.00     0.013 C 
ATOM     48  H30 non d ame     -31.850  16.877  27.529  0.00  0.00     0.072 H 
BRANCH  47  49
ATOM     49  C21 non d ame     -32.337  15.617  29.194  0.00  0.00    -0.038 C 
ATOM     50  H31 non d ame     -31.258  15.594  29.357  0.00  0.00     0.036 H 
ATOM     51  H32 non d ame     -32.964  16.281  29.787  0.00  0.00     0.036 H 
BRANCH  49  52
ATOM     52  C22 non d ame     -32.847  14.184  29.458  0.00  0.00     0.018 C 
ATOM     53  H33 non d ame     -33.483  14.254  30.339  0.00  0.00     0.048 H 
ATOM     54  H34 non d ame     -33.266  13.841  28.510  0.00  0.00     0.048 H 
BRANCH  52  55
ATOM     55  C23 non d ame     -31.723  13.174  29.819  0.00  0.00     0.259 C 
ATOM     56  O7  non d ame     -30.674  13.214  29.262  0.00  0.00    -0.265 OA
BRANCH  55  57
ATOM     57  O8  non d ame     -31.965  12.188  30.816  0.00  0.00    -0.317 OA
BRANCH  57  58
ATOM     58  C29 non d ame     -32.314  10.904  30.290  0.00  0.00     0.052 C 
ATOM     59  H47 non d ame     -32.542  11.069  29.237  0.00  0.00     0.082 H 
ATOM     60  H48 non d ame     -31.501  10.237  30.575  0.00  0.00     0.082 H 
BRANCH  58  61
ATOM     61  C35 non d ame     -33.609  10.430  31.003  0.00  0.00    -0.034 A 
ATOM     62  C30 non d ame     -34.191  11.222  31.989  0.00  0.00    -0.075 A 
ATOM     63  C31 non d ame     -35.354  10.796  32.630  0.00  0.00    -0.082 A 
ATOM     64  H49 non d ame     -33.735  12.174  32.260  0.00  0.00     0.084 H 
ATOM     65  C32 non d ame     -35.934   9.573  32.284  0.00  0.00    -0.083 A 
ATOM     66  H50 non d ame     -35.807  11.419  33.402  0.00  0.00     0.083 H 
ATOM     67  C33 non d ame     -35.348   8.786  31.302  0.00  0.00    -0.082 A 
ATOM     68  H51 non d ame     -36.843   9.234  32.780  0.00  0.00     0.083 H 
ATOM     69  C34 non d ame     -34.187   9.208  30.657  0.00  0.00    -0.075 A 
ATOM     70  H52 non d ame     -35.802   7.831  31.035  0.00  0.00     0.083 H 
ATOM     71  H53 non d ame     -33.734   8.584  29.886  0.00  0.00     0.084 H 
ENDBRANCH  58  61
ENDBRANCH  57  58
ENDBRANCH  55  57
ENDBRANCH  52  55
ENDBRANCH  49  52
ENDBRANCH  47  49
BRANCH  47  72
ATOM     72  C24 non d ame     -33.975  16.476  27.539  0.00  0.00    -0.039 C 
ATOM     73  H35 non d ame     -34.358  15.807  26.767  0.00  0.00     0.036 H 
ATOM     74  H36 non d ame     -34.428  16.481  28.529  0.00  0.00     0.036 H 
BRANCH  72  75
ATOM     75  C25 non d ame     -34.076  17.968  26.965  0.00  0.00    -0.001 C 
ATOM     76  C26 non d ame     -32.603  18.695  27.034  0.00  0.00    -0.035 C 
ATOM     77  C27 non d ame     -32.736  19.893  27.652  0.00  0.00     0.085 C 
ATOM     78  H38 non d ame     -31.941  18.137  27.696  0.00  0.00     0.036 H 
ATOM     79  H39 non d ame     -32.271  18.962  26.030  0.00  0.00     0.036 H 
ATOM     80  N5  non d ame     -34.098  19.905  28.302  0.00  0.00    -0.049 N 
ATOM     81  H40 non d ame     -31.971  19.906  28.430  0.00  0.00     0.075 H 
ATOM     82  H41 non d ame     -32.716  20.636  26.856  0.00  0.00     0.075 H 
ATOM     83  C28 non d ame     -34.914  18.676  27.647  0.00  0.00     0.193 C 
ATOM     84  H42 non d ame     -33.950  19.708  29.282  0.00  0.00     0.280 HD
ATOM     85  H43 non d ame     -34.540  20.770  28.023  0.00  0.00     0.280 HD
ATOM     86  H44 non d ame     -35.679  18.858  26.894  0.00  0.00     0.129 H 
ATOM     87  H37 non d ame     -34.606  18.010  26.014  0.00  0.00     0.046 H 
BRANCH  83  88
ATOM     88  O6  non d ame     -35.558  17.912  28.669  0.00  0.00    -0.369 OA
ATOM     89  H45 non d ame     -36.443  18.255  28.815  0.00  0.00     0.212 HD
ENDBRANCH  83  88
ENDBRANCH  72  75
ENDBRANCH  47  72
ENDBRANCH  45  47
ENDBRANCH   1  43
BRANCH   1  90
ATOM     90  C16 non d ame     -30.791  14.544  23.271  0.00  0.00    -0.035 C 
ATOM     91  H21 non d ame     -31.475  13.988  22.631  0.00  0.00     0.037 H 
ATOM     92  H22 non d ame     -30.884  15.626  23.358  0.00  0.00     0.037 H 
BRANCH  90  93
ATOM     93  C17 non d ame     -29.354  14.267  22.723  0.00  0.00    -0.059 C 
ATOM     94  H23 non d ame     -28.692  14.142  23.579  0.00  0.00     0.038 H 
BRANCH  93  95
ATOM     95  C18 non d ame     -29.289  12.958  21.874  0.00  0.00    -0.073 C 
ATOM     96  H24 non d ame     -30.297  12.572  21.723  0.00  0.00     0.028 H 
ATOM     97  H25 non d ame     -28.836  13.174  20.907  0.00  0.00     0.028 H 
ATOM     98  H26 non d ame     -28.690  12.214  22.398  0.00  0.00     0.028 H 
ENDBRANCH  93  95
BRANCH  93  99
ATOM     99  C19 non d ame     -28.836  15.463  21.919  0.00  0.00    -0.073 C 
ATOM    100  H27 non d ame     -29.681  16.048  21.553  0.00  0.00     0.028 H 
ATOM    101  H28 non d ame     -28.213  16.089  22.559  0.00  0.00     0.028 H 
ATOM    102  H29 non d ame     -28.247  15.106  21.076  0.00  0.00     0.028 H 
ENDBRANCH  93  99
ENDBRANCH  90  93
ENDBRANCH   1  90
TORSDOF 26
ENDMDL
MODEL 15
REMARK VINA RESULT:      -6.5      3.044      6.209
REMARK  26 active torsions:
REMARK  status: ('A' for Active; 'I' for Inactive)
REMARK    1  A    between atoms: C2_2  and  C3_3 
REMARK    2  A    between atoms: C4_6  and  C5_7 
REMARK       I    between atoms: C5_7  and  N2_9 
REMARK    3  A    between atoms: N2_9  and  C6_10 
REMARK    4  A    between atoms: C6_10  and  C7_11 
REMARK    5  A    between atoms: C6_10  and  C8_13 
REMARK       I    between atoms: C7_11  and  N3_14 
REMARK    6  A    between atoms: N3_14  and  C9_15 
REMARK    7  A    between atoms: C9_15  and  C10_16 
REMARK    8  A    between atoms: C9_15  and  C11_18 
REMARK       I    between atoms: C10_16  and  N4_21 
REMARK    9  A    between atoms: C11_18  and  C12_19 
REMARK   10  A    between atoms: C11_18  and  C13_20 
REMARK   11  A    between atoms: N4_21  and  C14_22 
REMARK   12  A    between atoms: C14_22  and  C15_23 
REMARK   13  A    between atoms: C14_22  and  C16_25 
REMARK       I    between atoms: C15_23  and  N6_40 
REMARK   14  A    between atoms: C16_25  and  C17_26 
REMARK   15  A    between atoms: C17_26  and  C18_27 
REMARK   16  A    between atoms: C17_26  and  C19_28 
REMARK   17  A    between atoms: C20_29  and  C21_30 
REMARK   18  A    between atoms: C20_29  and  C24_33 
REMARK   19  A    between atoms: C20_29  and  N6_40 
REMARK   20  A    between atoms: C21_30  and  C22_31 
REMARK   21  A    between atoms: C22_31  and  C23_32 
REMARK   22  A    between atoms: C23_32  and  O8_43 
REMARK   23  A    between atoms: C24_33  and  C25_34 
REMARK   24  A    between atoms: C28_38  and  O6_39 
REMARK   25  A    between atoms: C29_42  and  O8_43 
REMARK   26  A    between atoms: C29_42  and  C35_49 
ROOT
ATOM      1  C14 non d ame     -31.084  14.098  24.348  0.00  0.00     0.089 C 
ATOM      2  H20 non d ame     -30.081  13.675  24.417  0.00  0.00     0.087 H 
ENDROOT
BRANCH   1   3
ATOM      3  N4  non d ame     -32.032  13.010  24.539  0.00  0.00    -0.346 N 
ATOM      4  C10 non d ame     -31.548  11.639  24.938  0.00  0.00     0.241 C 
ATOM      5  O4  non d ame     -30.390  11.433  25.096  0.00  0.00    -0.271 OA
ATOM      6  H19 non d ame     -33.013  13.205  24.398  0.00  0.00     0.163 HD
BRANCH   4   7
ATOM      7  C9  non d ame     -32.544  10.527  25.137  0.00  0.00     0.092 C 
ATOM      8  H11 non d ame     -33.460  10.765  24.598  0.00  0.00     0.088 H 
BRANCH   7   9
ATOM      9  N3  non d ame     -32.013   9.286  24.565  0.00  0.00    -0.346 N 
ATOM     10  C7  non d ame     -32.564   8.766  23.338  0.00  0.00     0.240 C 
ATOM     11  O3  non d ame     -33.435   9.332  22.798  0.00  0.00    -0.271 OA
ATOM     12  H10 non d ame     -31.264   8.786  25.020  0.00  0.00     0.163 HD
BRANCH  10  13
ATOM     13  C6  non d ame     -31.997   7.443  22.735  0.00  0.00     0.086 C 
ATOM     14  H6  non d ame     -30.995   7.211  23.095  0.00  0.00     0.086 H 
BRANCH  13  15
ATOM     15  N2  non d ame     -32.851   6.338  23.139  0.00  0.00    -0.343 N 
ATOM     16  C5  non d ame     -32.601   5.664  24.416  0.00  0.00     0.273 C 
ATOM     17  O2  non d ame     -31.711   6.016  25.108  0.00  0.00    -0.266 OA
ATOM     18  H5  non d ame     -33.607   6.041  22.539  0.00  0.00     0.163 HD
BRANCH  16  19
ATOM     19  C4  non d ame     -33.496   4.495  24.856  0.00  0.00     0.154 A 
ATOM     20  C1  non d ame     -34.493   4.508  25.883  0.00  0.00    -0.017 A 
ATOM     21  C2  non d ame     -35.023   3.199  25.892  0.00  0.00     0.077 A 
ATOM     22  H1  non d ame     -34.785   5.339  26.524  0.00  0.00     0.091 H 
ATOM     23  O1  non d ame     -34.399   2.522  24.972  0.00  0.00    -0.218 OA
ATOM     24  N1  non d ame     -33.503   3.257  24.355  0.00  0.00    -0.123 NA
BRANCH  21  25
ATOM     25  C3  non d ame     -36.123   2.678  26.808  0.00  0.00    -0.029 C 
ATOM     26  H2  non d ame     -36.511   1.739  26.412  0.00  0.00     0.036 H 
ATOM     27  H3  non d ame     -35.716   2.510  27.805  0.00  0.00     0.036 H 
ATOM     28  H4  non d ame     -36.928   3.409  26.862  0.00  0.00     0.036 H 
ENDBRANCH  21  25
ENDBRANCH  16  19
ENDBRANCH  13  15
BRANCH  13  29
ATOM     29  C8  non d ame     -31.964   7.546  21.231  0.00  0.00    -0.049 C 
ATOM     30  H7  non d ame     -30.932   7.634  20.895  0.00  0.00     0.030 H 
ATOM     31  H8  non d ame     -32.413   6.653  20.796  0.00  0.00     0.030 H 
ATOM     32  H9  non d ame     -32.526   8.426  20.915  0.00  0.00     0.030 H 
ENDBRANCH  13  29
ENDBRANCH  10  13
ENDBRANCH   7   9
BRANCH   7  33
ATOM     33  C11 non d ame     -32.798  10.326  26.660  0.00  0.00    -0.033 C 
ATOM     34  H12 non d ame     -32.061  10.923  27.197  0.00  0.00     0.042 H 
BRANCH  33  35
ATOM     35  C12 non d ame     -34.212  10.840  27.074  0.00  0.00    -0.071 C 
ATOM     36  H13 non d ame     -34.486  11.691  26.451  0.00  0.00     0.028 H 
ATOM     37  H14 non d ame     -34.941  10.042  26.941  0.00  0.00     0.028 H 
ATOM     38  H15 non d ame     -34.195  11.147  28.120  0.00  0.00     0.028 H 
ENDBRANCH  33  35
BRANCH  33  39
ATOM     39  C13 non d ame     -32.597   8.831  27.068  0.00  0.00    -0.071 C 
ATOM     40  H16 non d ame     -33.474   8.482  27.614  0.00  0.00     0.028 H 
ATOM     41  H17 non d ame     -32.462   8.224  26.172  0.00  0.00     0.028 H 
ATOM     42  H18 non d ame     -31.715   8.742  27.701  0.00  0.00     0.028 H 
ENDBRANCH  33  39
ENDBRANCH   7  33
ENDBRANCH   4   7
ENDBRANCH   1   3
BRANCH   1  43
ATOM     43  C15 non d ame     -31.342  15.178  25.436  0.00  0.00     0.240 C 
ATOM     44  O5  non d ame     -30.803  16.234  25.360  0.00  0.00    -0.271 OA
ATOM     45  N6  non d ame     -32.270  14.899  26.569  0.00  0.00    -0.355 N 
ATOM     46  H46 non d ame     -32.738  14.006  26.641  0.00  0.00     0.162 HD
BRANCH  45  47
ATOM     47  C20 non d ame     -32.507  15.937  27.596  0.00  0.00     0.013 C 
ATOM     48  H30 non d ame     -31.821  16.761  27.404  0.00  0.00     0.072 H 
BRANCH  47  49
ATOM     49  C21 non d ame     -32.243  15.354  28.966  0.00  0.00    -0.038 C 
ATOM     50  H31 non d ame     -31.162  15.224  29.028  0.00  0.00     0.036 H 
ATOM     51  H32 non d ame     -32.754  16.011  29.669  0.00  0.00     0.036 H 
BRANCH  49  52
ATOM     52  C22 non d ame     -32.862  13.952  29.151  0.00  0.00     0.018 C 
ATOM     53  H33 non d ame     -33.267  13.938  30.161  0.00  0.00     0.048 H 
ATOM     54  H34 non d ame     -33.525  13.807  28.296  0.00  0.00     0.048 H 
BRANCH  52  55
ATOM     55  C23 non d ame     -31.825  12.796  29.088  0.00  0.00     0.259 C 
ATOM     56  O7  non d ame     -30.888  12.865  28.361  0.00  0.00    -0.265 OA
BRANCH  55  57
ATOM     57  O8  non d ame     -32.016  11.644  29.900  0.00  0.00    -0.317 OA
BRANCH  57  58
ATOM     58  C29 non d ame     -32.722  11.901  31.118  0.00  0.00     0.052 C 
ATOM     59  H47 non d ame     -31.984  11.801  31.913  0.00  0.00     0.082 H 
ATOM     60  H48 non d ame     -33.235  12.850  30.966  0.00  0.00     0.082 H 
BRANCH  58  61
ATOM     61  C35 non d ame     -33.790  10.789  31.297  0.00  0.00    -0.034 A 
ATOM     62  C30 non d ame     -34.745  10.896  32.303  0.00  0.00    -0.075 A 
ATOM     63  C31 non d ame     -35.704   9.896  32.464  0.00  0.00    -0.082 A 
ATOM     64  H49 non d ame     -34.741  11.761  32.966  0.00  0.00     0.084 H 
ATOM     65  C32 non d ame     -35.704   8.786  31.615  0.00  0.00    -0.083 A 
ATOM     66  H50 non d ame     -36.452   9.984  33.253  0.00  0.00     0.083 H 
ATOM     67  C33 non d ame     -34.748   8.683  30.614  0.00  0.00    -0.082 A 
ATOM     68  H51 non d ame     -36.451   8.002  31.734  0.00  0.00     0.083 H 
ATOM     69  C34 non d ame     -33.789   9.680  30.449  0.00  0.00    -0.075 A 
ATOM     70  H52 non d ame     -34.749   7.815  29.955  0.00  0.00     0.083 H 
ATOM     71  H53 non d ame     -33.042   9.592  29.660  0.00  0.00     0.084 H 
ENDBRANCH  58  61
ENDBRANCH  57  58
ENDBRANCH  55  57
ENDBRANCH  52  55
ENDBRANCH  49  52
ENDBRANCH  47  49
BRANCH  47  72
ATOM     72  C24 non d ame     -33.953  16.421  27.517  0.00  0.00    -0.039 C 
ATOM     73  H35 non d ame     -34.439  15.766  26.792  0.00  0.00     0.036 H 
ATOM     74  H36 non d ame     -34.306  16.449  28.548  0.00  0.00     0.036 H 
BRANCH  72  75
ATOM     75  C25 non d ame     -34.048  17.914  26.945  0.00  0.00    -0.001 C 
ATOM     76  C26 non d ame     -32.563  18.619  26.973  0.00  0.00    -0.035 C 
ATOM     77  C27 non d ame     -32.661  19.819  27.593  0.00  0.00     0.085 C 
ATOM     78  H38 non d ame     -31.892  18.052  27.618  0.00  0.00     0.036 H 
ATOM     79  H39 non d ame     -32.255  18.881  25.960  0.00  0.00     0.036 H 
ATOM     80  N5  non d ame     -34.005  19.852  28.280  0.00  0.00    -0.049 N 
ATOM     81  H40 non d ame     -31.875  19.821  28.349  0.00  0.00     0.075 H 
ATOM     82  H41 non d ame     -32.652  20.562  26.795  0.00  0.00     0.075 H 
ATOM     83  C28 non d ame     -34.857  18.635  27.649  0.00  0.00     0.193 C 
ATOM     84  H42 non d ame     -33.833  19.653  29.255  0.00  0.00     0.280 HD
ATOM     85  H43 non d ame     -34.441  20.723  28.012  0.00  0.00     0.280 HD
ATOM     86  H44 non d ame     -35.639  18.827  26.916  0.00  0.00     0.129 H 
ATOM     87  H37 non d ame     -34.603  17.963  26.008  0.00  0.00     0.046 H 
BRANCH  83  88
ATOM     88  O6  non d ame     -35.484  17.881  28.689  0.00  0.00    -0.369 OA
ATOM     89  H45 non d ame     -35.980  17.156  28.303  0.00  0.00     0.212 HD
ENDBRANCH  83  88
ENDBRANCH  72  75
ENDBRANCH  47  72
ENDBRANCH  45  47
ENDBRANCH   1  43
BRANCH   1  90
ATOM     90  C16 non d ame     -31.294  14.702  22.968  0.00  0.00    -0.035 C 
ATOM     91  H21 non d ame     -32.121  14.143  22.531  0.00  0.00     0.037 H 
ATOM     92  H22 non d ame     -31.390  15.774  23.134  0.00  0.00     0.037 H 
BRANCH  90  93
ATOM     93  C17 non d ame     -30.078  14.510  22.008  0.00  0.00    -0.059 C 
ATOM     94  H23 non d ame     -29.930  13.439  21.870  0.00  0.00     0.038 H 
BRANCH  93  95
ATOM     95  C18 non d ame     -30.332  15.141  20.602  0.00  0.00    -0.073 C 
ATOM     96  H24 non d ame     -29.743  14.612  19.853  0.00  0.00     0.028 H 
ATOM     97  H25 non d ame     -31.391  15.060  20.353  0.00  0.00     0.028 H 
ATOM     98  H26 non d ame     -30.042  16.191  20.617  0.00  0.00     0.028 H 
ENDBRANCH  93  95
BRANCH  93  99
ATOM     99  C19 non d ame     -28.796  15.069  22.631  0.00  0.00    -0.073 C 
ATOM    100  H27 non d ame     -28.941  15.203  23.704  0.00  0.00     0.028 H 
ATOM    101  H28 non d ame     -27.975  14.373  22.461  0.00  0.00     0.028 H 
ATOM    102  H29 non d ame     -28.558  16.029  22.174  0.00  0.00     0.028 H 
ENDBRANCH  93  99
ENDBRANCH  90  93
ENDBRANCH   1  90
TORSDOF 26
ENDMDL
MODEL 16
REMARK VINA RESULT:      -6.5      3.073      7.872
REMARK  26 active torsions:
REMARK  status: ('A' for Active; 'I' for Inactive)
REMARK    1  A    between atoms: C2_2  and  C3_3 
REMARK    2  A    between atoms: C4_6  and  C5_7 
REMARK       I    between atoms: C5_7  and  N2_9 
REMARK    3  A    between atoms: N2_9  and  C6_10 
REMARK    4  A    between atoms: C6_10  and  C7_11 
REMARK    5  A    between atoms: C6_10  and  C8_13 
REMARK       I    between atoms: C7_11  and  N3_14 
REMARK    6  A    between atoms: N3_14  and  C9_15 
REMARK    7  A    between atoms: C9_15  and  C10_16 
REMARK    8  A    between atoms: C9_15  and  C11_18 
REMARK       I    between atoms: C10_16  and  N4_21 
REMARK    9  A    between atoms: C11_18  and  C12_19 
REMARK   10  A    between atoms: C11_18  and  C13_20 
REMARK   11  A    between atoms: N4_21  and  C14_22 
REMARK   12  A    between atoms: C14_22  and  C15_23 
REMARK   13  A    between atoms: C14_22  and  C16_25 
REMARK       I    between atoms: C15_23  and  N6_40 
REMARK   14  A    between atoms: C16_25  and  C17_26 
REMARK   15  A    between atoms: C17_26  and  C18_27 
REMARK   16  A    between atoms: C17_26  and  C19_28 
REMARK   17  A    between atoms: C20_29  and  C21_30 
REMARK   18  A    between atoms: C20_29  and  C24_33 
REMARK   19  A    between atoms: C20_29  and  N6_40 
REMARK   20  A    between atoms: C21_30  and  C22_31 
REMARK   21  A    between atoms: C22_31  and  C23_32 
REMARK   22  A    between atoms: C23_32  and  O8_43 
REMARK   23  A    between atoms: C24_33  and  C25_34 
REMARK   24  A    between atoms: C28_38  and  O6_39 
REMARK   25  A    between atoms: C29_42  and  O8_43 
REMARK   26  A    between atoms: C29_42  and  C35_49 
ROOT
ATOM      1  C14 non d ame     -32.682  10.900  29.884  0.00  0.00     0.089 C 
ATOM      2  H20 non d ame     -31.694  10.457  29.753  0.00  0.00     0.087 H 
ENDROOT
BRANCH   1   3
ATOM      3  N4  non d ame     -33.170  11.278  28.567  0.00  0.00    -0.346 N 
ATOM      4  C10 non d ame     -32.811  10.454  27.355  0.00  0.00     0.241 C 
ATOM      5  O4  non d ame     -32.123   9.494  27.465  0.00  0.00    -0.271 OA
ATOM      6  H19 non d ame     -33.753  12.100  28.494  0.00  0.00     0.163 HD
BRANCH   4   7
ATOM      7  C9  non d ame     -33.331  10.857  26.000  0.00  0.00     0.092 C 
ATOM      8  H11 non d ame     -34.421  10.842  26.015  0.00  0.00     0.088 H 
BRANCH   7   9
ATOM      9  N3  non d ame     -32.920  12.233  25.708  0.00  0.00    -0.346 N 
ATOM     10  C7  non d ame     -33.740  13.338  26.143  0.00  0.00     0.240 C 
ATOM     11  O3  non d ame     -34.734  13.136  26.728  0.00  0.00    -0.271 OA
ATOM     12  H10 non d ame     -32.067  12.423  25.203  0.00  0.00     0.163 HD
BRANCH  10  13
ATOM     13  C6  non d ame     -33.300  14.801  25.827  0.00  0.00     0.086 C 
ATOM     14  H6  non d ame     -32.571  15.185  26.540  0.00  0.00     0.086 H 
BRANCH  13  15
ATOM     15  N2  non d ame     -32.659  14.828  24.522  0.00  0.00    -0.343 N 
ATOM     16  C5  non d ame     -31.455  15.640  24.326  0.00  0.00     0.273 C 
ATOM     17  O2  non d ame     -31.013  16.269  25.223  0.00  0.00    -0.266 OA
ATOM     18  H5  non d ame     -33.046  14.290  23.760  0.00  0.00     0.163 HD
BRANCH  16  19
ATOM     19  C4  non d ame     -30.767  15.677  22.953  0.00  0.00     0.154 A 
ATOM     20  C1  non d ame     -31.391  15.848  21.677  0.00  0.00    -0.017 A 
ATOM     21  C2  non d ame     -30.331  15.808  20.745  0.00  0.00     0.077 A 
ATOM     22  H1  non d ame     -32.451  15.980  21.460  0.00  0.00     0.091 H 
ATOM     23  O1  non d ame     -29.230  15.637  21.418  0.00  0.00    -0.218 OA
ATOM     24  N1  non d ame     -29.460  15.556  22.708  0.00  0.00    -0.123 NA
BRANCH  21  25
ATOM     25  C3  non d ame     -30.453  15.944  19.233  0.00  0.00    -0.029 C 
ATOM     26  H2  non d ame     -29.813  15.207  18.749  0.00  0.00     0.036 H 
ATOM     27  H3  non d ame     -31.488  15.775  18.936  0.00  0.00     0.036 H 
ATOM     28  H4  non d ame     -30.147  16.945  18.932  0.00  0.00     0.036 H 
ENDBRANCH  21  25
ENDBRANCH  16  19
ENDBRANCH  13  15
BRANCH  13  29
ATOM     29  C8  non d ame     -34.507  15.704  25.828  0.00  0.00    -0.049 C 
ATOM     30  H7  non d ame     -34.551  16.253  24.888  0.00  0.00     0.030 H 
ATOM     31  H8  non d ame     -35.410  15.102  25.938  0.00  0.00     0.030 H 
ATOM     32  H9  non d ame     -34.435  16.407  26.658  0.00  0.00     0.030 H 
ENDBRANCH  13  29
ENDBRANCH  10  13
ENDBRANCH   7   9
BRANCH   7  33
ATOM     33  C11 non d ame     -32.748   9.904  24.917  0.00  0.00    -0.033 C 
ATOM     34  H12 non d ame     -32.336   9.035  25.432  0.00  0.00     0.042 H 
BRANCH  33  35
ATOM     35  C12 non d ame     -33.861   9.392  23.950  0.00  0.00    -0.071 C 
ATOM     36  H13 non d ame     -33.887   8.302  23.970  0.00  0.00     0.028 H 
ATOM     37  H14 non d ame     -34.826   9.784  24.269  0.00  0.00     0.028 H 
ATOM     38  H15 non d ame     -33.647   9.731  22.937  0.00  0.00     0.028 H 
ENDBRANCH  33  35
BRANCH  33  39
ATOM     39  C13 non d ame     -31.588  10.594  24.130  0.00  0.00    -0.071 C 
ATOM     40  H16 non d ame     -31.754  11.671  24.107  0.00  0.00     0.028 H 
ATOM     41  H17 non d ame     -30.638  10.383  24.623  0.00  0.00     0.028 H 
ATOM     42  H18 non d ame     -31.560  10.208  23.111  0.00  0.00     0.028 H 
ENDBRANCH  33  39
ENDBRANCH   7  33
ENDBRANCH   4   7
ENDBRANCH   1   3
BRANCH   1  43
ATOM     43  C15 non d ame     -33.693   9.905  30.521  0.00  0.00     0.240 C 
ATOM     44  O5  non d ame     -34.048  10.061  31.645  0.00  0.00    -0.271 OA
ATOM     45  N6  non d ame     -34.226   8.762  29.728  0.00  0.00    -0.355 N 
ATOM     46  H46 non d ame     -33.936   8.622  28.770  0.00  0.00     0.162 HD
BRANCH  45  47
ATOM     47  C20 non d ame     -35.189   7.824  30.347  0.00  0.00     0.013 C 
ATOM     48  H30 non d ame     -35.021   7.834  31.424  0.00  0.00     0.072 H 
BRANCH  47  49
ATOM     49  C21 non d ame     -34.956   6.434  29.800  0.00  0.00    -0.038 C 
ATOM     50  H31 non d ame     -33.906   6.406  29.505  0.00  0.00     0.036 H 
ATOM     51  H32 non d ame     -35.326   5.752  30.564  0.00  0.00     0.036 H 
BRANCH  49  52
ATOM     52  C22 non d ame     -35.774   6.147  28.523  0.00  0.00     0.018 C 
ATOM     53  H33 non d ame     -35.971   5.076  28.533  0.00  0.00     0.048 H 
ATOM     54  H34 non d ame     -36.606   6.854  28.541  0.00  0.00     0.048 H 
BRANCH  52  55
ATOM     55  C23 non d ame     -35.001   6.429  27.206  0.00  0.00     0.259 C 
ATOM     56  O7  non d ame     -34.830   7.545  26.833  0.00  0.00    -0.265 OA
BRANCH  55  57
ATOM     57  O8  non d ame     -34.509   5.337  26.439  0.00  0.00    -0.317 OA
BRANCH  57  58
ATOM     58  C29 non d ame     -33.081   5.264  26.379  0.00  0.00     0.052 C 
ATOM     59  H47 non d ame     -32.718   6.052  27.039  0.00  0.00     0.082 H 
ATOM     60  H48 non d ame     -32.830   4.223  26.582  0.00  0.00     0.082 H 
BRANCH  58  61
ATOM     61  C35 non d ame     -32.644   5.600  24.927  0.00  0.00    -0.034 A 
ATOM     62  C30 non d ame     -33.383   5.121  23.850  0.00  0.00    -0.075 A 
ATOM     63  C31 non d ame     -32.990   5.422  22.546  0.00  0.00    -0.082 A 
ATOM     64  H49 non d ame     -34.267   4.509  24.026  0.00  0.00     0.084 H 
ATOM     65  C32 non d ame     -31.854   6.204  22.322  0.00  0.00    -0.083 A 
ATOM     66  H50 non d ame     -33.572   5.046  21.704  0.00  0.00     0.083 H 
ATOM     67  C33 non d ame     -31.119   6.677  23.401  0.00  0.00    -0.082 A 
ATOM     68  H51 non d ame     -31.541   6.444  21.306  0.00  0.00     0.083 H 
ATOM     69  C34 non d ame     -31.508   6.380  24.705  0.00  0.00    -0.075 A 
ATOM     70  H52 non d ame     -30.231   7.285  23.223  0.00  0.00     0.083 H 
ATOM     71  H53 non d ame     -30.926   6.756  25.547  0.00  0.00     0.084 H 
ENDBRANCH  58  61
ENDBRANCH  57  58
ENDBRANCH  55  57
ENDBRANCH  52  55
ENDBRANCH  49  52
ENDBRANCH  47  49
BRANCH  47  72
ATOM     72  C24 non d ame     -36.617   8.265  30.030  0.00  0.00    -0.039 C 
ATOM     73  H35 non d ame     -36.518   9.036  29.265  0.00  0.00     0.036 H 
ATOM     74  H36 non d ame     -37.161   7.347  29.811  0.00  0.00     0.036 H 
BRANCH  72  75
ATOM     75  C25 non d ame     -37.323   8.943  31.297  0.00  0.00    -0.001 C 
ATOM     76  C26 non d ame     -38.853   8.363  31.462  0.00  0.00    -0.035 C 
ATOM     77  C27 non d ame     -39.708   9.408  31.566  0.00  0.00     0.085 C 
ATOM     78  H38 non d ame     -39.166   7.868  30.542  0.00  0.00     0.036 H 
ATOM     79  H39 non d ame     -38.957   7.851  32.419  0.00  0.00     0.036 H 
ATOM     80  N5  non d ame     -38.944  10.645  31.160  0.00  0.00    -0.049 N 
ATOM     81  H40 non d ame     -40.492   9.218  30.833  0.00  0.00     0.075 H 
ATOM     82  H41 non d ame     -39.956   9.477  32.625  0.00  0.00     0.075 H 
ATOM     83  C28 non d ame     -37.384  10.227  31.168  0.00  0.00     0.193 C 
ATOM     84  H42 non d ame     -39.217  10.851  30.209  0.00  0.00     0.280 HD
ATOM     85  H43 non d ame     -39.097  11.328  31.888  0.00  0.00     0.280 HD
ATOM     86  H44 non d ame     -36.731  10.539  31.981  0.00  0.00     0.129 H 
ATOM     87  H37 non d ame     -36.688   8.926  32.183  0.00  0.00     0.046 H 
BRANCH  83  88
ATOM     88  O6  non d ame     -36.747  10.679  29.971  0.00  0.00    -0.369 OA
ATOM     89  H45 non d ame     -37.376  10.660  29.247  0.00  0.00     0.212 HD
ENDBRANCH  83  88
ENDBRANCH  72  75
ENDBRANCH  47  72
ENDBRANCH  45  47
ENDBRANCH   1  43
BRANCH   1  90
ATOM     90  C16 non d ame     -32.576  12.145  30.750  0.00  0.00    -0.035 C 
ATOM     91  H21 non d ame     -33.254  12.869  30.299  0.00  0.00     0.037 H 
ATOM     92  H22 non d ame     -32.745  11.803  31.770  0.00  0.00     0.037 H 
BRANCH  90  93
ATOM     93  C17 non d ame     -31.158  12.802  30.733  0.00  0.00    -0.059 C 
ATOM     94  H23 non d ame     -30.984  13.238  31.716  0.00  0.00     0.038 H 
BRANCH  93  95
ATOM     95  C18 non d ame     -30.028  11.757  30.466  0.00  0.00    -0.073 C 
ATOM     96  H24 non d ame     -30.064  10.980  31.230  0.00  0.00     0.028 H 
ATOM     97  H25 non d ame     -30.175  11.306  29.485  0.00  0.00     0.028 H 
ATOM     98  H26 non d ame     -29.059  12.253  30.497  0.00  0.00     0.028 H 
ENDBRANCH  93  95
BRANCH  93  99
ATOM     99  C19 non d ame     -31.096  13.942  29.713  0.00  0.00    -0.073 C 
ATOM    100  H27 non d ame     -32.109  14.261  29.462  0.00  0.00     0.028 H 
ATOM    101  H28 non d ame     -30.548  14.782  30.140  0.00  0.00     0.028 H 
ATOM    102  H29 non d ame     -30.589  13.597  28.813  0.00  0.00     0.028 H 
ENDBRANCH  93  99
ENDBRANCH  90  93
ENDBRANCH   1  90
TORSDOF 26
ENDMDL
MODEL 17
REMARK VINA RESULT:      -6.4      3.652      8.115
REMARK  26 active torsions:
REMARK  status: ('A' for Active; 'I' for Inactive)
REMARK    1  A    between atoms: C2_2  and  C3_3 
REMARK    2  A    between atoms: C4_6  and  C5_7 
REMARK       I    between atoms: C5_7  and  N2_9 
REMARK    3  A    between atoms: N2_9  and  C6_10 
REMARK    4  A    between atoms: C6_10  and  C7_11 
REMARK    5  A    between atoms: C6_10  and  C8_13 
REMARK       I    between atoms: C7_11  and  N3_14 
REMARK    6  A    between atoms: N3_14  and  C9_15 
REMARK    7  A    between atoms: C9_15  and  C10_16 
REMARK    8  A    between atoms: C9_15  and  C11_18 
REMARK       I    between atoms: C10_16  and  N4_21 
REMARK    9  A    between atoms: C11_18  and  C12_19 
REMARK   10  A    between atoms: C11_18  and  C13_20 
REMARK   11  A    between atoms: N4_21  and  C14_22 
REMARK   12  A    between atoms: C14_22  and  C15_23 
REMARK   13  A    between atoms: C14_22  and  C16_25 
REMARK       I    between atoms: C15_23  and  N6_40 
REMARK   14  A    between atoms: C16_25  and  C17_26 
REMARK   15  A    between atoms: C17_26  and  C18_27 
REMARK   16  A    between atoms: C17_26  and  C19_28 
REMARK   17  A    between atoms: C20_29  and  C21_30 
REMARK   18  A    between atoms: C20_29  and  C24_33 
REMARK   19  A    between atoms: C20_29  and  N6_40 
REMARK   20  A    between atoms: C21_30  and  C22_31 
REMARK   21  A    between atoms: C22_31  and  C23_32 
REMARK   22  A    between atoms: C23_32  and  O8_43 
REMARK   23  A    between atoms: C24_33  and  C25_34 
REMARK   24  A    between atoms: C28_38  and  O6_39 
REMARK   25  A    between atoms: C29_42  and  O8_43 
REMARK   26  A    between atoms: C29_42  and  C35_49 
ROOT
ATOM      1  C14 non d ame     -30.977  13.677  24.120  0.00  0.00     0.089 C 
ATOM      2  H20 non d ame     -29.998  13.566  24.586  0.00  0.00     0.087 H 
ENDROOT
BRANCH   1   3
ATOM      3  N4  non d ame     -31.614  12.368  24.122  0.00  0.00    -0.346 N 
ATOM      4  C10 non d ame     -31.536  11.485  25.342  0.00  0.00     0.241 C 
ATOM      5  O4  non d ame     -30.953  11.847  26.309  0.00  0.00    -0.271 OA
ATOM      6  H19 non d ame     -32.104  12.077  23.288  0.00  0.00     0.163 HD
BRANCH   4   7
ATOM      7  C9  non d ame     -32.206  10.136  25.328  0.00  0.00     0.092 C 
ATOM      8  H11 non d ame     -33.137  10.204  24.764  0.00  0.00     0.088 H 
BRANCH   7   9
ATOM      9  N3  non d ame     -31.349   9.171  24.636  0.00  0.00    -0.346 N 
ATOM     10  C7  non d ame     -31.549   8.904  23.233  0.00  0.00     0.240 C 
ATOM     11  O3  non d ame     -32.397   9.457  22.646  0.00  0.00    -0.271 OA
ATOM     12  H10 non d ame     -30.614   8.685  25.129  0.00  0.00     0.163 HD
BRANCH  10  13
ATOM     13  C6  non d ame     -30.634   7.873  22.502  0.00  0.00     0.086 C 
ATOM     14  H6  non d ame     -30.310   7.061  23.153  0.00  0.00     0.086 H 
BRANCH  13  15
ATOM     15  N2  non d ame     -31.386   7.261  21.419  0.00  0.00    -0.343 N 
ATOM     16  C5  non d ame     -32.113   6.013  21.660  0.00  0.00     0.273 C 
ATOM     17  O2  non d ame     -32.084   5.507  22.728  0.00  0.00    -0.266 OA
ATOM     18  H5  non d ame     -31.402   7.698  20.508  0.00  0.00     0.163 HD
BRANCH  16  19
ATOM     19  C4  non d ame     -32.913   5.356  20.525  0.00  0.00     0.154 A 
ATOM     20  C1  non d ame     -34.201   4.739  20.618  0.00  0.00    -0.017 A 
ATOM     21  C2  non d ame     -34.488   4.297  19.308  0.00  0.00     0.077 A 
ATOM     22  H1  non d ame     -34.830   4.628  21.501  0.00  0.00     0.091 H 
ATOM     23  O1  non d ame     -33.479   4.629  18.557  0.00  0.00    -0.218 OA
ATOM     24  N1  non d ame     -32.547   5.247  19.245  0.00  0.00    -0.123 NA
BRANCH  21  25
ATOM     25  C3  non d ame     -35.748   3.568  18.858  0.00  0.00    -0.029 C 
ATOM     26  H2  non d ame     -36.587   3.872  19.484  0.00  0.00     0.036 H 
ATOM     27  H3  non d ame     -35.961   3.820  17.819  0.00  0.00     0.036 H 
ATOM     28  H4  non d ame     -35.598   2.493  18.949  0.00  0.00     0.036 H 
ENDBRANCH  21  25
ENDBRANCH  16  19
ENDBRANCH  13  15
BRANCH  13  29
ATOM     29  C8  non d ame     -29.418   8.575  21.954  0.00  0.00    -0.049 C 
ATOM     30  H7  non d ame     -29.629   8.937  20.948  0.00  0.00     0.030 H 
ATOM     31  H8  non d ame     -29.165   9.418  22.598  0.00  0.00     0.030 H 
ATOM     32  H9  non d ame     -28.580   7.879  21.921  0.00  0.00     0.030 H 
ENDBRANCH  13  29
ENDBRANCH  10  13
ENDBRANCH   7   9
BRANCH   7  33
ATOM     33  C11 non d ame     -32.444   9.661  26.791  0.00  0.00    -0.033 C 
ATOM     34  H12 non d ame     -31.634  10.061  27.402  0.00  0.00     0.042 H 
BRANCH  33  35
ATOM     35  C12 non d ame     -33.784  10.221  27.362  0.00  0.00    -0.071 C 
ATOM     36  H13 non d ame     -34.576   9.487  27.216  0.00  0.00     0.028 H 
ATOM     37  H14 non d ame     -33.669  10.424  28.426  0.00  0.00     0.028 H 
ATOM     38  H15 non d ame     -34.044  11.143  26.841  0.00  0.00     0.028 H 
ENDBRANCH  33  35
BRANCH  33  39
ATOM     39  C13 non d ame     -32.395   8.102  26.887  0.00  0.00    -0.071 C 
ATOM     40  H16 non d ame     -33.326   7.684  26.502  0.00  0.00     0.028 H 
ATOM     41  H17 non d ame     -31.557   7.727  26.299  0.00  0.00     0.028 H 
ATOM     42  H18 non d ame     -32.267   7.806  27.928  0.00  0.00     0.028 H 
ENDBRANCH  33  39
ENDBRANCH   7  33
ENDBRANCH   4   7
ENDBRANCH   1   3
BRANCH   1  43
ATOM     43  C15 non d ame     -31.887  14.672  24.894  0.00  0.00     0.240 C 
ATOM     44  O5  non d ame     -32.771  15.228  24.326  0.00  0.00    -0.271 OA
ATOM     45  N6  non d ame     -31.664  14.925  26.345  0.00  0.00    -0.355 N 
ATOM     46  H46 non d ame     -30.919  14.454  26.839  0.00  0.00     0.162 HD
BRANCH  45  47
ATOM     47  C20 non d ame     -32.539  15.873  27.068  0.00  0.00     0.013 C 
ATOM     48  H30 non d ame     -33.540  15.796  26.643  0.00  0.00     0.072 H 
BRANCH  47  49
ATOM     49  C21 non d ame     -32.010  17.278  26.890  0.00  0.00    -0.038 C 
ATOM     50  H31 non d ame     -31.588  17.559  27.856  0.00  0.00     0.036 H 
ATOM     51  H32 non d ame     -31.372  17.243  26.007  0.00  0.00     0.036 H 
BRANCH  49  52
ATOM     52  C22 non d ame     -33.122  18.304  26.585  0.00  0.00     0.018 C 
ATOM     53  H33 non d ame     -32.673  19.037  25.917  0.00  0.00     0.048 H 
ATOM     54  H34 non d ame     -33.980  17.718  26.253  0.00  0.00     0.048 H 
BRANCH  52  55
ATOM     55  C23 non d ame     -33.602  19.097  27.832  0.00  0.00     0.259 C 
ATOM     56  O7  non d ame     -32.942  19.980  28.276  0.00  0.00    -0.265 OA
BRANCH  55  57
ATOM     57  O8  non d ame     -34.835  18.747  28.448  0.00  0.00    -0.317 OA
BRANCH  57  58
ATOM     58  C29 non d ame     -35.814  19.791  28.426  0.00  0.00     0.052 C 
ATOM     59  H47 non d ame     -36.518  19.551  29.222  0.00  0.00     0.082 H 
ATOM     60  H48 non d ame     -35.251  20.723  28.458  0.00  0.00     0.082 H 
BRANCH  58  61
ATOM     61  C35 non d ame     -36.563  19.716  27.068  0.00  0.00    -0.034 A 
ATOM     62  C30 non d ame     -36.929  18.481  26.542  0.00  0.00    -0.075 A 
ATOM     63  C31 non d ame     -37.602  18.414  25.322  0.00  0.00    -0.082 A 
ATOM     64  H49 non d ame     -36.689  17.567  27.084  0.00  0.00     0.084 H 
ATOM     65  C32 non d ame     -37.906  19.588  24.628  0.00  0.00    -0.083 A 
ATOM     66  H50 non d ame     -37.889  17.444  24.914  0.00  0.00     0.083 H 
ATOM     67  C33 non d ame     -37.535  20.817  25.155  0.00  0.00    -0.082 A 
ATOM     68  H51 non d ame     -38.432  19.543  23.674  0.00  0.00     0.083 H 
ATOM     69  C34 non d ame     -36.865  20.889  26.374  0.00  0.00    -0.075 A 
ATOM     70  H52 non d ame     -37.772  21.731  24.610  0.00  0.00     0.083 H 
ATOM     71  H53 non d ame     -36.578  21.859  26.783  0.00  0.00     0.084 H 
ENDBRANCH  58  61
ENDBRANCH  57  58
ENDBRANCH  55  57
ENDBRANCH  52  55
ENDBRANCH  49  52
ENDBRANCH  47  49
BRANCH  47  72
ATOM     72  C24 non d ame     -32.565  15.523  28.554  0.00  0.00    -0.039 C 
ATOM     73  H35 non d ame     -32.265  16.434  29.072  0.00  0.00     0.036 H 
ATOM     74  H36 non d ame     -33.551  15.095  28.734  0.00  0.00     0.036 H 
BRANCH  72  75
ATOM     75  C25 non d ame     -31.487  14.394  28.916  0.00  0.00    -0.001 C 
ATOM     76  C26 non d ame     -32.253  12.990  29.294  0.00  0.00    -0.035 C 
ATOM     77  C27 non d ame     -31.781  12.540  30.481  0.00  0.00     0.085 C 
ATOM     78  H38 non d ame     -33.307  13.180  29.494  0.00  0.00     0.036 H 
ATOM     79  H39 non d ame     -31.965  12.206  28.592  0.00  0.00     0.036 H 
ATOM     80  N5  non d ame     -31.005  13.675  31.105  0.00  0.00    -0.049 N 
ATOM     81  H40 non d ame     -32.664  12.338  31.088  0.00  0.00     0.075 H 
ATOM     82  H41 non d ame     -31.093  11.732  30.235  0.00  0.00     0.075 H 
ATOM     83  C28 non d ame     -30.761  14.748  29.924  0.00  0.00     0.193 C 
ATOM     84  H42 non d ame     -31.611  14.091  31.798  0.00  0.00     0.280 HD
ATOM     85  H43 non d ame     -30.111  13.292  31.381  0.00  0.00     0.280 HD
ATOM     86  H44 non d ame     -29.786  14.833  29.445  0.00  0.00     0.129 H 
ATOM     87  H37 non d ame     -30.684  14.340  28.182  0.00  0.00     0.046 H 
BRANCH  83  88
ATOM     88  O6  non d ame     -31.078  16.065  30.381  0.00  0.00    -0.369 OA
ATOM     89  H45 non d ame     -30.654  16.711  29.813  0.00  0.00     0.212 HD
ENDBRANCH  83  88
ENDBRANCH  72  75
ENDBRANCH  47  72
ENDBRANCH  45  47
ENDBRANCH   1  43
BRANCH   1  90
ATOM     90  C16 non d ame     -30.812  14.146  22.683  0.00  0.00    -0.035 C 
ATOM     91  H21 non d ame     -30.360  13.306  22.155  0.00  0.00     0.037 H 
ATOM     92  H22 non d ame     -31.794  14.511  22.384  0.00  0.00     0.037 H 
BRANCH  90  93
ATOM     93  C17 non d ame     -29.827  15.347  22.524  0.00  0.00    -0.059 C 
ATOM     94  H23 non d ame     -30.047  16.063  23.316  0.00  0.00     0.038 H 
BRANCH  93  95
ATOM     95  C18 non d ame     -28.335  14.909  22.678  0.00  0.00    -0.073 C 
ATOM     96  H24 non d ame     -28.242  13.847  22.451  0.00  0.00     0.028 H 
ATOM     97  H25 non d ame     -27.715  15.482  21.987  0.00  0.00     0.028 H 
ATOM     98  H26 non d ame     -28.005  15.094  23.699  0.00  0.00     0.028 H 
ENDBRANCH  93  95
BRANCH  93  99
ATOM     99  C19 non d ame     -30.049  16.063  21.189  0.00  0.00    -0.073 C 
ATOM    100  H27 non d ame     -30.059  15.331  20.381  0.00  0.00     0.028 H 
ATOM    101  H28 non d ame     -31.003  16.589  21.213  0.00  0.00     0.028 H 
ATOM    102  H29 non d ame     -29.245  16.779  21.022  0.00  0.00     0.028 H 
ENDBRANCH  93  99
ENDBRANCH  90  93
ENDBRANCH   1  90
TORSDOF 26
ENDMDL
MODEL 18
REMARK VINA RESULT:      -6.4      2.656      8.147
REMARK  26 active torsions:
REMARK  status: ('A' for Active; 'I' for Inactive)
REMARK    1  A    between atoms: C2_2  and  C3_3 
REMARK    2  A    between atoms: C4_6  and  C5_7 
REMARK       I    between atoms: C5_7  and  N2_9 
REMARK    3  A    between atoms: N2_9  and  C6_10 
REMARK    4  A    between atoms: C6_10  and  C7_11 
REMARK    5  A    between atoms: C6_10  and  C8_13 
REMARK       I    between atoms: C7_11  and  N3_14 
REMARK    6  A    between atoms: N3_14  and  C9_15 
REMARK    7  A    between atoms: C9_15  and  C10_16 
REMARK    8  A    between atoms: C9_15  and  C11_18 
REMARK       I    between atoms: C10_16  and  N4_21 
REMARK    9  A    between atoms: C11_18  and  C12_19 
REMARK   10  A    between atoms: C11_18  and  C13_20 
REMARK   11  A    between atoms: N4_21  and  C14_22 
REMARK   12  A    between atoms: C14_22  and  C15_23 
REMARK   13  A    between atoms: C14_22  and  C16_25 
REMARK       I    between atoms: C15_23  and  N6_40 
REMARK   14  A    between atoms: C16_25  and  C17_26 
REMARK   15  A    between atoms: C17_26  and  C18_27 
REMARK   16  A    between atoms: C17_26  and  C19_28 
REMARK   17  A    between atoms: C20_29  and  C21_30 
REMARK   18  A    between atoms: C20_29  and  C24_33 
REMARK   19  A    between atoms: C20_29  and  N6_40 
REMARK   20  A    between atoms: C21_30  and  C22_31 
REMARK   21  A    between atoms: C22_31  and  C23_32 
REMARK   22  A    between atoms: C23_32  and  O8_43 
REMARK   23  A    between atoms: C24_33  and  C25_34 
REMARK   24  A    between atoms: C28_38  and  O6_39 
REMARK   25  A    between atoms: C29_42  and  O8_43 
REMARK   26  A    between atoms: C29_42  and  C35_49 
ROOT
ATOM      1  C14 non d ame     -31.477  15.055  24.290  0.00  0.00     0.089 C 
ATOM      2  H20 non d ame     -32.385  15.106  23.688  0.00  0.00     0.087 H 
ENDROOT
BRANCH   1   3
ATOM      3  N4  non d ame     -31.686  15.885  25.467  0.00  0.00    -0.346 N 
ATOM      4  C10 non d ame     -33.056  16.436  25.778  0.00  0.00     0.241 C 
ATOM      5  O4  non d ame     -33.973  16.201  25.063  0.00  0.00    -0.271 OA
ATOM      6  H19 non d ame     -30.892  16.075  26.061  0.00  0.00     0.163 HD
BRANCH   4   7
ATOM      7  C9  non d ame     -33.254  17.288  27.003  0.00  0.00     0.092 C 
ATOM      8  H11 non d ame     -34.320  17.363  27.220  0.00  0.00     0.088 H 
BRANCH   7   9
ATOM      9  N3  non d ame     -32.622  16.642  28.156  0.00  0.00    -0.346 N 
ATOM     10  C7  non d ame     -32.912  15.262  28.459  0.00  0.00     0.240 C 
ATOM     11  O3  non d ame     -33.655  14.658  27.785  0.00  0.00    -0.271 OA
ATOM     12  H10 non d ame     -31.981  17.151  28.747  0.00  0.00     0.163 HD
BRANCH  10  13
ATOM     13  C6  non d ame     -32.238  14.580  29.690  0.00  0.00     0.086 C 
ATOM     14  H6  non d ame     -32.288  15.192  30.590  0.00  0.00     0.086 H 
BRANCH  13  15
ATOM     15  N2  non d ame     -32.942  13.344  29.987  0.00  0.00    -0.343 N 
ATOM     16  C5  non d ame     -32.521  12.100  29.339  0.00  0.00     0.273 C 
ATOM     17  O2  non d ame     -31.616  12.105  28.579  0.00  0.00    -0.266 OA
ATOM     18  H5  non d ame     -33.717  13.350  30.635  0.00  0.00     0.163 HD
BRANCH  16  19
ATOM     19  C4  non d ame     -33.255  10.786  29.646  0.00  0.00     0.154 A 
ATOM     20  C1  non d ame     -33.781  10.362  30.908  0.00  0.00    -0.017 A 
ATOM     21  C2  non d ame     -34.353   9.095  30.657  0.00  0.00     0.077 A 
ATOM     22  H1  non d ame     -33.750  10.892  31.860  0.00  0.00     0.091 H 
ATOM     23  O1  non d ame     -34.174   8.832  29.395  0.00  0.00    -0.218 OA
ATOM     24  N1  non d ame     -33.535   9.804  28.785  0.00  0.00    -0.123 NA
BRANCH  21  25
ATOM     25  C3  non d ame     -35.051   8.204  31.676  0.00  0.00    -0.029 C 
ATOM     26  H2  non d ame     -36.059   7.975  31.328  0.00  0.00     0.036 H 
ATOM     27  H3  non d ame     -34.489   7.278  31.793  0.00  0.00     0.036 H 
ATOM     28  H4  non d ame     -35.107   8.720  32.633  0.00  0.00     0.036 H 
ENDBRANCH  21  25
ENDBRANCH  16  19
ENDBRANCH  13  15
BRANCH  13  29
ATOM     29  C8  non d ame     -30.792  14.289  29.377  0.00  0.00    -0.049 C 
ATOM     30  H7  non d ame     -30.171  14.580  30.223  0.00  0.00     0.030 H 
ATOM     31  H8  non d ame     -30.670  13.222  29.187  0.00  0.00     0.030 H 
ATOM     32  H9  non d ame     -30.491  14.852  28.493  0.00  0.00     0.030 H 
ENDBRANCH  13  29
ENDBRANCH  10  13
ENDBRANCH   7   9
BRANCH   7  33
ATOM     33  C11 non d ame     -32.606  18.685  26.774  0.00  0.00    -0.033 C 
ATOM     34  H12 non d ame     -31.581  18.520  26.441  0.00  0.00     0.042 H 
BRANCH  33  35
ATOM     35  C12 non d ame     -33.343  19.477  25.649  0.00  0.00    -0.071 C 
ATOM     36  H13 non d ame     -33.645  20.453  26.031  0.00  0.00     0.028 H 
ATOM     37  H14 non d ame     -32.674  19.610  24.801  0.00  0.00     0.028 H 
ATOM     38  H15 non d ame     -34.227  18.922  25.333  0.00  0.00     0.028 H 
ENDBRANCH  33  35
BRANCH  33  39
ATOM     39  C13 non d ame     -32.556  19.503  28.104  0.00  0.00    -0.071 C 
ATOM     40  H16 non d ame     -31.619  19.296  28.623  0.00  0.00     0.028 H 
ATOM     41  H17 non d ame     -32.618  20.569  27.878  0.00  0.00     0.028 H 
ATOM     42  H18 non d ame     -33.394  19.218  28.738  0.00  0.00     0.028 H 
ENDBRANCH  33  39
ENDBRANCH   7  33
ENDBRANCH   4   7
ENDBRANCH   1   3
BRANCH   1  43
ATOM     43  C15 non d ame     -31.162  13.605  24.756  0.00  0.00     0.240 C 
ATOM     44  O5  non d ame     -30.711  13.418  25.840  0.00  0.00    -0.271 OA
ATOM     45  N6  non d ame     -31.430  12.449  23.855  0.00  0.00    -0.355 N 
ATOM     46  H46 non d ame     -31.818  12.596  22.933  0.00  0.00     0.162 HD
BRANCH  45  47
ATOM     47  C20 non d ame     -31.126  11.075  24.313  0.00  0.00     0.013 C 
ATOM     48  H30 non d ame     -30.133  11.084  24.762  0.00  0.00     0.072 H 
BRANCH  47  49
ATOM     49  C21 non d ame     -31.149  10.137  23.127  0.00  0.00    -0.038 C 
ATOM     50  H31 non d ame     -31.375   9.151  23.537  0.00  0.00     0.036 H 
ATOM     51  H32 non d ame     -31.823  10.594  22.403  0.00  0.00     0.036 H 
BRANCH  49  52
ATOM     52  C22 non d ame     -29.777  10.016  22.432  0.00  0.00     0.018 C 
ATOM     53  H33 non d ame     -29.951  10.275  21.388  0.00  0.00     0.048 H 
ATOM     54  H34 non d ame     -29.088  10.611  23.033  0.00  0.00     0.048 H 
BRANCH  52  55
ATOM     55  C23 non d ame     -29.202   8.573  22.425  0.00  0.00     0.259 C 
ATOM     56  O7  non d ame     -28.183   8.331  21.864  0.00  0.00    -0.265 OA
BRANCH  55  57
ATOM     57  O8  non d ame     -29.917   7.535  23.086  0.00  0.00    -0.317 OA
BRANCH  57  58
ATOM     58  C29 non d ame     -30.426   6.528  22.207  0.00  0.00     0.052 C 
ATOM     59  H47 non d ame     -29.971   6.727  21.237  0.00  0.00     0.082 H 
ATOM     60  H48 non d ame     -30.244   5.578  22.709  0.00  0.00     0.082 H 
BRANCH  58  61
ATOM     61  C35 non d ame     -31.960   6.731  22.081  0.00  0.00    -0.034 A 
ATOM     62  C30 non d ame     -32.823   6.061  22.942  0.00  0.00    -0.075 A 
ATOM     63  C31 non d ame     -34.201   6.243  22.829  0.00  0.00    -0.082 A 
ATOM     64  H49 non d ame     -32.422   5.392  23.703  0.00  0.00     0.084 H 
ATOM     65  C32 non d ame     -34.714   7.098  21.850  0.00  0.00    -0.083 A 
ATOM     66  H50 non d ame     -34.876   5.717  23.506  0.00  0.00     0.083 H 
ATOM     67  C33 non d ame     -33.848   7.763  20.992  0.00  0.00    -0.082 A 
ATOM     68  H51 non d ame     -35.790   7.247  21.756  0.00  0.00     0.083 H 
ATOM     69  C34 non d ame     -32.471   7.585  21.102  0.00  0.00    -0.075 A 
ATOM     70  H52 non d ame     -34.251   8.428  20.228  0.00  0.00     0.083 H 
ATOM     71  H53 non d ame     -31.797   8.111  20.425  0.00  0.00     0.084 H 
ENDBRANCH  58  61
ENDBRANCH  57  58
ENDBRANCH  55  57
ENDBRANCH  52  55
ENDBRANCH  49  52
ENDBRANCH  47  49
BRANCH  47  72
ATOM     72  C24 non d ame     -32.168  10.630  25.337  0.00  0.00    -0.039 C 
ATOM     73  H35 non d ame     -31.601  10.372  26.232  0.00  0.00     0.036 H 
ATOM     74  H36 non d ame     -32.903  11.433  25.371  0.00  0.00     0.036 H 
BRANCH  72  75
ATOM     75  C25 non d ame     -32.935   9.305  24.865  0.00  0.00    -0.001 C 
ATOM     76  C26 non d ame     -34.546   9.608  24.739  0.00  0.00    -0.035 C 
ATOM     77  C27 non d ame     -35.223   8.661  25.432  0.00  0.00     0.085 C 
ATOM     78  H38 non d ame     -34.795  10.532  25.259  0.00  0.00     0.036 H 
ATOM     79  H39 non d ame     -34.876   9.455  23.711  0.00  0.00     0.036 H 
ATOM     80  N5  non d ame     -34.214   7.935  26.288  0.00  0.00    -0.049 N 
ATOM     81  H40 non d ame     -35.910   9.209  26.079  0.00  0.00     0.075 H 
ATOM     82  H41 non d ame     -35.613   7.973  24.682  0.00  0.00     0.075 H 
ATOM     83  C28 non d ame     -32.764   8.340  25.706  0.00  0.00     0.193 C 
ATOM     84  H42 non d ame     -34.304   8.312  27.220  0.00  0.00     0.280 HD
ATOM     85  H43 non d ame     -34.361   6.948  26.127  0.00  0.00     0.280 HD
ATOM     86  H44 non d ame     -32.198   7.641  25.093  0.00  0.00     0.129 H 
ATOM     87  H37 non d ame     -32.452   8.830  24.012  0.00  0.00     0.046 H 
BRANCH  83  88
ATOM     88  O6  non d ame     -31.889   8.706  26.775  0.00  0.00    -0.369 OA
ATOM     89  H45 non d ame     -31.151   9.210  26.426  0.00  0.00     0.212 HD
ENDBRANCH  83  88
ENDBRANCH  72  75
ENDBRANCH  47  72
ENDBRANCH  45  47
ENDBRANCH   1  43
BRANCH   1  90
ATOM     90  C16 non d ame     -30.302  15.605  23.498  0.00  0.00    -0.035 C 
ATOM     91  H21 non d ame     -30.554  16.645  23.291  0.00  0.00     0.037 H 
ATOM     92  H22 non d ame     -29.419  15.366  24.089  0.00  0.00     0.037 H 
BRANCH  90  93
ATOM     93  C17 non d ame     -30.104  14.916  22.110  0.00  0.00    -0.059 C 
ATOM     94  H23 non d ame     -30.916  14.202  21.976  0.00  0.00     0.038 H 
BRANCH  93  95
ATOM     95  C18 non d ame     -30.168  15.939  20.931  0.00  0.00    -0.073 C 
ATOM     96  H24 non d ame     -29.157  16.241  20.656  0.00  0.00     0.028 H 
ATOM     97  H25 non d ame     -30.652  15.473  20.072  0.00  0.00     0.028 H 
ATOM     98  H26 non d ame     -30.738  16.814  21.239  0.00  0.00     0.028 H 
ENDBRANCH  93  95
BRANCH  93  99
ATOM     99  C19 non d ame     -28.794  14.126  22.074  0.00  0.00    -0.073 C 
ATOM    100  H27 non d ame     -28.909  13.259  21.423  0.00  0.00     0.028 H 
ATOM    101  H28 non d ame     -27.995  14.762  21.691  0.00  0.00     0.028 H 
ATOM    102  H29 non d ame     -28.542  13.794  23.081  0.00  0.00     0.028 H 
ENDBRANCH  93  99
ENDBRANCH  90  93
ENDBRANCH   1  90
TORSDOF 26
ENDMDL
MODEL 19
REMARK VINA RESULT:      -6.4      2.214      8.028
REMARK  26 active torsions:
REMARK  status: ('A' for Active; 'I' for Inactive)
REMARK    1  A    between atoms: C2_2  and  C3_3 
REMARK    2  A    between atoms: C4_6  and  C5_7 
REMARK       I    between atoms: C5_7  and  N2_9 
REMARK    3  A    between atoms: N2_9  and  C6_10 
REMARK    4  A    between atoms: C6_10  and  C7_11 
REMARK    5  A    between atoms: C6_10  and  C8_13 
REMARK       I    between atoms: C7_11  and  N3_14 
REMARK    6  A    between atoms: N3_14  and  C9_15 
REMARK    7  A    between atoms: C9_15  and  C10_16 
REMARK    8  A    between atoms: C9_15  and  C11_18 
REMARK       I    between atoms: C10_16  and  N4_21 
REMARK    9  A    between atoms: C11_18  and  C12_19 
REMARK   10  A    between atoms: C11_18  and  C13_20 
REMARK   11  A    between atoms: N4_21  and  C14_22 
REMARK   12  A    between atoms: C14_22  and  C15_23 
REMARK   13  A    between atoms: C14_22  and  C16_25 
REMARK       I    between atoms: C15_23  and  N6_40 
REMARK   14  A    between atoms: C16_25  and  C17_26 
REMARK   15  A    between atoms: C17_26  and  C18_27 
REMARK   16  A    between atoms: C17_26  and  C19_28 
REMARK   17  A    between atoms: C20_29  and  C21_30 
REMARK   18  A    between atoms: C20_29  and  C24_33 
REMARK   19  A    between atoms: C20_29  and  N6_40 
REMARK   20  A    between atoms: C21_30  and  C22_31 
REMARK   21  A    between atoms: C22_31  and  C23_32 
REMARK   22  A    between atoms: C23_32  and  O8_43 
REMARK   23  A    between atoms: C24_33  and  C25_34 
REMARK   24  A    between atoms: C28_38  and  O6_39 
REMARK   25  A    between atoms: C29_42  and  O8_43 
REMARK   26  A    between atoms: C29_42  and  C35_49 
ROOT
ATOM      1  C14 non d ame     -36.578  16.155  26.521  0.00  0.00     0.089 C 
ATOM      2  H20 non d ame     -37.139  16.748  27.244  0.00  0.00     0.087 H 
ENDROOT
BRANCH   1   3
ATOM      3  N4  non d ame     -35.164  16.312  26.828  0.00  0.00    -0.346 N 
ATOM      4  C10 non d ame     -34.723  17.242  27.931  0.00  0.00     0.241 C 
ATOM      5  O4  non d ame     -35.524  17.856  28.554  0.00  0.00    -0.271 OA
ATOM      6  H19 non d ame     -34.499  15.781  26.285  0.00  0.00     0.163 HD
BRANCH   4   7
ATOM      7  C9  non d ame     -33.256  17.386  28.239  0.00  0.00     0.092 C 
ATOM      8  H11 non d ame     -33.138  17.921  29.182  0.00  0.00     0.088 H 
BRANCH   7   9
ATOM      9  N3  non d ame     -32.660  16.059  28.417  0.00  0.00    -0.346 N 
ATOM     10  C7  non d ame     -31.740  15.822  29.501  0.00  0.00     0.240 C 
ATOM     11  O3  non d ame     -31.466  16.688  30.240  0.00  0.00    -0.271 OA
ATOM     12  H10 non d ame     -32.885  15.303  27.787  0.00  0.00     0.163 HD
BRANCH  10  13
ATOM     13  C6  non d ame     -31.106  14.407  29.684  0.00  0.00     0.086 C 
ATOM     14  H6  non d ame     -30.450  14.348  30.552  0.00  0.00     0.086 H 
BRANCH  13  15
ATOM     15  N2  non d ame     -32.169  13.439  29.898  0.00  0.00    -0.343 N 
ATOM     16  C5  non d ame     -31.887  12.214  30.651  0.00  0.00     0.273 C 
ATOM     17  O2  non d ame     -30.803  12.017  31.077  0.00  0.00    -0.266 OA
ATOM     18  H5  non d ame     -33.091  13.615  29.527  0.00  0.00     0.163 HD
BRANCH  16  19
ATOM     19  C4  non d ame     -33.001  11.183  30.887  0.00  0.00     0.154 A 
ATOM     20  C1  non d ame     -33.372  10.099  30.031  0.00  0.00    -0.017 A 
ATOM     21  C2  non d ame     -34.441   9.458  30.696  0.00  0.00     0.077 A 
ATOM     22  H1  non d ame     -32.933   9.820  29.073  0.00  0.00     0.091 H 
ATOM     23  O1  non d ame     -34.650  10.105  31.805  0.00  0.00    -0.218 OA
ATOM     24  N1  non d ame     -33.823  11.117  31.938  0.00  0.00    -0.123 NA
BRANCH  21  25
ATOM     25  C3  non d ame     -35.205   8.235  30.206  0.00  0.00    -0.029 C 
ATOM     26  H2  non d ame     -34.657   7.768  29.387  0.00  0.00     0.036 H 
ATOM     27  H3  non d ame     -35.312   7.522  31.023  0.00  0.00     0.036 H 
ATOM     28  H4  non d ame     -36.190   8.539  29.856  0.00  0.00     0.036 H 
ENDBRANCH  21  25
ENDBRANCH  16  19
ENDBRANCH  13  15
BRANCH  13  29
ATOM     29  C8  non d ame     -30.318  14.044  28.450  0.00  0.00    -0.049 C 
ATOM     30  H7  non d ame     -29.317  13.724  28.739  0.00  0.00     0.030 H 
ATOM     31  H8  non d ame     -30.821  13.232  27.925  0.00  0.00     0.030 H 
ATOM     32  H9  non d ame     -30.247  14.912  27.795  0.00  0.00     0.030 H 
ENDBRANCH  13  29
ENDBRANCH  10  13
ENDBRANCH   7   9
BRANCH   7  33
ATOM     33  C11 non d ame     -32.548  18.117  27.061  0.00  0.00    -0.033 C 
ATOM     34  H12 non d ame     -31.506  18.267  27.346  0.00  0.00     0.042 H 
BRANCH  33  35
ATOM     35  C12 non d ame     -32.560  17.249  25.763  0.00  0.00    -0.071 C 
ATOM     36  H13 non d ame     -32.658  16.197  26.031  0.00  0.00     0.028 H 
ATOM     37  H14 non d ame     -33.402  17.545  25.138  0.00  0.00     0.028 H 
ATOM     38  H15 non d ame     -31.629  17.400  25.217  0.00  0.00     0.028 H 
ENDBRANCH  33  35
BRANCH  33  39
ATOM     39  C13 non d ame     -33.186  19.521  26.809  0.00  0.00    -0.071 C 
ATOM     40  H16 non d ame     -33.596  19.907  27.743  0.00  0.00     0.028 H 
ATOM     41  H17 non d ame     -32.424  20.206  26.437  0.00  0.00     0.028 H 
ATOM     42  H18 non d ame     -33.983  19.431  26.072  0.00  0.00     0.028 H 
ENDBRANCH  33  39
ENDBRANCH   7  33
ENDBRANCH   4   7
ENDBRANCH   1   3
BRANCH   1  43
ATOM     43  C15 non d ame     -36.937  14.644  26.594  0.00  0.00     0.240 C 
ATOM     44  O5  non d ame     -38.057  14.313  26.813  0.00  0.00    -0.271 OA
ATOM     45  N6  non d ame     -35.886  13.609  26.381  0.00  0.00    -0.355 N 
ATOM     46  H46 non d ame     -34.932  13.878  26.189  0.00  0.00     0.162 HD
BRANCH  45  47
ATOM     47  C20 non d ame     -36.243  12.175  26.452  0.00  0.00     0.013 C 
ATOM     48  H30 non d ame     -37.214  12.095  26.942  0.00  0.00     0.072 H 
BRANCH  47  49
ATOM     49  C21 non d ame     -35.197  11.438  27.258  0.00  0.00    -0.038 C 
ATOM     50  H31 non d ame     -34.811  12.166  27.974  0.00  0.00     0.036 H 
ATOM     51  H32 non d ame     -35.684  10.530  27.612  0.00  0.00     0.036 H 
BRANCH  49  52
ATOM     52  C22 non d ame     -33.993  10.985  26.405  0.00  0.00     0.018 C 
ATOM     53  H33 non d ame     -33.650  10.052  26.850  0.00  0.00     0.048 H 
ATOM     54  H34 non d ame     -34.342  10.999  25.371  0.00  0.00     0.048 H 
BRANCH  52  55
ATOM     55  C23 non d ame     -32.783  11.958  26.461  0.00  0.00     0.259 C 
ATOM     56  O7  non d ame     -32.894  13.030  26.962  0.00  0.00    -0.265 OA
BRANCH  55  57
ATOM     57  O8  non d ame     -31.541  11.559  25.894  0.00  0.00    -0.317 OA
BRANCH  57  58
ATOM     58  C29 non d ame     -31.352  11.993  24.543  0.00  0.00     0.052 C 
ATOM     59  H47 non d ame     -32.284  12.481  24.258  0.00  0.00     0.082 H 
ATOM     60  H48 non d ame     -30.419  12.555  24.541  0.00  0.00     0.082 H 
BRANCH  58  61
ATOM     61  C35 non d ame     -31.168  10.732  23.657  0.00  0.00    -0.034 A 
ATOM     62  C30 non d ame     -32.206   9.816  23.525  0.00  0.00    -0.075 A 
ATOM     63  C31 non d ame     -32.041   8.683  22.728  0.00  0.00    -0.082 A 
ATOM     64  H49 non d ame     -33.149   9.983  24.046  0.00  0.00     0.084 H 
ATOM     65  C32 non d ame     -30.830   8.467  22.065  0.00  0.00    -0.083 A 
ATOM     66  H50 non d ame     -32.857   7.967  22.626  0.00  0.00     0.083 H 
ATOM     67  C33 non d ame     -29.796   9.383  22.202  0.00  0.00    -0.082 A 
ATOM     68  H51 non d ame     -30.693   7.585  21.440  0.00  0.00     0.083 H 
ATOM     69  C34 non d ame     -29.958  10.517  22.995  0.00  0.00    -0.075 A 
ATOM     70  H52 non d ame     -28.852   9.212  21.684  0.00  0.00     0.083 H 
ATOM     71  H53 non d ame     -29.141  11.233  23.096  0.00  0.00     0.084 H 
ENDBRANCH  58  61
ENDBRANCH  57  58
ENDBRANCH  55  57
ENDBRANCH  52  55
ENDBRANCH  49  52
ENDBRANCH  47  49
BRANCH  47  72
ATOM     72  C24 non d ame     -36.310  11.588  25.044  0.00  0.00    -0.039 C 
ATOM     73  H35 non d ame     -35.726  12.266  24.420  0.00  0.00     0.036 H 
ATOM     74  H36 non d ame     -36.006  10.547  25.149  0.00  0.00     0.036 H 
BRANCH  72  75
ATOM     75  C25 non d ame     -37.806  11.588  24.472  0.00  0.00    -0.001 C 
ATOM     76  C26 non d ame     -38.171  10.107  23.860  0.00  0.00    -0.035 C 
ATOM     77  C27 non d ame     -38.657  10.260  22.605  0.00  0.00     0.085 C 
ATOM     78  H38 non d ame     -37.259   9.529  23.711  0.00  0.00     0.036 H 
ATOM     79  H39 non d ame     -39.008   9.672  24.406  0.00  0.00     0.036 H 
ATOM     80  N5  non d ame     -38.351  11.677  22.184  0.00  0.00    -0.049 N 
ATOM     81  H40 non d ame     -38.082   9.573  21.983  0.00  0.00     0.075 H 
ATOM     82  H41 non d ame     -39.737  10.142  22.694  0.00  0.00     0.075 H 
ATOM     83  C28 non d ame     -37.948  12.465  23.534  0.00  0.00     0.193 C 
ATOM     84  H42 non d ame     -37.540  11.630  21.585  0.00  0.00     0.280 HD
ATOM     85  H43 non d ame     -39.216  12.064  21.832  0.00  0.00     0.280 HD
ATOM     86  H44 non d ame     -38.652  13.149  24.007  0.00  0.00     0.129 H 
ATOM     87  H37 non d ame     -38.517  12.023  25.174  0.00  0.00     0.046 H 
BRANCH  83  88
ATOM     88  O6  non d ame     -36.758  13.227  23.324  0.00  0.00    -0.369 OA
ATOM     89  H45 non d ame     -36.980  14.159  23.270  0.00  0.00     0.212 HD
ENDBRANCH  83  88
ENDBRANCH  72  75
ENDBRANCH  47  72
ENDBRANCH  45  47
ENDBRANCH   1  43
BRANCH   1  90
ATOM     90  C16 non d ame     -36.840  16.675  25.116  0.00  0.00    -0.035 C 
ATOM     91  H21 non d ame     -35.860  16.744  24.646  0.00  0.00     0.037 H 
ATOM     92  H22 non d ame     -37.599  16.013  24.700  0.00  0.00     0.037 H 
BRANCH  90  93
ATOM     93  C17 non d ame     -37.445  18.115  25.084  0.00  0.00    -0.059 C 
ATOM     94  H23 non d ame     -38.072  18.191  24.196  0.00  0.00     0.038 H 
BRANCH  93  95
ATOM     95  C18 non d ame     -38.343  18.405  26.329  0.00  0.00    -0.073 C 
ATOM     96  H24 non d ame     -37.870  17.996  27.221  0.00  0.00     0.028 H 
ATOM     97  H25 non d ame     -38.465  19.483  26.445  0.00  0.00     0.028 H 
ATOM     98  H26 non d ame     -39.319  17.942  26.189  0.00  0.00     0.028 H 
ENDBRANCH  93  95
BRANCH  93  99
ATOM     99  C19 non d ame     -36.341  19.168  24.951  0.00  0.00    -0.073 C 
ATOM    100  H27 non d ame     -36.792  20.156  24.846  0.00  0.00     0.028 H 
ATOM    101  H28 non d ame     -35.713  19.150  25.842  0.00  0.00     0.028 H 
ATOM    102  H29 non d ame     -35.734  18.950  24.074  0.00  0.00     0.028 H 
ENDBRANCH  93  99
ENDBRANCH  90  93
ENDBRANCH   1  90
TORSDOF 26
ENDMDL
MODEL 20
REMARK VINA RESULT:      -6.4      2.029      4.939
REMARK  26 active torsions:
REMARK  status: ('A' for Active; 'I' for Inactive)
REMARK    1  A    between atoms: C2_2  and  C3_3 
REMARK    2  A    between atoms: C4_6  and  C5_7 
REMARK       I    between atoms: C5_7  and  N2_9 
REMARK    3  A    between atoms: N2_9  and  C6_10 
REMARK    4  A    between atoms: C6_10  and  C7_11 
REMARK    5  A    between atoms: C6_10  and  C8_13 
REMARK       I    between atoms: C7_11  and  N3_14 
REMARK    6  A    between atoms: N3_14  and  C9_15 
REMARK    7  A    between atoms: C9_15  and  C10_16 
REMARK    8  A    between atoms: C9_15  and  C11_18 
REMARK       I    between atoms: C10_16  and  N4_21 
REMARK    9  A    between atoms: C11_18  and  C12_19 
REMARK   10  A    between atoms: C11_18  and  C13_20 
REMARK   11  A    between atoms: N4_21  and  C14_22 
REMARK   12  A    between atoms: C14_22  and  C15_23 
REMARK   13  A    between atoms: C14_22  and  C16_25 
REMARK       I    between atoms: C15_23  and  N6_40 
REMARK   14  A    between atoms: C16_25  and  C17_26 
REMARK   15  A    between atoms: C17_26  and  C18_27 
REMARK   16  A    between atoms: C17_26  and  C19_28 
REMARK   17  A    between atoms: C20_29  and  C21_30 
REMARK   18  A    between atoms: C20_29  and  C24_33 
REMARK   19  A    between atoms: C20_29  and  N6_40 
REMARK   20  A    between atoms: C21_30  and  C22_31 
REMARK   21  A    between atoms: C22_31  and  C23_32 
REMARK   22  A    between atoms: C23_32  and  O8_43 
REMARK   23  A    between atoms: C24_33  and  C25_34 
REMARK   24  A    between atoms: C28_38  and  O6_39 
REMARK   25  A    between atoms: C29_42  and  O8_43 
REMARK   26  A    between atoms: C29_42  and  C35_49 
ROOT
ATOM      1  C14 non d ame     -32.506   9.867  24.622  0.00  0.00     0.089 C 
ATOM      2  H20 non d ame     -32.291   9.027  25.283  0.00  0.00     0.087 H 
ENDROOT
BRANCH   1   3
ATOM      3  N4  non d ame     -33.868  10.300  24.892  0.00  0.00    -0.346 N 
ATOM      4  C10 non d ame     -34.547   9.917  26.184  0.00  0.00     0.241 C 
ATOM      5  O4  non d ame     -33.977   9.258  26.989  0.00  0.00    -0.271 OA
ATOM      6  H19 non d ame     -34.337  10.859  24.193  0.00  0.00     0.163 HD
BRANCH   4   7
ATOM      7  C9  non d ame     -35.956  10.379  26.450  0.00  0.00     0.092 C 
ATOM      8  H11 non d ame     -36.062  10.617  27.508  0.00  0.00     0.088 H 
BRANCH   7   9
ATOM      9  N3  non d ame     -36.216  11.611  25.700  0.00  0.00    -0.346 N 
ATOM     10  C7  non d ame     -36.982  12.674  26.304  0.00  0.00     0.240 C 
ATOM     11  O3  non d ame     -37.397  12.553  27.392  0.00  0.00    -0.271 OA
ATOM     12  H10 non d ame     -35.866  11.729  24.761  0.00  0.00     0.163 HD
BRANCH  10  13
ATOM     13  C6  non d ame     -37.259  13.982  25.500  0.00  0.00     0.086 C 
ATOM     14  H6  non d ame     -38.237  14.412  25.717  0.00  0.00     0.086 H 
BRANCH  13  15
ATOM     15  N2  non d ame     -36.273  14.983  25.875  0.00  0.00    -0.343 N 
ATOM     16  C5  non d ame     -36.636  16.028  26.835  0.00  0.00     0.273 C 
ATOM     17  O2  non d ame     -37.723  16.057  27.297  0.00  0.00    -0.266 OA
ATOM     18  H5  non d ame     -35.347  14.953  25.472  0.00  0.00     0.163 HD
BRANCH  16  19
ATOM     19  C4  non d ame     -35.603  17.091  27.241  0.00  0.00     0.154 A 
ATOM     20  C1  non d ame     -34.559  17.638  26.430  0.00  0.00    -0.017 A 
ATOM     21  C2  non d ame     -33.898  18.567  27.264  0.00  0.00     0.077 A 
ATOM     22  H1  non d ame     -34.317  17.397  25.395  0.00  0.00     0.091 H 
ATOM     23  O1  non d ame     -34.502  18.550  28.417  0.00  0.00    -0.218 OA
ATOM     24  N1  non d ame     -35.499  17.696  28.428  0.00  0.00    -0.123 NA
BRANCH  21  25
ATOM     25  C3  non d ame     -32.702  19.429  26.883  0.00  0.00    -0.029 C 
ATOM     26  H2  non d ame     -31.780  18.893  27.109  0.00  0.00     0.036 H 
ATOM     27  H3  non d ame     -32.739  19.651  25.817  0.00  0.00     0.036 H 
ATOM     28  H4  non d ame     -32.729  20.359  27.449  0.00  0.00     0.036 H 
ENDBRANCH  21  25
ENDBRANCH  16  19
ENDBRANCH  13  15
BRANCH  13  29
ATOM     29  C8  non d ame     -37.168  13.696  24.022  0.00  0.00    -0.049 C 
ATOM     30  H7  non d ame     -38.029  13.105  23.713  0.00  0.00     0.030 H 
ATOM     31  H8  non d ame     -37.156  14.637  23.471  0.00  0.00     0.030 H 
ATOM     32  H9  non d ame     -36.252  13.142  23.815  0.00  0.00     0.030 H 
ENDBRANCH  13  29
ENDBRANCH  10  13
ENDBRANCH   7   9
BRANCH   7  33
ATOM     33  C11 non d ame     -36.957   9.277  25.996  0.00  0.00    -0.033 C 
ATOM     34  H12 non d ame     -36.420   8.327  25.993  0.00  0.00     0.042 H 
BRANCH  33  35
ATOM     35  C12 non d ame     -38.146   9.141  26.996  0.00  0.00    -0.071 C 
ATOM     36  H13 non d ame     -37.894   9.642  27.931  0.00  0.00     0.028 H 
ATOM     37  H14 non d ame     -39.036   9.599  26.566  0.00  0.00     0.028 H 
ATOM     38  H15 non d ame     -38.339   8.086  27.191  0.00  0.00     0.028 H 
ENDBRANCH  33  35
BRANCH  33  39
ATOM     39  C13 non d ame     -37.466   9.548  24.543  0.00  0.00    -0.071 C 
ATOM     40  H16 non d ame     -36.937  10.405  24.126  0.00  0.00     0.028 H 
ATOM     41  H17 non d ame     -37.281   8.670  23.923  0.00  0.00     0.028 H 
ATOM     42  H18 non d ame     -38.535   9.756  24.566  0.00  0.00     0.028 H 
ENDBRANCH  33  39
ENDBRANCH   7  33
ENDBRANCH   4   7
ENDBRANCH   1   3
BRANCH   1  43
ATOM     43  C15 non d ame     -31.547  11.067  24.866  0.00  0.00     0.240 C 
ATOM     44  O5  non d ame     -30.809  11.053  25.797  0.00  0.00    -0.271 OA
ATOM     45  N6  non d ame     -31.542  12.229  23.933  0.00  0.00    -0.355 N 
ATOM     46  H46 non d ame     -32.161  12.249  23.135  0.00  0.00     0.162 HD
BRANCH  45  47
ATOM     47  C20 non d ame     -30.623  13.363  24.178  0.00  0.00     0.013 C 
ATOM     48  H30 non d ame     -29.917  13.060  24.952  0.00  0.00     0.072 H 
BRANCH  47  49
ATOM     49  C21 non d ame     -31.419  14.560  24.644  0.00  0.00    -0.038 C 
ATOM     50  H31 non d ame     -30.781  15.427  24.463  0.00  0.00     0.036 H 
ATOM     51  H32 non d ame     -32.386  14.482  24.147  0.00  0.00     0.036 H 
BRANCH  49  52
ATOM     52  C22 non d ame     -31.704  14.538  26.161  0.00  0.00     0.018 C 
ATOM     53  H33 non d ame     -31.009  13.812  26.581  0.00  0.00     0.048 H 
ATOM     54  H34 non d ame     -31.664  15.579  26.483  0.00  0.00     0.048 H 
BRANCH  52  55
ATOM     55  C23 non d ame     -33.126  14.031  26.524  0.00  0.00     0.259 C 
ATOM     56  O7  non d ame     -33.721  13.318  25.782  0.00  0.00    -0.265 OA
BRANCH  55  57
ATOM     57  O8  non d ame     -33.720  14.441  27.750  0.00  0.00    -0.317 OA
BRANCH  57  58
ATOM     58  C29 non d ame     -32.780  14.895  28.729  0.00  0.00     0.052 C 
ATOM     59  H47 non d ame     -31.937  15.292  28.164  0.00  0.00     0.082 H 
ATOM     60  H48 non d ame     -33.342  15.545  29.399  0.00  0.00     0.082 H 
BRANCH  58  61
ATOM     61  C35 non d ame     -32.293  13.661  29.535  0.00  0.00    -0.034 A 
ATOM     62  C30 non d ame     -33.196  12.666  29.898  0.00  0.00    -0.075 A 
ATOM     63  C31 non d ame     -32.758  11.558  30.622  0.00  0.00    -0.082 A 
ATOM     64  H49 non d ame     -34.245  12.755  29.616  0.00  0.00     0.084 H 
ATOM     65  C32 non d ame     -31.414  11.448  30.985  0.00  0.00    -0.083 A 
ATOM     66  H50 non d ame     -33.468  10.779  30.904  0.00  0.00     0.083 H 
ATOM     67  C33 non d ame     -30.518  12.444  30.623  0.00  0.00    -0.082 A 
ATOM     68  H51 non d ame     -31.064  10.584  31.551  0.00  0.00     0.083 H 
ATOM     69  C34 non d ame     -30.950  13.553  29.898  0.00  0.00    -0.075 A 
ATOM     70  H52 non d ame     -29.469  12.356  30.910  0.00  0.00     0.083 H 
ATOM     71  H53 non d ame     -30.239  14.330  29.616  0.00  0.00     0.084 H 
ENDBRANCH  58  61
ENDBRANCH  57  58
ENDBRANCH  55  57
ENDBRANCH  52  55
ENDBRANCH  49  52
ENDBRANCH  47  49
BRANCH  47  72
ATOM     72  C24 non d ame     -29.880  13.713  22.890  0.00  0.00    -0.039 C 
ATOM     73  H35 non d ame     -28.847  13.891  23.192  0.00  0.00     0.036 H 
ATOM     74  H36 non d ame     -30.112  12.908  22.193  0.00  0.00     0.036 H 
BRANCH  72  75
ATOM     75  C25 non d ame     -30.426  15.072  22.242  0.00  0.00    -0.001 C 
ATOM     76  C26 non d ame     -31.090  14.762  20.770  0.00  0.00    -0.035 C 
ATOM     77  C27 non d ame     -30.550  15.609  19.861  0.00  0.00     0.085 C 
ATOM     78  H38 non d ame     -30.779  13.779  20.419  0.00  0.00     0.036 H 
ATOM     79  H39 non d ame     -32.146  15.032  20.773  0.00  0.00     0.036 H 
ATOM     80  N5  non d ame     -29.344  16.243  20.510  0.00  0.00    -0.049 N 
ATOM     81  H40 non d ame     -30.218  14.978  19.036  0.00  0.00     0.075 H 
ATOM     82  H41 non d ame     -31.306  16.375  19.691  0.00  0.00     0.075 H 
ATOM     83  C28 non d ame     -29.474  15.932  22.089  0.00  0.00     0.193 C 
ATOM     84  H42 non d ame     -28.535  15.756  20.152  0.00  0.00     0.280 HD
ATOM     85  H43 non d ame     -29.435  17.240  20.370  0.00  0.00     0.280 HD
ATOM     86  H44 non d ame     -29.796  16.708  22.782  0.00  0.00     0.129 H 
ATOM     87  H37 non d ame     -31.023  15.654  22.944  0.00  0.00     0.046 H 
BRANCH  83  88
ATOM     88  O6  non d ame     -28.228  15.455  22.602  0.00  0.00    -0.369 OA
ATOM     89  H45 non d ame     -27.544  15.570  21.938  0.00  0.00     0.212 HD
ENDBRANCH  83  88
ENDBRANCH  72  75
ENDBRANCH  47  72
ENDBRANCH  45  47
ENDBRANCH   1  43
BRANCH   1  90
ATOM     90  C16 non d ame     -32.406   9.420  23.172  0.00  0.00    -0.035 C 
ATOM     91  H21 non d ame     -33.430   9.412  22.801  0.00  0.00     0.037 H 
ATOM     92  H22 non d ame     -31.667  10.079  22.717  0.00  0.00     0.037 H 
BRANCH  90  93
ATOM     93  C17 non d ame     -31.865   7.965  23.000  0.00  0.00    -0.059 C 
ATOM     94  H23 non d ame     -32.386   7.515  22.155  0.00  0.00     0.038 H 
BRANCH  93  95
ATOM     95  C18 non d ame     -30.335   7.938  22.687  0.00  0.00    -0.073 C 
ATOM     96  H24 non d ame     -30.059   8.842  22.145  0.00  0.00     0.028 H 
ATOM     97  H25 non d ame     -29.774   7.890  23.620  0.00  0.00     0.028 H 
ATOM     98  H26 non d ame     -30.104   7.064  22.078  0.00  0.00     0.028 H 
ENDBRANCH  93  95
BRANCH  93  99
ATOM     99  C19 non d ame     -32.183   7.115  24.234  0.00  0.00    -0.073 C 
ATOM    100  H27 non d ame     -31.458   7.330  25.020  0.00  0.00     0.028 H 
ATOM    101  H28 non d ame     -33.185   7.351  24.590  0.00  0.00     0.028 H 
ATOM    102  H29 non d ame     -32.131   6.059  23.971  0.00  0.00     0.028 H 
ENDBRANCH  93  99
ENDBRANCH  90  93
ENDBRANCH   1  90
TORSDOF 26
ENDMDL
