MODEL 1
REMARK VINA RESULT:      -7.1      0.000      0.000
REMARK  26 active torsions:
REMARK  status: ('A' for Active; 'I' for Inactive)
REMARK    1  A    between atoms: C2_2  and  C3_3 
REMARK    2  A    between atoms: C4_6  and  C5_7 
REMARK       I    between atoms: C5_7  and  N2_9 
REMARK    3  A    between atoms: N2_9  and  C6_10 
REMARK    4  A    between atoms: C6_10  and  C7_11 
REMARK    5  A    between atoms: C6_10  and  C8_13 
REMARK       I    between atoms: C7_11  and  N3_14 
REMARK    6  A    between atoms: N3_14  and  C9_15 
REMARK    7  A    between atoms: C9_15  and  C10_16 
REMARK    8  A    between atoms: C9_15  and  C11_18 
REMARK       I    between atoms: C10_16  and  N4_21 
REMARK    9  A    between atoms: C11_18  and  C12_19 
REMARK   10  A    between atoms: C11_18  and  C13_20 
REMARK   11  A    between atoms: N4_21  and  C14_22 
REMARK   12  A    between atoms: C14_22  and  C15_23 
REMARK   13  A    between atoms: C14_22  and  C16_25 
REMARK       I    between atoms: C15_23  and  N6_40 
REMARK   14  A    between atoms: C16_25  and  C17_26 
REMARK   15  A    between atoms: C17_26  and  C18_27 
REMARK   16  A    between atoms: C17_26  and  C19_28 
REMARK   17  A    between atoms: C20_29  and  C21_30 
REMARK   18  A    between atoms: C20_29  and  C24_33 
REMARK   19  A    between atoms: C20_29  and  N6_40 
REMARK   20  A    between atoms: C21_30  and  C22_31 
REMARK   21  A    between atoms: C22_31  and  C23_32 
REMARK   22  A    between atoms: C23_32  and  O8_43 
REMARK   23  A    between atoms: C24_33  and  C25_34 
REMARK   24  A    between atoms: C28_38  and  O6_39 
REMARK   25  A    between atoms: C29_42  and  O8_43 
REMARK   26  A    between atoms: C29_42  and  C35_49 
ROOT
ATOM      1  C14 non d ame     -30.738  14.454  23.844  0.00  0.00     0.089 C 
ATOM      2  H20 non d ame     -29.656  14.538  23.739  0.00  0.00     0.087 H 
ENDROOT
BRANCH   1   3
ATOM      3  N4  non d ame     -31.043  13.056  24.112  0.00  0.00    -0.346 N 
ATOM      4  C10 non d ame     -30.413  11.966  23.282  0.00  0.00     0.241 C 
ATOM      5  O4  non d ame     -29.666  12.238  22.401  0.00  0.00    -0.271 OA
ATOM      6  H19 non d ame     -31.682  12.846  24.865  0.00  0.00     0.163 HD
BRANCH   4   7
ATOM      7  C9  non d ame     -30.736  10.525  23.578  0.00  0.00     0.092 C 
ATOM      8  H11 non d ame     -30.087  10.169  24.380  0.00  0.00     0.088 H 
BRANCH   7   9
ATOM      9  N3  non d ame     -32.116  10.421  24.058  0.00  0.00    -0.346 N 
ATOM     10  C7  non d ame     -32.392  10.467  25.473  0.00  0.00     0.240 C 
ATOM     11  O3  non d ame     -31.515  10.584  26.239  0.00  0.00    -0.271 OA
ATOM     12  H10 non d ame     -32.883  10.318  23.410  0.00  0.00     0.163 HD
BRANCH  10  13
ATOM     13  C6  non d ame     -33.864  10.353  25.979  0.00  0.00     0.086 C 
ATOM     14  H6  non d ame     -33.948  10.467  27.060  0.00  0.00     0.086 H 
BRANCH  13  15
ATOM     15  N2  non d ame     -34.650  11.423  25.386  0.00  0.00    -0.343 N 
ATOM     16  C5  non d ame     -35.636  12.132  26.205  0.00  0.00     0.273 C 
ATOM     17  O2  non d ame     -35.791  11.833  27.338  0.00  0.00    -0.266 OA
ATOM     18  H5  non d ame     -34.513  11.669  24.417  0.00  0.00     0.163 HD
BRANCH  16  19
ATOM     19  C4  non d ame     -36.472  13.265  25.592  0.00  0.00     0.154 A 
ATOM     20  C1  non d ame     -36.973  13.344  24.254  0.00  0.00    -0.017 A 
ATOM     21  C2  non d ame     -37.671  14.572  24.198  0.00  0.00     0.077 A 
ATOM     22  H1  non d ame     -36.849  12.623  23.446  0.00  0.00     0.091 H 
ATOM     23  O1  non d ame     -37.577  15.124  25.373  0.00  0.00    -0.218 OA
ATOM     24  N1  non d ame     -36.882  14.381  26.202  0.00  0.00    -0.123 NA
BRANCH  21  25
ATOM     25  C3  non d ame     -38.398  15.141  22.987  0.00  0.00    -0.029 C 
ATOM     26  H2  non d ame     -37.768  15.886  22.501  0.00  0.00     0.036 H 
ATOM     27  H3  non d ame     -38.617  14.338  22.284  0.00  0.00     0.036 H 
ATOM     28  H4  non d ame     -39.329  15.607  23.308  0.00  0.00     0.036 H 
ENDBRANCH  21  25
ENDBRANCH  16  19
ENDBRANCH  13  15
BRANCH  13  29
ATOM     29  C8  non d ame     -34.433   9.014  25.583  0.00  0.00    -0.049 C 
ATOM     30  H7  non d ame     -33.670   8.435  25.063  0.00  0.00     0.030 H 
ATOM     31  H8  non d ame     -34.750   8.476  26.477  0.00  0.00     0.030 H 
ATOM     32  H9  non d ame     -35.289   9.163  24.925  0.00  0.00     0.030 H 
ENDBRANCH  13  29
ENDBRANCH  10  13
ENDBRANCH   7   9
BRANCH   7  33
ATOM     33  C11 non d ame     -30.576   9.681  22.280  0.00  0.00    -0.033 C 
ATOM     34  H12 non d ame     -30.585  10.372  21.436  0.00  0.00     0.042 H 
BRANCH  33  35
ATOM     35  C12 non d ame     -29.210   8.927  22.255  0.00  0.00    -0.071 C 
ATOM     36  H13 non d ame     -28.557   9.332  23.029  0.00  0.00     0.028 H 
ATOM     37  H14 non d ame     -29.377   7.866  22.440  0.00  0.00     0.028 H 
ATOM     38  H15 non d ame     -28.740   9.057  21.280  0.00  0.00     0.028 H 
ENDBRANCH  33  35
BRANCH  33  39
ATOM     39  C13 non d ame     -31.772   8.691  22.106  0.00  0.00    -0.071 C 
ATOM     40  H16 non d ame     -32.287   8.571  23.059  0.00  0.00     0.028 H 
ATOM     41  H17 non d ame     -32.467   9.087  21.364  0.00  0.00     0.028 H 
ATOM     42  H18 non d ame     -31.398   7.724  21.771  0.00  0.00     0.028 H 
ENDBRANCH  33  39
ENDBRANCH   7  33
ENDBRANCH   4   7
ENDBRANCH   1   3
BRANCH   1  43
ATOM     43  C15 non d ame     -31.283  15.314  25.019  0.00  0.00     0.240 C 
ATOM     44  O5  non d ame     -31.344  16.496  24.907  0.00  0.00    -0.271 OA
ATOM     45  N6  non d ame     -31.739  14.665  26.280  0.00  0.00    -0.355 N 
ATOM     46  H46 non d ame     -31.697  13.661  26.385  0.00  0.00     0.162 HD
BRANCH  45  47
ATOM     47  C20 non d ame     -32.258  15.497  27.388  0.00  0.00     0.013 C 
ATOM     48  H30 non d ame     -31.825  16.493  27.290  0.00  0.00     0.072 H 
BRANCH  47  49
ATOM     49  C21 non d ame     -31.849  14.883  28.708  0.00  0.00    -0.038 C 
ATOM     50  H31 non d ame     -30.769  14.736  28.642  0.00  0.00     0.036 H 
ATOM     51  H32 non d ame     -32.264  15.534  29.476  0.00  0.00     0.036 H 
BRANCH  49  52
ATOM     52  C22 non d ame     -32.466  13.487  28.937  0.00  0.00     0.018 C 
ATOM     53  H33 non d ame     -33.129  13.595  29.794  0.00  0.00     0.048 H 
ATOM     54  H34 non d ame     -32.870  13.181  27.971  0.00  0.00     0.048 H 
BRANCH  52  55
ATOM     55  C23 non d ame     -31.429  12.400  29.332  0.00  0.00     0.259 C 
ATOM     56  O7  non d ame     -30.292  12.501  28.999  0.00  0.00    -0.265 OA
BRANCH  55  57
ATOM     57  O8  non d ame     -31.854  11.271  30.085  0.00  0.00    -0.317 OA
BRANCH  57  58
ATOM     58  C29 non d ame     -33.010  10.618  29.550  0.00  0.00     0.052 C 
ATOM     59  H47 non d ame     -33.524  11.371  28.954  0.00  0.00     0.082 H 
ATOM     60  H48 non d ame     -32.642   9.706  29.080  0.00  0.00     0.082 H 
BRANCH  58  61
ATOM     61  C35 non d ame     -33.928  10.220  30.738  0.00  0.00    -0.034 A 
ATOM     62  C30 non d ame     -34.270  11.166  31.700  0.00  0.00    -0.075 A 
ATOM     63  C31 non d ame     -35.094  10.809  32.766  0.00  0.00    -0.082 A 
ATOM     64  H49 non d ame     -33.892  12.185  31.619  0.00  0.00     0.084 H 
ATOM     65  C32 non d ame     -35.575   9.501  32.870  0.00  0.00    -0.083 A 
ATOM     66  H50 non d ame     -35.362  11.552  33.518  0.00  0.00     0.083 H 
ATOM     67  C33 non d ame     -35.228   8.561  31.909  0.00  0.00    -0.082 A 
ATOM     68  H51 non d ame     -36.220   9.214  33.700  0.00  0.00     0.083 H 
ATOM     69  C34 non d ame     -34.406   8.913  30.841  0.00  0.00    -0.075 A 
ATOM     70  H52 non d ame     -35.603   7.540  31.994  0.00  0.00     0.083 H 
ATOM     71  H53 non d ame     -34.140   8.169  30.090  0.00  0.00     0.084 H 
ENDBRANCH  58  61
ENDBRANCH  57  58
ENDBRANCH  55  57
ENDBRANCH  52  55
ENDBRANCH  49  52
ENDBRANCH  47  49
BRANCH  47  72
ATOM     72  C24 non d ame     -33.781  15.571  27.310  0.00  0.00    -0.039 C 
ATOM     73  H35 non d ame     -34.055  14.985  26.432  0.00  0.00     0.036 H 
ATOM     74  H36 non d ame     -34.137  15.272  28.296  0.00  0.00     0.036 H 
BRANCH  72  75
ATOM     75  C25 non d ame     -34.290  17.068  27.057  0.00  0.00    -0.001 C 
ATOM     76  C26 non d ame     -35.534  17.415  28.075  0.00  0.00    -0.035 C 
ATOM     77  C27 non d ame     -36.567  17.907  27.349  0.00  0.00     0.085 C 
ATOM     78  H38 non d ame     -35.937  16.496  28.501  0.00  0.00     0.036 H 
ATOM     79  H39 non d ame     -35.263  18.246  28.727  0.00  0.00     0.036 H 
ATOM     80  N5  non d ame     -36.263  17.621  25.899  0.00  0.00    -0.049 N 
ATOM     81  H40 non d ame     -37.439  17.325  27.651  0.00  0.00     0.075 H 
ATOM     82  H41 non d ame     -36.549  18.985  27.510  0.00  0.00     0.075 H 
ATOM     83  C28 non d ame     -34.699  17.224  25.842  0.00  0.00     0.193 C 
ATOM     84  H42 non d ame     -36.810  16.810  25.645  0.00  0.00     0.280 HD
ATOM     85  H43 non d ame     -36.393  18.492  25.402  0.00  0.00     0.280 HD
ATOM     86  H44 non d ame     -33.961  17.935  25.474  0.00  0.00     0.129 H 
ATOM     87  H37 non d ame     -33.468  17.783  27.017  0.00  0.00     0.046 H 
BRANCH  83  88
ATOM     88  O6  non d ame     -34.518  16.044  25.056  0.00  0.00    -0.369 OA
ATOM     89  H45 non d ame     -34.214  16.287  24.179  0.00  0.00     0.212 HD
ENDBRANCH  83  88
ENDBRANCH  72  75
ENDBRANCH  47  72
ENDBRANCH  45  47
ENDBRANCH   1  43
BRANCH   1  90
ATOM     90  C16 non d ame     -31.415  14.869  22.548  0.00  0.00    -0.035 C 
ATOM     91  H21 non d ame     -31.660  13.938  22.038  0.00  0.00     0.037 H 
ATOM     92  H22 non d ame     -32.210  15.553  22.844  0.00  0.00     0.037 H 
BRANCH  90  93
ATOM     93  C17 non d ame     -30.483  15.667  21.581  0.00  0.00    -0.059 C 
ATOM     94  H23 non d ame     -30.763  16.718  21.644  0.00  0.00     0.038 H 
BRANCH  93  95
ATOM     95  C18 non d ame     -28.978  15.549  21.982  0.00  0.00    -0.073 C 
ATOM     96  H24 non d ame     -28.538  14.681  21.491  0.00  0.00     0.028 H 
ATOM     97  H25 non d ame     -28.447  16.449  21.671  0.00  0.00     0.028 H 
ATOM     98  H26 non d ame     -28.897  15.436  23.063  0.00  0.00     0.028 H 
ENDBRANCH  93  95
BRANCH  93  99
ATOM     99  C19 non d ame     -30.696  15.227  20.130  0.00  0.00    -0.073 C 
ATOM    100  H27 non d ame     -30.455  14.168  20.032  0.00  0.00     0.028 H 
ATOM    101  H28 non d ame     -31.737  15.389  19.850  0.00  0.00     0.028 H 
ATOM    102  H29 non d ame     -30.049  15.810  19.475  0.00  0.00     0.028 H 
ENDBRANCH  93  99
ENDBRANCH  90  93
ENDBRANCH   1  90
TORSDOF 26
ENDMDL
MODEL 2
REMARK VINA RESULT:      -7.0      3.307      6.603
REMARK  26 active torsions:
REMARK  status: ('A' for Active; 'I' for Inactive)
REMARK    1  A    between atoms: C2_2  and  C3_3 
REMARK    2  A    between atoms: C4_6  and  C5_7 
REMARK       I    between atoms: C5_7  and  N2_9 
REMARK    3  A    between atoms: N2_9  and  C6_10 
REMARK    4  A    between atoms: C6_10  and  C7_11 
REMARK    5  A    between atoms: C6_10  and  C8_13 
REMARK       I    between atoms: C7_11  and  N3_14 
REMARK    6  A    between atoms: N3_14  and  C9_15 
REMARK    7  A    between atoms: C9_15  and  C10_16 
REMARK    8  A    between atoms: C9_15  and  C11_18 
REMARK       I    between atoms: C10_16  and  N4_21 
REMARK    9  A    between atoms: C11_18  and  C12_19 
REMARK   10  A    between atoms: C11_18  and  C13_20 
REMARK   11  A    between atoms: N4_21  and  C14_22 
REMARK   12  A    between atoms: C14_22  and  C15_23 
REMARK   13  A    between atoms: C14_22  and  C16_25 
REMARK       I    between atoms: C15_23  and  N6_40 
REMARK   14  A    between atoms: C16_25  and  C17_26 
REMARK   15  A    between atoms: C17_26  and  C18_27 
REMARK   16  A    between atoms: C17_26  and  C19_28 
REMARK   17  A    between atoms: C20_29  and  C21_30 
REMARK   18  A    between atoms: C20_29  and  C24_33 
REMARK   19  A    between atoms: C20_29  and  N6_40 
REMARK   20  A    between atoms: C21_30  and  C22_31 
REMARK   21  A    between atoms: C22_31  and  C23_32 
REMARK   22  A    between atoms: C23_32  and  O8_43 
REMARK   23  A    between atoms: C24_33  and  C25_34 
REMARK   24  A    between atoms: C28_38  and  O6_39 
REMARK   25  A    between atoms: C29_42  and  O8_43 
REMARK   26  A    between atoms: C29_42  and  C35_49 
ROOT
ATOM      1  C14 non d ame     -32.622  10.430  25.794  0.00  0.00     0.089 C 
ATOM      2  H20 non d ame     -33.524  10.497  25.185  0.00  0.00     0.087 H 
ENDROOT
BRANCH   1   3
ATOM      3  N4  non d ame     -32.110   9.074  25.669  0.00  0.00    -0.346 N 
ATOM      4  C10 non d ame     -32.931   8.008  24.987  0.00  0.00     0.241 C 
ATOM      5  O4  non d ame     -34.003   8.265  24.549  0.00  0.00    -0.271 OA
ATOM      6  H19 non d ame     -31.195   8.875  26.050  0.00  0.00     0.163 HD
BRANCH   4   7
ATOM      7  C9  non d ame     -32.381   6.612  24.861  0.00  0.00     0.092 C 
ATOM      8  H11 non d ame     -31.317   6.622  25.098  0.00  0.00     0.088 H 
BRANCH   7   9
ATOM      9  N3  non d ame     -33.035   5.739  25.839  0.00  0.00    -0.346 N 
ATOM     10  C7  non d ame     -32.678   5.824  27.234  0.00  0.00     0.240 C 
ATOM     11  O3  non d ame     -31.865   6.589  27.586  0.00  0.00    -0.271 OA
ATOM     12  H10 non d ame     -33.737   5.073  25.550  0.00  0.00     0.163 HD
BRANCH  10  13
ATOM     13  C6  non d ame     -33.376   4.889  28.270  0.00  0.00     0.086 C 
ATOM     14  H6  non d ame     -32.770   4.719  29.160  0.00  0.00     0.086 H 
BRANCH  13  15
ATOM     15  N2  non d ame     -34.606   5.521  28.721  0.00  0.00    -0.343 N 
ATOM     16  C5  non d ame     -34.933   5.526  30.149  0.00  0.00     0.273 C 
ATOM     17  O2  non d ame     -34.202   5.017  30.926  0.00  0.00    -0.266 OA
ATOM     18  H5  non d ame     -35.226   5.949  28.049  0.00  0.00     0.163 HD
BRANCH  16  19
ATOM     19  C4  non d ame     -36.229   6.191  30.638  0.00  0.00     0.154 A 
ATOM     20  C1  non d ame     -36.523   7.590  30.671  0.00  0.00    -0.017 A 
ATOM     21  C2  non d ame     -37.830   7.675  31.202  0.00  0.00     0.077 A 
ATOM     22  H1  non d ame     -35.887   8.418  30.360  0.00  0.00     0.091 H 
ATOM     23  O1  non d ame     -38.231   6.460  31.439  0.00  0.00    -0.218 OA
ATOM     24  N1  non d ame     -37.313   5.577  31.119  0.00  0.00    -0.123 NA
BRANCH  21  25
ATOM     25  C3  non d ame     -38.623   8.952  31.448  0.00  0.00    -0.029 C 
ATOM     26  H2  non d ame     -39.054   9.299  30.509  0.00  0.00     0.036 H 
ATOM     27  H3  non d ame     -39.422   8.751  32.162  0.00  0.00     0.036 H 
ATOM     28  H4  non d ame     -37.961   9.719  31.849  0.00  0.00     0.036 H 
ENDBRANCH  21  25
ENDBRANCH  16  19
ENDBRANCH  13  15
BRANCH  13  29
ATOM     29  C8  non d ame     -33.683   3.561  27.627  0.00  0.00    -0.049 C 
ATOM     30  H7  non d ame     -33.030   3.414  26.767  0.00  0.00     0.030 H 
ATOM     31  H8  non d ame     -33.518   2.761  28.349  0.00  0.00     0.030 H 
ATOM     32  H9  non d ame     -34.723   3.547  27.301  0.00  0.00     0.030 H 
ENDBRANCH  13  29
ENDBRANCH  10  13
ENDBRANCH   7   9
BRANCH   7  33
ATOM     33  C11 non d ame     -32.654   6.075  23.426  0.00  0.00    -0.033 C 
ATOM     34  H12 non d ame     -33.480   6.653  23.010  0.00  0.00     0.042 H 
BRANCH  33  35
ATOM     35  C12 non d ame     -31.419   6.286  22.494  0.00  0.00    -0.071 C 
ATOM     36  H13 non d ame     -31.650   7.050  21.752  0.00  0.00     0.028 H 
ATOM     37  H14 non d ame     -30.565   6.605  23.091  0.00  0.00     0.028 H 
ATOM     38  H15 non d ame     -31.181   5.350  21.989  0.00  0.00     0.028 H 
ENDBRANCH  33  35
BRANCH  33  39
ATOM     39  C13 non d ame     -33.086   4.574  23.462  0.00  0.00    -0.071 C 
ATOM     40  H16 non d ame     -33.857   4.435  24.220  0.00  0.00     0.028 H 
ATOM     41  H17 non d ame     -33.478   4.284  22.487  0.00  0.00     0.028 H 
ATOM     42  H18 non d ame     -32.223   3.953  23.705  0.00  0.00     0.028 H 
ENDBRANCH  33  39
ENDBRANCH   7  33
ENDBRANCH   4   7
ENDBRANCH   1   3
BRANCH   1  43
ATOM     43  C15 non d ame     -31.521  11.422  25.325  0.00  0.00     0.240 C 
ATOM     44  O5  non d ame     -30.432  11.018  25.071  0.00  0.00    -0.271 OA
ATOM     45  N6  non d ame     -31.825  12.873  25.181  0.00  0.00    -0.355 N 
ATOM     46  H46 non d ame     -32.749  13.227  25.388  0.00  0.00     0.162 HD
BRANCH  45  47
ATOM     47  C20 non d ame     -30.767  13.804  24.731  0.00  0.00     0.013 C 
ATOM     48  H30 non d ame     -29.809  13.412  25.071  0.00  0.00     0.072 H 
BRANCH  47  49
ATOM     49  C21 non d ame     -31.011  15.168  25.337  0.00  0.00    -0.038 C 
ATOM     50  H31 non d ame     -30.483  15.164  26.293  0.00  0.00     0.036 H 
ATOM     51  H32 non d ame     -30.735  15.886  24.566  0.00  0.00     0.036 H 
BRANCH  49  52
ATOM     52  C22 non d ame     -32.498  15.423  25.662  0.00  0.00     0.018 C 
ATOM     53  H33 non d ame     -32.911  15.918  24.784  0.00  0.00     0.048 H 
ATOM     54  H34 non d ame     -32.899  14.461  25.983  0.00  0.00     0.048 H 
BRANCH  52  55
ATOM     55  C23 non d ame     -32.722  16.399  26.850  0.00  0.00     0.259 C 
ATOM     56  O7  non d ame     -32.818  17.568  26.661  0.00  0.00    -0.265 OA
BRANCH  55  57
ATOM     57  O8  non d ame     -32.798  15.881  28.173  0.00  0.00    -0.317 OA
BRANCH  57  58
ATOM     58  C29 non d ame     -33.435  14.603  28.261  0.00  0.00     0.052 C 
ATOM     59  H47 non d ame     -34.335  14.763  28.855  0.00  0.00     0.082 H 
ATOM     60  H48 non d ame     -33.515  14.241  27.236  0.00  0.00     0.082 H 
BRANCH  58  61
ATOM     61  C35 non d ame     -32.493  13.650  29.045  0.00  0.00    -0.034 A 
ATOM     62  C30 non d ame     -32.997  12.866  30.078  0.00  0.00    -0.075 A 
ATOM     63  C31 non d ame     -32.151  12.011  30.782  0.00  0.00    -0.082 A 
ATOM     64  H49 non d ame     -34.055  12.922  30.336  0.00  0.00     0.084 H 
ATOM     65  C32 non d ame     -30.795  11.944  30.452  0.00  0.00    -0.083 A 
ATOM     66  H50 non d ame     -32.550  11.396  31.590  0.00  0.00     0.083 H 
ATOM     67  C33 non d ame     -30.295  12.730  29.423  0.00  0.00    -0.082 A 
ATOM     68  H51 non d ame     -30.127  11.277  30.998  0.00  0.00     0.083 H 
ATOM     69  C34 non d ame     -31.138  13.585  28.715  0.00  0.00    -0.075 A 
ATOM     70  H52 non d ame     -29.236  12.677  29.169  0.00  0.00     0.083 H 
ATOM     71  H53 non d ame     -30.738  14.199  27.908  0.00  0.00     0.084 H 
ENDBRANCH  58  61
ENDBRANCH  57  58
ENDBRANCH  55  57
ENDBRANCH  52  55
ENDBRANCH  49  52
ENDBRANCH  47  49
BRANCH  47  72
ATOM     72  C24 non d ame     -30.786  13.912  23.208  0.00  0.00    -0.039 C 
ATOM     73  H35 non d ame     -30.155  13.096  22.853  0.00  0.00     0.036 H 
ATOM     74  H36 non d ame     -31.840  13.945  22.933  0.00  0.00     0.036 H 
BRANCH  72  75
ATOM     75  C25 non d ame     -30.123  15.279  22.702  0.00  0.00    -0.001 C 
ATOM     76  C26 non d ame     -31.251  16.199  21.939  0.00  0.00    -0.035 C 
ATOM     77  C27 non d ame     -30.766  16.574  20.731  0.00  0.00     0.085 C 
ATOM     78  H38 non d ame     -32.121  15.592  21.687  0.00  0.00     0.036 H 
ATOM     79  H39 non d ame     -31.380  17.145  22.466  0.00  0.00     0.036 H 
ATOM     80  N5  non d ame     -29.547  15.725  20.463  0.00  0.00    -0.049 N 
ATOM     81  H40 non d ame     -31.543  16.316  20.011  0.00  0.00     0.075 H 
ATOM     82  H41 non d ame     -30.456  17.612  20.850  0.00  0.00     0.075 H 
ATOM     83  C28 non d ame     -29.154  15.052  21.878  0.00  0.00     0.193 C 
ATOM     84  H42 non d ame     -29.839  14.994  19.830  0.00  0.00     0.280 HD
ATOM     85  H43 non d ame     -28.809  16.361  20.194  0.00  0.00     0.280 HD
ATOM     86  H44 non d ame     -28.311  15.428  22.455  0.00  0.00     0.129 H 
ATOM     87  H37 non d ame     -29.530  15.763  23.478  0.00  0.00     0.046 H 
BRANCH  83  88
ATOM     88  O6  non d ame     -28.908  13.655  21.707  0.00  0.00    -0.369 OA
ATOM     89  H45 non d ame     -28.155  13.395  22.242  0.00  0.00     0.212 HD
ENDBRANCH  83  88
ENDBRANCH  72  75
ENDBRANCH  47  72
ENDBRANCH  45  47
ENDBRANCH   1  43
BRANCH   1  90
ATOM     90  C16 non d ame     -32.965  10.698  27.251  0.00  0.00    -0.035 C 
ATOM     91  H21 non d ame     -32.090  10.380  27.817  0.00  0.00     0.037 H 
ATOM     92  H22 non d ame     -33.287  11.738  27.285  0.00  0.00     0.037 H 
BRANCH  90  93
ATOM     93  C17 non d ame     -34.163   9.847  27.781  0.00  0.00    -0.059 C 
ATOM     94  H23 non d ame     -34.406   9.107  27.019  0.00  0.00     0.038 H 
BRANCH  93  95
ATOM     95  C18 non d ame     -33.806   9.080  29.094  0.00  0.00    -0.073 C 
ATOM     96  H24 non d ame     -32.732   8.898  29.128  0.00  0.00     0.028 H 
ATOM     97  H25 non d ame     -34.099   9.680  29.956  0.00  0.00     0.028 H 
ATOM     98  H26 non d ame     -34.337   8.129  29.116  0.00  0.00     0.028 H 
ENDBRANCH  93  95
BRANCH  93  99
ATOM     99  C19 non d ame     -35.406  10.719  27.981  0.00  0.00    -0.073 C 
ATOM    100  H27 non d ame     -35.748  10.633  29.013  0.00  0.00     0.028 H 
ATOM    101  H28 non d ame     -35.159  11.759  27.766  0.00  0.00     0.028 H 
ATOM    102  H29 non d ame     -36.195  10.387  27.307  0.00  0.00     0.028 H 
ENDBRANCH  93  99
ENDBRANCH  90  93
ENDBRANCH   1  90
TORSDOF 26
ENDMDL
MODEL 3
REMARK VINA RESULT:      -6.9      2.314      5.239
REMARK  26 active torsions:
REMARK  status: ('A' for Active; 'I' for Inactive)
REMARK    1  A    between atoms: C2_2  and  C3_3 
REMARK    2  A    between atoms: C4_6  and  C5_7 
REMARK       I    between atoms: C5_7  and  N2_9 
REMARK    3  A    between atoms: N2_9  and  C6_10 
REMARK    4  A    between atoms: C6_10  and  C7_11 
REMARK    5  A    between atoms: C6_10  and  C8_13 
REMARK       I    between atoms: C7_11  and  N3_14 
REMARK    6  A    between atoms: N3_14  and  C9_15 
REMARK    7  A    between atoms: C9_15  and  C10_16 
REMARK    8  A    between atoms: C9_15  and  C11_18 
REMARK       I    between atoms: C10_16  and  N4_21 
REMARK    9  A    between atoms: C11_18  and  C12_19 
REMARK   10  A    between atoms: C11_18  and  C13_20 
REMARK   11  A    between atoms: N4_21  and  C14_22 
REMARK   12  A    between atoms: C14_22  and  C15_23 
REMARK   13  A    between atoms: C14_22  and  C16_25 
REMARK       I    between atoms: C15_23  and  N6_40 
REMARK   14  A    between atoms: C16_25  and  C17_26 
REMARK   15  A    between atoms: C17_26  and  C18_27 
REMARK   16  A    between atoms: C17_26  and  C19_28 
REMARK   17  A    between atoms: C20_29  and  C21_30 
REMARK   18  A    between atoms: C20_29  and  C24_33 
REMARK   19  A    between atoms: C20_29  and  N6_40 
REMARK   20  A    between atoms: C21_30  and  C22_31 
REMARK   21  A    between atoms: C22_31  and  C23_32 
REMARK   22  A    between atoms: C23_32  and  O8_43 
REMARK   23  A    between atoms: C24_33  and  C25_34 
REMARK   24  A    between atoms: C28_38  and  O6_39 
REMARK   25  A    between atoms: C29_42  and  O8_43 
REMARK   26  A    between atoms: C29_42  and  C35_49 
ROOT
ATOM      1  C14 non d ame     -32.975  10.327  26.369  0.00  0.00     0.089 C 
ATOM      2  H20 non d ame     -33.766  10.678  25.706  0.00  0.00     0.087 H 
ENDROOT
BRANCH   1   3
ATOM      3  N4  non d ame     -32.275   9.251  25.684  0.00  0.00    -0.346 N 
ATOM      4  C10 non d ame     -33.040   8.251  24.853  0.00  0.00     0.241 C 
ATOM      5  O4  non d ame     -34.219   8.331  24.754  0.00  0.00    -0.271 OA
ATOM      6  H19 non d ame     -31.271   9.199  25.783  0.00  0.00     0.163 HD
BRANCH   4   7
ATOM      7  C9  non d ame     -32.298   7.148  24.146  0.00  0.00     0.092 C 
ATOM      8  H11 non d ame     -32.853   6.856  23.255  0.00  0.00     0.088 H 
BRANCH   7   9
ATOM      9  N3  non d ame     -30.993   7.643  23.701  0.00  0.00    -0.346 N 
ATOM     10  C7  non d ame     -30.802   8.037  22.327  0.00  0.00     0.240 C 
ATOM     11  O3  non d ame     -31.688   7.961  21.565  0.00  0.00    -0.271 OA
ATOM     12  H10 non d ame     -30.219   7.713  24.345  0.00  0.00     0.163 HD
BRANCH  10  13
ATOM     13  C6  non d ame     -29.409   8.561  21.857  0.00  0.00     0.086 C 
ATOM     14  H6  non d ame     -29.106   8.149  20.895  0.00  0.00     0.086 H 
BRANCH  13  15
ATOM     15  N2  non d ame     -29.481  10.003  21.688  0.00  0.00    -0.343 N 
ATOM     16  C5  non d ame     -29.924  10.840  22.805  0.00  0.00     0.273 C 
ATOM     17  O2  non d ame     -30.223  10.343  23.835  0.00  0.00    -0.266 OA
ATOM     18  H5  non d ame     -29.227  10.418  20.803  0.00  0.00     0.163 HD
BRANCH  16  19
ATOM     19  C4  non d ame     -30.003  12.365  22.640  0.00  0.00     0.154 A 
ATOM     20  C1  non d ame     -30.743  13.286  23.448  0.00  0.00    -0.017 A 
ATOM     21  C2  non d ame     -30.484  14.555  22.884  0.00  0.00     0.077 A 
ATOM     22  H1  non d ame     -31.372  13.067  24.311  0.00  0.00     0.091 H 
ATOM     23  O1  non d ame     -29.686  14.373  21.873  0.00  0.00    -0.218 OA
ATOM     24  N1  non d ame     -29.392  13.104  21.710  0.00  0.00    -0.123 NA
BRANCH  21  25
ATOM     25  C3  non d ame     -31.036  15.888  23.372  0.00  0.00    -0.029 C 
ATOM     26  H2  non d ame     -30.292  16.383  23.996  0.00  0.00     0.036 H 
ATOM     27  H3  non d ame     -31.269  16.520  22.515  0.00  0.00     0.036 H 
ATOM     28  H4  non d ame     -31.940  15.716  23.953  0.00  0.00     0.036 H 
ENDBRANCH  21  25
ENDBRANCH  16  19
ENDBRANCH  13  15
BRANCH  13  29
ATOM     29  C8  non d ame     -28.365   8.214  22.889  0.00  0.00    -0.049 C 
ATOM     30  H7  non d ame     -27.417   8.676  22.616  0.00  0.00     0.030 H 
ATOM     31  H8  non d ame     -28.681   8.584  23.864  0.00  0.00     0.030 H 
ATOM     32  H9  non d ame     -28.243   7.132  22.933  0.00  0.00     0.030 H 
ENDBRANCH  13  29
ENDBRANCH  10  13
ENDBRANCH   7   9
BRANCH   7  33
ATOM     33  C11 non d ame     -32.091   5.954  25.123  0.00  0.00    -0.033 C 
ATOM     34  H12 non d ame     -31.098   5.544  24.935  0.00  0.00     0.042 H 
BRANCH  33  35
ATOM     35  C12 non d ame     -32.132   6.422  26.611  0.00  0.00    -0.071 C 
ATOM     36  H13 non d ame     -32.659   7.374  26.679  0.00  0.00     0.028 H 
ATOM     37  H14 non d ame     -32.651   5.676  27.212  0.00  0.00     0.028 H 
ATOM     38  H15 non d ame     -31.114   6.544  26.982  0.00  0.00     0.028 H 
ENDBRANCH  33  35
BRANCH  33  39
ATOM     39  C13 non d ame     -33.138   4.825  24.856  0.00  0.00    -0.071 C 
ATOM     40  H16 non d ame     -34.145   5.236  24.933  0.00  0.00     0.028 H 
ATOM     41  H17 non d ame     -32.987   4.418  23.855  0.00  0.00     0.028 H 
ATOM     42  H18 non d ame     -33.012   4.031  25.591  0.00  0.00     0.028 H 
ENDBRANCH  33  39
ENDBRANCH   7  33
ENDBRANCH   4   7
ENDBRANCH   1   3
BRANCH   1  43
ATOM     43  C15 non d ame     -31.951  11.448  26.707  0.00  0.00     0.240 C 
ATOM     44  O5  non d ame     -30.796  11.280  26.484  0.00  0.00    -0.271 OA
ATOM     45  N6  non d ame     -32.412  12.735  27.300  0.00  0.00    -0.355 N 
ATOM     46  H46 non d ame     -33.392  12.891  27.490  0.00  0.00     0.162 HD
BRANCH  45  47
ATOM     47  C20 non d ame     -31.427  13.793  27.615  0.00  0.00     0.013 C 
ATOM     48  H30 non d ame     -30.523  13.590  27.040  0.00  0.00     0.072 H 
BRANCH  47  49
ATOM     49  C21 non d ame     -31.115  13.762  29.094  0.00  0.00    -0.038 C 
ATOM     50  H31 non d ame     -30.214  13.156  29.193  0.00  0.00     0.036 H 
ATOM     51  H32 non d ame     -31.110  14.803  29.415  0.00  0.00     0.036 H 
BRANCH  49  52
ATOM     52  C22 non d ame     -32.209  13.055  29.923  0.00  0.00     0.018 C 
ATOM     53  H33 non d ame     -32.506  13.768  30.690  0.00  0.00     0.048 H 
ATOM     54  H34 non d ame     -32.943  12.697  29.198  0.00  0.00     0.048 H 
BRANCH  52  55
ATOM     55  C23 non d ame     -31.706  11.795  30.679  0.00  0.00     0.259 C 
ATOM     56  O7  non d ame     -30.562  11.692  30.986  0.00  0.00    -0.265 OA
BRANCH  55  57
ATOM     57  O8  non d ame     -32.626  10.755  30.991  0.00  0.00    -0.317 OA
BRANCH  57  58
ATOM     58  C29 non d ame     -33.900  11.222  31.445  0.00  0.00     0.052 C 
ATOM     59  H47 non d ame     -33.752  11.519  32.483  0.00  0.00     0.082 H 
ATOM     60  H48 non d ame     -34.224  11.957  30.708  0.00  0.00     0.082 H 
BRANCH  58  61
ATOM     61  C35 non d ame     -34.888  10.026  31.413  0.00  0.00    -0.034 A 
ATOM     62  C30 non d ame     -36.251  10.243  31.590  0.00  0.00    -0.075 A 
ATOM     63  C31 non d ame     -37.139   9.168  31.562  0.00  0.00    -0.082 A 
ATOM     64  H49 non d ame     -36.623  11.254  31.753  0.00  0.00     0.084 H 
ATOM     65  C32 non d ame     -36.658   7.872  31.357  0.00  0.00    -0.083 A 
ATOM     66  H50 non d ame     -38.206   9.342  31.700  0.00  0.00     0.083 H 
ATOM     67  C33 non d ame     -35.298   7.660  31.183  0.00  0.00    -0.082 A 
ATOM     68  H51 non d ame     -37.346   7.027  31.332  0.00  0.00     0.083 H 
ATOM     69  C34 non d ame     -34.407   8.731  31.209  0.00  0.00    -0.075 A 
ATOM     70  H52 non d ame     -34.926   6.647  31.025  0.00  0.00     0.083 H 
ATOM     71  H53 non d ame     -33.340   8.556  31.070  0.00  0.00     0.084 H 
ENDBRANCH  58  61
ENDBRANCH  57  58
ENDBRANCH  55  57
ENDBRANCH  52  55
ENDBRANCH  49  52
ENDBRANCH  47  49
BRANCH  47  72
ATOM     72  C24 non d ame     -31.998  15.159  27.241  0.00  0.00    -0.039 C 
ATOM     73  H35 non d ame     -31.720  15.822  28.062  0.00  0.00     0.036 H 
ATOM     74  H36 non d ame     -31.635  15.359  26.233  0.00  0.00     0.036 H 
BRANCH  72  75
ATOM     75  C25 non d ame     -33.598  15.134  27.172  0.00  0.00    -0.001 C 
ATOM     76  C26 non d ame     -34.099  15.560  25.666  0.00  0.00    -0.035 C 
ATOM     77  C27 non d ame     -35.023  16.545  25.775  0.00  0.00     0.085 C 
ATOM     78  H38 non d ame     -33.284  16.035  25.120  0.00  0.00     0.036 H 
ATOM     79  H39 non d ame     -34.655  14.740  25.211  0.00  0.00     0.036 H 
ATOM     80  N5  non d ame     -34.956  17.056  27.194  0.00  0.00    -0.049 N 
ATOM     81  H40 non d ame     -34.690  17.333  25.098  0.00  0.00     0.075 H 
ATOM     82  H41 non d ame     -35.986  16.061  25.617  0.00  0.00     0.075 H 
ATOM     83  C28 non d ame     -34.116  15.956  28.024  0.00  0.00     0.193 C 
ATOM     84  H42 non d ame     -34.424  17.914  27.165  0.00  0.00     0.280 HD
ATOM     85  H43 non d ame     -35.906  17.063  27.540  0.00  0.00     0.280 HD
ATOM     86  H44 non d ame     -34.622  15.259  28.690  0.00  0.00     0.129 H 
ATOM     87  H37 non d ame     -34.015  14.220  27.594  0.00  0.00     0.046 H 
BRANCH  83  88
ATOM     88  O6  non d ame     -33.122  16.597  28.826  0.00  0.00    -0.369 OA
ATOM     89  H45 non d ame     -32.419  15.975  29.024  0.00  0.00     0.212 HD
ENDBRANCH  83  88
ENDBRANCH  72  75
ENDBRANCH  47  72
ENDBRANCH  45  47
ENDBRANCH   1  43
BRANCH   1  90
ATOM     90  C16 non d ame     -33.582   9.785  27.653  0.00  0.00    -0.035 C 
ATOM     91  H21 non d ame     -33.481   8.702  27.586  0.00  0.00     0.037 H 
ATOM     92  H22 non d ame     -33.089  10.329  28.458  0.00  0.00     0.037 H 
BRANCH  90  93
ATOM     93  C17 non d ame     -35.110  10.076  27.795  0.00  0.00    -0.059 C 
ATOM     94  H23 non d ame     -35.271  10.533  28.771  0.00  0.00     0.038 H 
BRANCH  93  95
ATOM     95  C18 non d ame     -35.624  11.075  26.710  0.00  0.00    -0.073 C 
ATOM     96  H24 non d ame     -35.080  10.912  25.779  0.00  0.00     0.028 H 
ATOM     97  H25 non d ame     -36.688  10.912  26.540  0.00  0.00     0.028 H 
ATOM     98  H26 non d ame     -35.463  12.097  27.051  0.00  0.00     0.028 H 
ENDBRANCH  93  95
BRANCH  93  99
ATOM     99  C19 non d ame     -35.919   8.776  27.764  0.00  0.00    -0.073 C 
ATOM    100  H27 non d ame     -35.384   8.001  28.314  0.00  0.00     0.028 H 
ATOM    101  H28 non d ame     -36.892   8.942  28.227  0.00  0.00     0.028 H 
ATOM    102  H29 non d ame     -36.058   8.459  26.731  0.00  0.00     0.028 H 
ENDBRANCH  93  99
ENDBRANCH  90  93
ENDBRANCH   1  90
TORSDOF 26
ENDMDL
MODEL 4
REMARK VINA RESULT:      -6.9      2.450      6.263
REMARK  26 active torsions:
REMARK  status: ('A' for Active; 'I' for Inactive)
REMARK    1  A    between atoms: C2_2  and  C3_3 
REMARK    2  A    between atoms: C4_6  and  C5_7 
REMARK       I    between atoms: C5_7  and  N2_9 
REMARK    3  A    between atoms: N2_9  and  C6_10 
REMARK    4  A    between atoms: C6_10  and  C7_11 
REMARK    5  A    between atoms: C6_10  and  C8_13 
REMARK       I    between atoms: C7_11  and  N3_14 
REMARK    6  A    between atoms: N3_14  and  C9_15 
REMARK    7  A    between atoms: C9_15  and  C10_16 
REMARK    8  A    between atoms: C9_15  and  C11_18 
REMARK       I    between atoms: C10_16  and  N4_21 
REMARK    9  A    between atoms: C11_18  and  C12_19 
REMARK   10  A    between atoms: C11_18  and  C13_20 
REMARK   11  A    between atoms: N4_21  and  C14_22 
REMARK   12  A    between atoms: C14_22  and  C15_23 
REMARK   13  A    between atoms: C14_22  and  C16_25 
REMARK       I    between atoms: C15_23  and  N6_40 
REMARK   14  A    between atoms: C16_25  and  C17_26 
REMARK   15  A    between atoms: C17_26  and  C18_27 
REMARK   16  A    between atoms: C17_26  and  C19_28 
REMARK   17  A    between atoms: C20_29  and  C21_30 
REMARK   18  A    between atoms: C20_29  and  C24_33 
REMARK   19  A    between atoms: C20_29  and  N6_40 
REMARK   20  A    between atoms: C21_30  and  C22_31 
REMARK   21  A    between atoms: C22_31  and  C23_32 
REMARK   22  A    between atoms: C23_32  and  O8_43 
REMARK   23  A    between atoms: C24_33  and  C25_34 
REMARK   24  A    between atoms: C28_38  and  O6_39 
REMARK   25  A    between atoms: C29_42  and  O8_43 
REMARK   26  A    between atoms: C29_42  and  C35_49 
ROOT
ATOM      1  C14 non d ame     -31.193  14.178  24.639  0.00  0.00     0.089 C 
ATOM      2  H20 non d ame     -30.234  14.150  25.156  0.00  0.00     0.087 H 
ENDROOT
BRANCH   1   3
ATOM      3  N4  non d ame     -31.510  12.817  24.232  0.00  0.00    -0.346 N 
ATOM      4  C10 non d ame     -31.293  11.667  25.183  0.00  0.00     0.241 C 
ATOM      5  O4  non d ame     -30.858  11.861  26.270  0.00  0.00    -0.271 OA
ATOM      6  H19 non d ame     -31.878  12.673  23.302  0.00  0.00     0.163 HD
BRANCH   4   7
ATOM      7  C9  non d ame     -31.633  10.266  24.747  0.00  0.00     0.092 C 
ATOM      8  H11 non d ame     -30.946   9.565  25.223  0.00  0.00     0.088 H 
BRANCH   7   9
ATOM      9  N3  non d ame     -32.984   9.926  25.201  0.00  0.00    -0.346 N 
ATOM     10  C7  non d ame     -33.210   8.712  25.946  0.00  0.00     0.240 C 
ATOM     11  O3  non d ame     -32.315   7.997  26.188  0.00  0.00    -0.271 OA
ATOM     12  H10 non d ame     -33.765  10.532  24.999  0.00  0.00     0.163 HD
BRANCH  10  13
ATOM     13  C6  non d ame     -34.651   8.354  26.425  0.00  0.00     0.086 C 
ATOM     14  H6  non d ame     -34.818   7.279  26.491  0.00  0.00     0.086 H 
BRANCH  13  15
ATOM     15  N2  non d ame     -34.850   8.889  27.762  0.00  0.00    -0.343 N 
ATOM     16  C5  non d ame     -34.627   8.026  28.924  0.00  0.00     0.273 C 
ATOM     17  O2  non d ame     -34.290   6.903  28.773  0.00  0.00    -0.266 OA
ATOM     18  H5  non d ame     -35.142   9.848  27.882  0.00  0.00     0.163 HD
BRANCH  16  19
ATOM     19  C4  non d ame     -34.832   8.578  30.343  0.00  0.00     0.154 A 
ATOM     20  C1  non d ame     -35.068   9.940  30.716  0.00  0.00    -0.017 A 
ATOM     21  C2  non d ame     -35.186   9.917  32.123  0.00  0.00     0.077 A 
ATOM     22  H1  non d ame     -35.140  10.811  30.065  0.00  0.00     0.091 H 
ATOM     23  O1  non d ame     -35.037   8.681  32.504  0.00  0.00    -0.218 OA
ATOM     24  N1  non d ame     -34.829   7.882  31.483  0.00  0.00    -0.123 NA
BRANCH  21  25
ATOM     25  C3  non d ame     -35.442  11.116  33.026  0.00  0.00    -0.029 C 
ATOM     26  H2  non d ame     -34.658  11.177  33.781  0.00  0.00     0.036 H 
ATOM     27  H3  non d ame     -35.441  12.027  32.429  0.00  0.00     0.036 H 
ATOM     28  H4  non d ame     -36.408  11.002  33.516  0.00  0.00     0.036 H 
ENDBRANCH  21  25
ENDBRANCH  16  19
ENDBRANCH  13  15
BRANCH  13  29
ATOM     29  C8  non d ame     -35.661   8.948  25.475  0.00  0.00    -0.049 C 
ATOM     30  H7  non d ame     -35.197   9.106  24.503  0.00  0.00     0.030 H 
ATOM     31  H8  non d ame     -36.504   8.265  25.369  0.00  0.00     0.030 H 
ATOM     32  H9  non d ame     -36.013   9.901  25.869  0.00  0.00     0.030 H 
ENDBRANCH  13  29
ENDBRANCH  10  13
ENDBRANCH   7   9
BRANCH   7  33
ATOM     33  C11 non d ame     -31.572  10.178  23.194  0.00  0.00    -0.033 C 
ATOM     34  H12 non d ame     -31.964  11.115  22.797  0.00  0.00     0.042 H 
BRANCH  33  35
ATOM     35  C12 non d ame     -30.103  10.031  22.688  0.00  0.00    -0.071 C 
ATOM     36  H13 non d ame     -29.752   9.018  22.883  0.00  0.00     0.028 H 
ATOM     37  H14 non d ame     -30.067  10.229  21.618  0.00  0.00     0.028 H 
ATOM     38  H15 non d ame     -29.466  10.743  23.212  0.00  0.00     0.028 H 
ENDBRANCH  33  35
BRANCH  33  39
ATOM     39  C13 non d ame     -32.473   9.016  22.664  0.00  0.00    -0.071 C 
ATOM     40  H16 non d ame     -33.517   9.330  22.676  0.00  0.00     0.028 H 
ATOM     41  H17 non d ame     -32.180   8.765  21.644  0.00  0.00     0.028 H 
ATOM     42  H18 non d ame     -32.349   8.141  23.301  0.00  0.00     0.028 H 
ENDBRANCH  33  39
ENDBRANCH   7  33
ENDBRANCH   4   7
ENDBRANCH   1   3
BRANCH   1  43
ATOM     43  C15 non d ame     -32.338  14.702  25.551  0.00  0.00     0.240 C 
ATOM     44  O5  non d ame     -33.469  14.452  25.283  0.00  0.00    -0.271 OA
ATOM     45  N6  non d ame     -32.025  15.508  26.765  0.00  0.00    -0.355 N 
ATOM     46  H46 non d ame     -31.068  15.722  27.005  0.00  0.00     0.162 HD
BRANCH  45  47
ATOM     47  C20 non d ame     -33.125  15.998  27.624  0.00  0.00     0.013 C 
ATOM     48  H30 non d ame     -34.068  15.737  27.143  0.00  0.00     0.072 H 
BRANCH  47  49
ATOM     49  C21 non d ame     -33.016  17.499  27.768  0.00  0.00    -0.038 C 
ATOM     50  H31 non d ame     -34.041  17.860  27.871  0.00  0.00     0.036 H 
ATOM     51  H32 non d ame     -32.296  17.667  28.567  0.00  0.00     0.036 H 
BRANCH  49  52
ATOM     52  C22 non d ame     -32.439  18.182  26.509  0.00  0.00     0.018 C 
ATOM     53  H33 non d ame     -31.849  19.021  26.873  0.00  0.00     0.048 H 
ATOM     54  H34 non d ame     -31.960  17.386  25.936  0.00  0.00     0.048 H 
BRANCH  52  55
ATOM     55  C23 non d ame     -33.520  18.790  25.574  0.00  0.00     0.259 C 
ATOM     56  O7  non d ame     -33.324  19.819  25.013  0.00  0.00    -0.265 OA
BRANCH  55  57
ATOM     57  O8  non d ame     -34.759  18.111  25.406  0.00  0.00    -0.317 OA
BRANCH  57  58
ATOM     58  C29 non d ame     -35.903  18.970  25.437  0.00  0.00     0.052 C 
ATOM     59  H47 non d ame     -35.567  19.922  25.028  0.00  0.00     0.082 H 
ATOM     60  H48 non d ame     -36.702  18.416  24.946  0.00  0.00     0.082 H 
BRANCH  58  61
ATOM     61  C35 non d ame     -36.298  19.188  26.923  0.00  0.00    -0.034 A 
ATOM     62  C30 non d ame     -36.623  18.097  27.724  0.00  0.00    -0.075 A 
ATOM     63  C31 non d ame     -36.978  18.293  29.058  0.00  0.00    -0.082 A 
ATOM     64  H49 non d ame     -36.600  17.091  27.307  0.00  0.00     0.084 H 
ATOM     65  C32 non d ame     -37.011  19.585  29.590  0.00  0.00    -0.083 A 
ATOM     66  H50 non d ame     -37.231  17.436  29.684  0.00  0.00     0.083 H 
ATOM     67  C33 non d ame     -36.689  20.670  28.785  0.00  0.00    -0.082 A 
ATOM     68  H51 non d ame     -37.287  19.746  30.632  0.00  0.00     0.083 H 
ATOM     69  C34 non d ame     -36.331  20.479  27.452  0.00  0.00    -0.075 A 
ATOM     70  H52 non d ame     -36.717  21.677  29.202  0.00  0.00     0.083 H 
ATOM     71  H53 non d ame     -36.079  21.336  26.828  0.00  0.00     0.084 H 
ENDBRANCH  58  61
ENDBRANCH  57  58
ENDBRANCH  55  57
ENDBRANCH  52  55
ENDBRANCH  49  52
ENDBRANCH  47  49
BRANCH  47  72
ATOM     72  C24 non d ame     -33.035  15.346  29.002  0.00  0.00    -0.039 C 
ATOM     73  H35 non d ame     -32.824  16.161  29.695  0.00  0.00     0.036 H 
ATOM     74  H36 non d ame     -33.950  14.764  29.108  0.00  0.00     0.036 H 
BRANCH  72  75
ATOM     75  C25 non d ame     -31.808  14.319  29.093  0.00  0.00    -0.001 C 
ATOM     76  C26 non d ame     -32.346  12.849  29.594  0.00  0.00    -0.035 C 
ATOM     77  C27 non d ame     -31.587  12.439  30.638  0.00  0.00     0.085 C 
ATOM     78  H38 non d ame     -33.343  12.942  30.024  0.00  0.00     0.036 H 
ATOM     79  H39 non d ame     -32.151  12.098  28.828  0.00  0.00     0.036 H 
ATOM     80  N5  non d ame     -30.796  13.636  31.105  0.00  0.00    -0.049 N 
ATOM     81  H40 non d ame     -32.295  12.155  31.419  0.00  0.00     0.075 H 
ATOM     82  H41 non d ame     -30.902  11.698  30.228  0.00  0.00     0.075 H 
ATOM     83  C28 non d ame     -30.912  14.733  29.926  0.00  0.00     0.193 C 
ATOM     84  H42 non d ame     -31.269  13.992  31.923  0.00  0.00     0.280 HD
ATOM     85  H43 non d ame     -29.834  13.335  31.170  0.00  0.00     0.280 HD
ATOM     86  H44 non d ame     -30.078  14.909  29.248  0.00  0.00     0.129 H 
ATOM     87  H37 non d ame     -31.184  14.341  28.200  0.00  0.00     0.046 H 
BRANCH  83  88
ATOM     88  O6  non d ame     -31.235  16.013  30.473  0.00  0.00    -0.369 OA
ATOM     89  H45 non d ame     -30.815  16.110  31.331  0.00  0.00     0.212 HD
ENDBRANCH  83  88
ENDBRANCH  72  75
ENDBRANCH  47  72
ENDBRANCH  45  47
ENDBRANCH   1  43
BRANCH   1  90
ATOM     90  C16 non d ame     -31.085  15.053  23.400  0.00  0.00    -0.035 C 
ATOM     91  H21 non d ame     -32.074  15.032  22.944  0.00  0.00     0.037 H 
ATOM     92  H22 non d ame     -30.666  15.996  23.749  0.00  0.00     0.037 H 
BRANCH  90  93
ATOM     93  C17 non d ame     -30.094  14.500  22.327  0.00  0.00    -0.059 C 
ATOM     94  H23 non d ame     -30.189  13.415  22.316  0.00  0.00     0.038 H 
BRANCH  93  95
ATOM     95  C18 non d ame     -30.427  15.023  20.893  0.00  0.00    -0.073 C 
ATOM     96  H24 non d ame     -29.572  14.858  20.237  0.00  0.00     0.028 H 
ATOM     97  H25 non d ame     -31.292  14.485  20.502  0.00  0.00     0.028 H 
ATOM     98  H26 non d ame     -30.652  16.088  20.937  0.00  0.00     0.028 H 
ENDBRANCH  93  95
BRANCH  93  99
ATOM     99  C19 non d ame     -28.646  14.826  22.701  0.00  0.00    -0.073 C 
ATOM    100  H27 non d ame     -28.543  15.900  22.860  0.00  0.00     0.028 H 
ATOM    101  H28 non d ame     -28.379  14.297  23.616  0.00  0.00     0.028 H 
ATOM    102  H29 non d ame     -27.983  14.512  21.895  0.00  0.00     0.028 H 
ENDBRANCH  93  99
ENDBRANCH  90  93
ENDBRANCH   1  90
TORSDOF 26
ENDMDL
MODEL 5
REMARK VINA RESULT:      -6.9      2.386      6.240
REMARK  26 active torsions:
REMARK  status: ('A' for Active; 'I' for Inactive)
REMARK    1  A    between atoms: C2_2  and  C3_3 
REMARK    2  A    between atoms: C4_6  and  C5_7 
REMARK       I    between atoms: C5_7  and  N2_9 
REMARK    3  A    between atoms: N2_9  and  C6_10 
REMARK    4  A    between atoms: C6_10  and  C7_11 
REMARK    5  A    between atoms: C6_10  and  C8_13 
REMARK       I    between atoms: C7_11  and  N3_14 
REMARK    6  A    between atoms: N3_14  and  C9_15 
REMARK    7  A    between atoms: C9_15  and  C10_16 
REMARK    8  A    between atoms: C9_15  and  C11_18 
REMARK       I    between atoms: C10_16  and  N4_21 
REMARK    9  A    between atoms: C11_18  and  C12_19 
REMARK   10  A    between atoms: C11_18  and  C13_20 
REMARK   11  A    between atoms: N4_21  and  C14_22 
REMARK   12  A    between atoms: C14_22  and  C15_23 
REMARK   13  A    between atoms: C14_22  and  C16_25 
REMARK       I    between atoms: C15_23  and  N6_40 
REMARK   14  A    between atoms: C16_25  and  C17_26 
REMARK   15  A    between atoms: C17_26  and  C18_27 
REMARK   16  A    between atoms: C17_26  and  C19_28 
REMARK   17  A    between atoms: C20_29  and  C21_30 
REMARK   18  A    between atoms: C20_29  and  C24_33 
REMARK   19  A    between atoms: C20_29  and  N6_40 
REMARK   20  A    between atoms: C21_30  and  C22_31 
REMARK   21  A    between atoms: C22_31  and  C23_32 
REMARK   22  A    between atoms: C23_32  and  O8_43 
REMARK   23  A    between atoms: C24_33  and  C25_34 
REMARK   24  A    between atoms: C28_38  and  O6_39 
REMARK   25  A    between atoms: C29_42  and  O8_43 
REMARK   26  A    between atoms: C29_42  and  C35_49 
ROOT
ATOM      1  C14 non d ame     -31.293  14.978  24.072  0.00  0.00     0.089 C 
ATOM      2  H20 non d ame     -30.279  15.060  24.465  0.00  0.00     0.087 H 
ENDROOT
BRANCH   1   3
ATOM      3  N4  non d ame     -31.593  13.561  23.927  0.00  0.00    -0.346 N 
ATOM      4  C10 non d ame     -31.274  12.597  25.043  0.00  0.00     0.241 C 
ATOM      5  O4  non d ame     -30.772  12.984  26.045  0.00  0.00    -0.271 OA
ATOM      6  H19 non d ame     -32.018  13.251  23.065  0.00  0.00     0.163 HD
BRANCH   4   7
ATOM      7  C9  non d ame     -31.597  11.135  24.878  0.00  0.00     0.092 C 
ATOM      8  H11 non d ame     -30.983  10.552  25.565  0.00  0.00     0.088 H 
BRANCH   7   9
ATOM      9  N3  non d ame     -32.997  10.900  25.241  0.00  0.00    -0.346 N 
ATOM     10  C7  non d ame     -33.327  10.405  26.555  0.00  0.00     0.240 C 
ATOM     11  O3  non d ame     -32.478  10.190  27.332  0.00  0.00    -0.271 OA
ATOM     12  H10 non d ame     -33.740  11.078  24.581  0.00  0.00     0.163 HD
BRANCH  10  13
ATOM     13  C6  non d ame     -34.820  10.153  26.935  0.00  0.00     0.086 C 
ATOM     14  H6  non d ame     -35.316   9.459  26.257  0.00  0.00     0.086 H 
BRANCH  13  15
ATOM     15  N2  non d ame     -34.874   9.552  28.257  0.00  0.00    -0.343 N 
ATOM     16  C5  non d ame     -34.858   8.093  28.388  0.00  0.00     0.273 C 
ATOM     17  O2  non d ame     -34.804   7.413  27.423  0.00  0.00    -0.266 OA
ATOM     18  H5  non d ame     -34.923  10.142  29.076  0.00  0.00     0.163 HD
BRANCH  16  19
ATOM     19  C4  non d ame     -34.913   7.445  29.779  0.00  0.00     0.154 A 
ATOM     20  C1  non d ame     -34.752   6.058  30.095  0.00  0.00    -0.017 A 
ATOM     21  C2  non d ame     -34.889   5.986  31.499  0.00  0.00     0.077 A 
ATOM     22  H1  non d ame     -34.566   5.231  29.410  0.00  0.00     0.091 H 
ATOM     23  O1  non d ame     -35.101   7.196  31.930  0.00  0.00    -0.218 OA
ATOM     24  N1  non d ame     -35.120   8.063  30.945  0.00  0.00    -0.123 NA
BRANCH  21  25
ATOM     25  C3  non d ame     -34.803   4.726  32.350  0.00  0.00    -0.029 C 
ATOM     26  H2  non d ame     -35.588   4.031  32.050  0.00  0.00     0.036 H 
ATOM     27  H3  non d ame     -33.830   4.257  32.207  0.00  0.00     0.036 H 
ATOM     28  H4  non d ame     -34.931   4.987  33.400  0.00  0.00     0.036 H 
ENDBRANCH  21  25
ENDBRANCH  16  19
ENDBRANCH  13  15
BRANCH  13  29
ATOM     29  C8  non d ame     -35.570  11.461  26.931  0.00  0.00    -0.049 C 
ATOM     30  H7  non d ame     -35.314  12.030  27.824  0.00  0.00     0.030 H 
ATOM     31  H8  non d ame     -35.295  12.034  26.045  0.00  0.00     0.030 H 
ATOM     32  H9  non d ame     -36.642  11.265  26.919  0.00  0.00     0.030 H 
ENDBRANCH  13  29
ENDBRANCH  10  13
ENDBRANCH   7   9
BRANCH   7  33
ATOM     33  C11 non d ame     -31.371  10.719  23.395  0.00  0.00    -0.033 C 
ATOM     34  H12 non d ame     -31.702  11.546  22.767  0.00  0.00     0.042 H 
BRANCH  33  35
ATOM     35  C12 non d ame     -29.858  10.479  23.095  0.00  0.00    -0.071 C 
ATOM     36  H13 non d ame     -29.729  10.252  22.037  0.00  0.00     0.028 H 
ATOM     37  H14 non d ame     -29.292  11.376  23.346  0.00  0.00     0.028 H 
ATOM     38  H15 non d ame     -29.497   9.642  23.693  0.00  0.00     0.028 H 
ENDBRANCH  33  35
BRANCH  33  39
ATOM     39  C13 non d ame     -32.226   9.463  23.030  0.00  0.00    -0.071 C 
ATOM     40  H16 non d ame     -31.565   8.633  22.780  0.00  0.00     0.028 H 
ATOM     41  H17 non d ame     -32.850   9.188  23.881  0.00  0.00     0.028 H 
ATOM     42  H18 non d ame     -32.861   9.692  22.175  0.00  0.00     0.028 H 
ENDBRANCH  33  39
ENDBRANCH   7  33
ENDBRANCH   4   7
ENDBRANCH   1   3
BRANCH   1  43
ATOM     43  C15 non d ame     -32.346  15.613  25.024  0.00  0.00     0.240 C 
ATOM     44  O5  non d ame     -33.445  15.830  24.628  0.00  0.00    -0.271 OA
ATOM     45  N6  non d ame     -31.987  15.941  26.433  0.00  0.00    -0.355 N 
ATOM     46  H46 non d ame     -31.057  15.755  26.782  0.00  0.00     0.162 HD
BRANCH  45  47
ATOM     47  C20 non d ame     -33.000  16.543  27.327  0.00  0.00     0.013 C 
ATOM     48  H30 non d ame     -33.972  16.452  26.842  0.00  0.00     0.072 H 
BRANCH  47  49
ATOM     49  C21 non d ame     -32.668  18.001  27.549  0.00  0.00    -0.038 C 
ATOM     50  H31 non d ame     -32.382  18.082  28.599  0.00  0.00     0.036 H 
ATOM     51  H32 non d ame     -31.954  18.262  26.768  0.00  0.00     0.036 H 
BRANCH  49  52
ATOM     52  C22 non d ame     -33.886  18.930  27.356  0.00  0.00     0.018 C 
ATOM     53  H33 non d ame     -34.739  18.385  27.759  0.00  0.00     0.048 H 
ATOM     54  H34 non d ame     -33.597  19.888  27.791  0.00  0.00     0.048 H 
BRANCH  52  55
ATOM     55  C23 non d ame     -34.225  19.219  25.868  0.00  0.00     0.259 C 
ATOM     56  O7  non d ame     -33.359  19.316  25.060  0.00  0.00    -0.265 OA
BRANCH  55  57
ATOM     57  O8  non d ame     -35.584  19.381  25.482  0.00  0.00    -0.317 OA
BRANCH  57  58
ATOM     58  C29 non d ame     -36.520  18.768  26.374  0.00  0.00     0.052 C 
ATOM     59  H47 non d ame     -36.057  18.809  27.360  0.00  0.00     0.082 H 
ATOM     60  H48 non d ame     -37.470  19.271  26.196  0.00  0.00     0.082 H 
BRANCH  58  61
ATOM     61  C35 non d ame     -36.668  17.278  25.963  0.00  0.00    -0.034 A 
ATOM     62  C30 non d ame     -36.534  16.276  26.919  0.00  0.00    -0.075 A 
ATOM     63  C31 non d ame     -36.667  14.938  26.550  0.00  0.00    -0.082 A 
ATOM     64  H49 non d ame     -36.324  16.538  27.956  0.00  0.00     0.084 H 
ATOM     65  C32 non d ame     -36.933  14.604  25.219  0.00  0.00    -0.083 A 
ATOM     66  H50 non d ame     -36.563  14.154  27.301  0.00  0.00     0.083 H 
ATOM     67  C33 non d ame     -37.063  15.607  24.269  0.00  0.00    -0.082 A 
ATOM     68  H51 non d ame     -37.039  13.560  24.923  0.00  0.00     0.083 H 
ATOM     69  C34 non d ame     -36.932  16.946  24.634  0.00  0.00    -0.075 A 
ATOM     70  H52 non d ame     -37.268  15.344  23.231  0.00  0.00     0.083 H 
ATOM     71  H53 non d ame     -37.037  17.729  23.881  0.00  0.00     0.084 H 
ENDBRANCH  58  61
ENDBRANCH  57  58
ENDBRANCH  55  57
ENDBRANCH  52  55
ENDBRANCH  49  52
ENDBRANCH  47  49
BRANCH  47  72
ATOM     72  C24 non d ame     -33.006  15.811  28.668  0.00  0.00    -0.039 C 
ATOM     73  H35 non d ame     -32.854  16.585  29.421  0.00  0.00     0.036 H 
ATOM     74  H36 non d ame     -33.923  15.221  28.671  0.00  0.00     0.036 H 
BRANCH  72  75
ATOM     75  C25 non d ame     -31.783  14.785  28.789  0.00  0.00    -0.001 C 
ATOM     76  C26 non d ame     -32.352  13.262  29.036  0.00  0.00    -0.035 C 
ATOM     77  C27 non d ame     -31.723  12.730  30.111  0.00  0.00     0.085 C 
ATOM     78  H38 non d ame     -33.397  13.299  29.343  0.00  0.00     0.036 H 
ATOM     79  H39 non d ame     -32.047  12.612  28.215  0.00  0.00     0.036 H 
ATOM     80  N5  non d ame     -31.019  13.864  30.816  0.00  0.00    -0.049 N 
ATOM     81  H40 non d ame     -32.518  12.351  30.755  0.00  0.00     0.075 H 
ATOM     82  H41 non d ame     -30.978  12.047  29.705  0.00  0.00     0.075 H 
ATOM     83  C28 non d ame     -31.006  15.096  29.773  0.00  0.00     0.193 C 
ATOM     84  H42 non d ame     -31.598  14.116  31.604  0.00  0.00     0.280 HD
ATOM     85  H43 non d ame     -30.067  13.560  30.966  0.00  0.00     0.280 HD
ATOM     86  H44 non d ame     -30.097  15.356  29.233  0.00  0.00     0.129 H 
ATOM     87  H37 non d ame     -31.051  14.918  27.992  0.00  0.00     0.046 H 
BRANCH  83  88
ATOM     88  O6  non d ame     -31.420  16.299  30.426  0.00  0.00    -0.369 OA
ATOM     89  H45 non d ame     -30.770  16.988  30.269  0.00  0.00     0.212 HD
ENDBRANCH  83  88
ENDBRANCH  72  75
ENDBRANCH  47  72
ENDBRANCH  45  47
ENDBRANCH   1  43
BRANCH   1  90
ATOM     90  C16 non d ame     -31.371  15.643  22.707  0.00  0.00    -0.035 C 
ATOM     91  H21 non d ame     -32.367  15.413  22.330  0.00  0.00     0.037 H 
ATOM     92  H22 non d ame     -31.078  16.679  22.873  0.00  0.00     0.037 H 
BRANCH  90  93
ATOM     93  C17 non d ame     -30.363  15.059  21.667  0.00  0.00    -0.059 C 
ATOM     94  H23 non d ame     -30.519  13.982  21.622  0.00  0.00     0.038 H 
BRANCH  93  95
ATOM     95  C18 non d ame     -30.595  15.635  20.233  0.00  0.00    -0.073 C 
ATOM     96  H24 non d ame     -31.204  14.939  19.656  0.00  0.00     0.028 H 
ATOM     97  H25 non d ame     -31.111  16.593  20.306  0.00  0.00     0.028 H 
ATOM     98  H26 non d ame     -29.636  15.776  19.738  0.00  0.00     0.028 H 
ENDBRANCH  93  95
BRANCH  93  99
ATOM     99  C19 non d ame     -28.918  15.291  22.118  0.00  0.00    -0.073 C 
ATOM    100  H27 non d ame     -28.369  15.807  21.329  0.00  0.00     0.028 H 
ATOM    101  H28 non d ame     -28.912  15.900  23.022  0.00  0.00     0.028 H 
ATOM    102  H29 non d ame     -28.443  14.332  22.323  0.00  0.00     0.028 H 
ENDBRANCH  93  99
ENDBRANCH  90  93
ENDBRANCH   1  90
TORSDOF 26
ENDMDL
MODEL 6
REMARK VINA RESULT:      -6.8      3.417      7.325
REMARK  26 active torsions:
REMARK  status: ('A' for Active; 'I' for Inactive)
REMARK    1  A    between atoms: C2_2  and  C3_3 
REMARK    2  A    between atoms: C4_6  and  C5_7 
REMARK       I    between atoms: C5_7  and  N2_9 
REMARK    3  A    between atoms: N2_9  and  C6_10 
REMARK    4  A    between atoms: C6_10  and  C7_11 
REMARK    5  A    between atoms: C6_10  and  C8_13 
REMARK       I    between atoms: C7_11  and  N3_14 
REMARK    6  A    between atoms: N3_14  and  C9_15 
REMARK    7  A    between atoms: C9_15  and  C10_16 
REMARK    8  A    between atoms: C9_15  and  C11_18 
REMARK       I    between atoms: C10_16  and  N4_21 
REMARK    9  A    between atoms: C11_18  and  C12_19 
REMARK   10  A    between atoms: C11_18  and  C13_20 
REMARK   11  A    between atoms: N4_21  and  C14_22 
REMARK   12  A    between atoms: C14_22  and  C15_23 
REMARK   13  A    between atoms: C14_22  and  C16_25 
REMARK       I    between atoms: C15_23  and  N6_40 
REMARK   14  A    between atoms: C16_25  and  C17_26 
REMARK   15  A    between atoms: C17_26  and  C18_27 
REMARK   16  A    between atoms: C17_26  and  C19_28 
REMARK   17  A    between atoms: C20_29  and  C21_30 
REMARK   18  A    between atoms: C20_29  and  C24_33 
REMARK   19  A    between atoms: C20_29  and  N6_40 
REMARK   20  A    between atoms: C21_30  and  C22_31 
REMARK   21  A    between atoms: C22_31  and  C23_32 
REMARK   22  A    between atoms: C23_32  and  O8_43 
REMARK   23  A    between atoms: C24_33  and  C25_34 
REMARK   24  A    between atoms: C28_38  and  O6_39 
REMARK   25  A    between atoms: C29_42  and  O8_43 
REMARK   26  A    between atoms: C29_42  and  C35_49 
ROOT
ATOM      1  C14 non d ame     -32.969  10.258  25.505  0.00  0.00     0.089 C 
ATOM      2  H20 non d ame     -33.664  10.334  24.668  0.00  0.00     0.087 H 
ENDROOT
BRANCH   1   3
ATOM      3  N4  non d ame     -32.420   8.911  25.498  0.00  0.00    -0.346 N 
ATOM      4  C10 non d ame     -33.183   7.780  24.853  0.00  0.00     0.241 C 
ATOM      5  O4  non d ame     -34.239   7.979  24.350  0.00  0.00    -0.271 OA
ATOM      6  H19 non d ame     -31.521   8.762  25.933  0.00  0.00     0.163 HD
BRANCH   4   7
ATOM      7  C9  non d ame     -32.596   6.394  24.849  0.00  0.00     0.092 C 
ATOM      8  H11 non d ame     -31.527   6.456  25.056  0.00  0.00     0.088 H 
BRANCH   7   9
ATOM      9  N3  non d ame     -33.201   5.604  25.925  0.00  0.00    -0.346 N 
ATOM     10  C7  non d ame     -32.699   5.718  27.273  0.00  0.00     0.240 C 
ATOM     11  O3  non d ame     -31.808   6.441  27.508  0.00  0.00    -0.271 OA
ATOM     12  H10 non d ame     -33.968   4.975  25.737  0.00  0.00     0.163 HD
BRANCH  10  13
ATOM     13  C6  non d ame     -33.345   4.873  28.414  0.00  0.00     0.086 C 
ATOM     14  H6  non d ame     -32.712   4.806  29.299  0.00  0.00     0.086 H 
BRANCH  13  15
ATOM     15  N2  non d ame     -34.580   5.513  28.834  0.00  0.00    -0.343 N 
ATOM     16  C5  non d ame     -34.940   5.526  30.254  0.00  0.00     0.273 C 
ATOM     17  O2  non d ame     -34.230   5.017  31.049  0.00  0.00    -0.266 OA
ATOM     18  H5  non d ame     -35.183   5.943  28.146  0.00  0.00     0.163 HD
BRANCH  16  19
ATOM     19  C4  non d ame     -36.242   6.201  30.711  0.00  0.00     0.154 A 
ATOM     20  C1  non d ame     -36.522   7.604  30.752  0.00  0.00    -0.017 A 
ATOM     21  C2  non d ame     -37.843   7.698  31.243  0.00  0.00     0.077 A 
ATOM     22  H1  non d ame     -35.866   8.428  30.470  0.00  0.00     0.091 H 
ATOM     23  O1  non d ame     -38.265   6.485  31.454  0.00  0.00    -0.218 OA
ATOM     24  N1  non d ame     -37.348   5.595  31.151  0.00  0.00    -0.123 NA
BRANCH  21  25
ATOM     25  C3  non d ame     -38.628   8.981  31.480  0.00  0.00    -0.029 C 
ATOM     26  H2  non d ame     -39.105   9.293  30.550  0.00  0.00     0.036 H 
ATOM     27  H3  non d ame     -39.391   8.806  32.237  0.00  0.00     0.036 H 
ATOM     28  H4  non d ame     -37.951   9.764  31.820  0.00  0.00     0.036 H 
ENDBRANCH  21  25
ENDBRANCH  16  19
ENDBRANCH  13  15
BRANCH  13  29
ATOM     29  C8  non d ame     -33.630   3.480  27.911  0.00  0.00    -0.049 C 
ATOM     30  H7  non d ame     -32.720   2.883  27.958  0.00  0.00     0.030 H 
ATOM     31  H8  non d ame     -34.398   3.020  28.534  0.00  0.00     0.030 H 
ATOM     32  H9  non d ame     -33.980   3.530  26.880  0.00  0.00     0.030 H 
ENDBRANCH  13  29
ENDBRANCH  10  13
ENDBRANCH   7   9
BRANCH   7  33
ATOM     33  C11 non d ame     -32.888   5.711  23.481  0.00  0.00    -0.033 C 
ATOM     34  H12 non d ame     -33.768   6.194  23.054  0.00  0.00     0.042 H 
BRANCH  33  35
ATOM     35  C12 non d ame     -31.709   5.915  22.479  0.00  0.00    -0.071 C 
ATOM     36  H13 non d ame     -31.504   6.981  22.372  0.00  0.00     0.028 H 
ATOM     37  H14 non d ame     -30.820   5.411  22.858  0.00  0.00     0.028 H 
ATOM     38  H15 non d ame     -31.979   5.498  21.510  0.00  0.00     0.028 H 
ENDBRANCH  33  35
BRANCH  33  39
ATOM     39  C13 non d ame     -33.214   4.195  23.670  0.00  0.00    -0.071 C 
ATOM     40  H16 non d ame     -34.294   4.056  23.708  0.00  0.00     0.028 H 
ATOM     41  H17 non d ame     -32.804   3.627  22.834  0.00  0.00     0.028 H 
ATOM     42  H18 non d ame     -32.769   3.841  24.600  0.00  0.00     0.028 H 
ENDBRANCH  33  39
ENDBRANCH   7  33
ENDBRANCH   4   7
ENDBRANCH   1   3
BRANCH   1  43
ATOM     43  C15 non d ame     -31.796  11.272  25.389  0.00  0.00     0.240 C 
ATOM     44  O5  non d ame     -30.735  11.003  25.851  0.00  0.00    -0.271 OA
ATOM     45  N6  non d ame     -31.992  12.576  24.694  0.00  0.00    -0.355 N 
ATOM     46  H46 non d ame     -32.888  12.813  24.292  0.00  0.00     0.162 HD
BRANCH  45  47
ATOM     47  C20 non d ame     -30.866  13.529  24.590  0.00  0.00     0.013 C 
ATOM     48  H30 non d ame     -30.028  13.120  25.154  0.00  0.00     0.072 H 
BRANCH  47  49
ATOM     49  C21 non d ame     -31.282  14.860  25.174  0.00  0.00    -0.038 C 
ATOM     50  H31 non d ame     -30.395  15.253  25.674  0.00  0.00     0.036 H 
ATOM     51  H32 non d ame     -31.735  15.414  24.352  0.00  0.00     0.036 H 
BRANCH  49  52
ATOM     52  C22 non d ame     -32.370  14.724  26.261  0.00  0.00     0.018 C 
ATOM     53  H33 non d ame     -33.025  15.584  26.132  0.00  0.00     0.048 H 
ATOM     54  H34 non d ame     -32.770  13.714  26.153  0.00  0.00     0.048 H 
BRANCH  52  55
ATOM     55  C23 non d ame     -31.822  14.814  27.711  0.00  0.00     0.259 C 
ATOM     56  O7  non d ame     -30.949  14.093  28.073  0.00  0.00    -0.265 OA
BRANCH  55  57
ATOM     57  O8  non d ame     -32.385  15.761  28.612  0.00  0.00    -0.317 OA
BRANCH  57  58
ATOM     58  C29 non d ame     -33.684  16.225  28.231  0.00  0.00     0.052 C 
ATOM     59  H47 non d ame     -34.023  15.543  27.451  0.00  0.00     0.082 H 
ATOM     60  H48 non d ame     -34.248  16.317  29.158  0.00  0.00     0.082 H 
BRANCH  58  61
ATOM     61  C35 non d ame     -33.525  17.639  27.610  0.00  0.00    -0.034 A 
ATOM     62  C30 non d ame     -32.658  18.560  28.189  0.00  0.00    -0.075 A 
ATOM     63  C31 non d ame     -32.515  19.830  27.631  0.00  0.00    -0.082 A 
ATOM     64  H49 non d ame     -32.091  18.287  29.079  0.00  0.00     0.084 H 
ATOM     65  C32 non d ame     -33.246  20.178  26.492  0.00  0.00    -0.083 A 
ATOM     66  H50 non d ame     -31.833  20.549  28.087  0.00  0.00     0.083 H 
ATOM     67  C33 non d ame     -34.112  19.257  25.920  0.00  0.00    -0.082 A 
ATOM     68  H51 non d ame     -33.139  21.169  26.050  0.00  0.00     0.083 H 
ATOM     69  C34 non d ame     -34.256  17.986  26.473  0.00  0.00    -0.075 A 
ATOM     70  H52 non d ame     -34.683  19.532  25.033  0.00  0.00     0.083 H 
ATOM     71  H53 non d ame     -34.938  17.267  26.017  0.00  0.00     0.084 H 
ENDBRANCH  58  61
ENDBRANCH  57  58
ENDBRANCH  55  57
ENDBRANCH  52  55
ENDBRANCH  49  52
ENDBRANCH  47  49
BRANCH  47  72
ATOM     72  C24 non d ame     -30.479  13.714  23.124  0.00  0.00    -0.039 C 
ATOM     73  H35 non d ame     -29.579  13.113  22.984  0.00  0.00     0.036 H 
ATOM     74  H36 non d ame     -31.380  13.486  22.555  0.00  0.00     0.036 H 
BRANCH  72  75
ATOM     75  C25 non d ame     -30.087  15.233  22.801  0.00  0.00    -0.001 C 
ATOM     76  C26 non d ame     -31.266  15.934  21.894  0.00  0.00    -0.035 C 
ATOM     77  C27 non d ame     -30.697  16.508  20.807  0.00  0.00     0.085 C 
ATOM     78  H38 non d ame     -31.915  15.169  21.469  0.00  0.00     0.036 H 
ATOM     79  H39 non d ame     -31.698  16.779  22.431  0.00  0.00     0.036 H 
ATOM     80  N5  non d ame     -29.285  15.982  20.719  0.00  0.00    -0.049 N 
ATOM     81  H40 non d ame     -31.267  16.141  19.952  0.00  0.00     0.075 H 
ATOM     82  H41 non d ame     -30.666  17.575  21.024  0.00  0.00     0.075 H 
ATOM     83  C28 non d ame     -28.974  15.301  22.149  0.00  0.00     0.193 C 
ATOM     84  H42 non d ame     -29.291  15.260  20.013  0.00  0.00     0.280 HD
ATOM     85  H43 non d ame     -28.686  16.789  20.610  0.00  0.00     0.280 HD
ATOM     86  H44 non d ame     -28.347  15.809  22.880  0.00  0.00     0.129 H 
ATOM     87  H37 non d ame     -29.757  15.773  23.689  0.00  0.00     0.046 H 
BRANCH  83  88
ATOM     88  O6  non d ame     -28.379  14.015  21.963  0.00  0.00    -0.369 OA
ATOM     89  H45 non d ame     -28.320  13.822  21.025  0.00  0.00     0.212 HD
ENDBRANCH  83  88
ENDBRANCH  72  75
ENDBRANCH  47  72
ENDBRANCH  45  47
ENDBRANCH   1  43
BRANCH   1  90
ATOM     90  C16 non d ame     -33.713  10.484  26.812  0.00  0.00    -0.035 C 
ATOM     91  H21 non d ame     -33.761  11.565  26.934  0.00  0.00     0.037 H 
ATOM     92  H22 non d ame     -34.631   9.904  26.725  0.00  0.00     0.037 H 
BRANCH  90  93
ATOM     93  C17 non d ame     -32.960   9.933  28.065  0.00  0.00    -0.059 C 
ATOM     94  H23 non d ame     -32.091   9.379  27.712  0.00  0.00     0.038 H 
BRANCH  93  95
ATOM     95  C18 non d ame     -32.450  11.078  28.996  0.00  0.00    -0.073 C 
ATOM     96  H24 non d ame     -31.437  10.853  29.329  0.00  0.00     0.028 H 
ATOM     97  H25 non d ame     -32.449  12.020  28.447  0.00  0.00     0.028 H 
ATOM     98  H26 non d ame     -33.107  11.163  29.862  0.00  0.00     0.028 H 
ENDBRANCH  93  95
BRANCH  93  99
ATOM     99  C19 non d ame     -33.839   8.950  28.842  0.00  0.00    -0.073 C 
ATOM    100  H27 non d ame     -33.759   7.958  28.396  0.00  0.00     0.028 H 
ATOM    101  H28 non d ame     -33.508   8.907  29.880  0.00  0.00     0.028 H 
ATOM    102  H29 non d ame     -34.876   9.282  28.806  0.00  0.00     0.028 H 
ENDBRANCH  93  99
ENDBRANCH  90  93
ENDBRANCH   1  90
TORSDOF 26
ENDMDL
MODEL 7
REMARK VINA RESULT:      -6.8      3.333      8.419
REMARK  26 active torsions:
REMARK  status: ('A' for Active; 'I' for Inactive)
REMARK    1  A    between atoms: C2_2  and  C3_3 
REMARK    2  A    between atoms: C4_6  and  C5_7 
REMARK       I    between atoms: C5_7  and  N2_9 
REMARK    3  A    between atoms: N2_9  and  C6_10 
REMARK    4  A    between atoms: C6_10  and  C7_11 
REMARK    5  A    between atoms: C6_10  and  C8_13 
REMARK       I    between atoms: C7_11  and  N3_14 
REMARK    6  A    between atoms: N3_14  and  C9_15 
REMARK    7  A    between atoms: C9_15  and  C10_16 
REMARK    8  A    between atoms: C9_15  and  C11_18 
REMARK       I    between atoms: C10_16  and  N4_21 
REMARK    9  A    between atoms: C11_18  and  C12_19 
REMARK   10  A    between atoms: C11_18  and  C13_20 
REMARK   11  A    between atoms: N4_21  and  C14_22 
REMARK   12  A    between atoms: C14_22  and  C15_23 
REMARK   13  A    between atoms: C14_22  and  C16_25 
REMARK       I    between atoms: C15_23  and  N6_40 
REMARK   14  A    between atoms: C16_25  and  C17_26 
REMARK   15  A    between atoms: C17_26  and  C18_27 
REMARK   16  A    between atoms: C17_26  and  C19_28 
REMARK   17  A    between atoms: C20_29  and  C21_30 
REMARK   18  A    between atoms: C20_29  and  C24_33 
REMARK   19  A    between atoms: C20_29  and  N6_40 
REMARK   20  A    between atoms: C21_30  and  C22_31 
REMARK   21  A    between atoms: C22_31  and  C23_32 
REMARK   22  A    between atoms: C23_32  and  O8_43 
REMARK   23  A    between atoms: C24_33  and  C25_34 
REMARK   24  A    between atoms: C28_38  and  O6_39 
REMARK   25  A    between atoms: C29_42  and  O8_43 
REMARK   26  A    between atoms: C29_42  and  C35_49 
ROOT
ATOM      1  C14 non d ame     -34.762   7.713  28.983  0.00  0.00     0.089 C 
ATOM      2  H20 non d ame     -34.572   6.774  29.505  0.00  0.00     0.087 H 
ENDROOT
BRANCH   1   3
ATOM      3  N4  non d ame     -33.643   8.601  29.261  0.00  0.00    -0.346 N 
ATOM      4  C10 non d ame     -33.633  10.007  28.716  0.00  0.00     0.241 C 
ATOM      5  O4  non d ame     -34.535  10.401  28.054  0.00  0.00    -0.271 OA
ATOM      6  H19 non d ame     -32.884   8.246  29.825  0.00  0.00     0.163 HD
BRANCH   4   7
ATOM      7  C9  non d ame     -32.469  10.914  29.018  0.00  0.00     0.092 C 
ATOM      8  H11 non d ame     -31.571  10.514  28.547  0.00  0.00     0.088 H 
BRANCH   7   9
ATOM      9  N3  non d ame     -32.713  12.235  28.434  0.00  0.00    -0.346 N 
ATOM     10  C7  non d ame     -31.897  12.702  27.340  0.00  0.00     0.240 C 
ATOM     11  O3  non d ame     -31.038  12.027  26.920  0.00  0.00    -0.271 OA
ATOM     12  H10 non d ame     -33.449  12.829  28.787  0.00  0.00     0.163 HD
BRANCH  10  13
ATOM     13  C6  non d ame     -32.160  14.111  26.724  0.00  0.00     0.086 C 
ATOM     14  H6  non d ame     -31.659  14.911  27.270  0.00  0.00     0.086 H 
BRANCH  13  15
ATOM     15  N2  non d ame     -31.631  14.139  25.370  0.00  0.00    -0.343 N 
ATOM     16  C5  non d ame     -31.115  15.396  24.823  0.00  0.00     0.273 C 
ATOM     17  O2  non d ame     -31.132  16.379  25.479  0.00  0.00    -0.266 OA
ATOM     18  H5  non d ame     -31.624  13.295  24.815  0.00  0.00     0.163 HD
BRANCH  16  19
ATOM     19  C4  non d ame     -30.552  15.440  23.394  0.00  0.00     0.154 A 
ATOM     20  C1  non d ame     -31.290  15.592  22.178  0.00  0.00    -0.017 A 
ATOM     21  C2  non d ame     -30.315  15.569  21.155  0.00  0.00     0.077 A 
ATOM     22  H1  non d ame     -32.367  15.702  22.055  0.00  0.00     0.091 H 
ATOM     23  O1  non d ame     -29.156  15.423  21.729  0.00  0.00    -0.218 OA
ATOM     24  N1  non d ame     -29.269  15.344  23.035  0.00  0.00    -0.123 NA
BRANCH  21  25
ATOM     25  C3  non d ame     -30.574  15.694  19.660  0.00  0.00    -0.029 C 
ATOM     26  H2  non d ame     -31.604  15.410  19.444  0.00  0.00     0.036 H 
ATOM     27  H3  non d ame     -30.409  16.726  19.348  0.00  0.00     0.036 H 
ATOM     28  H4  non d ame     -29.895  15.038  19.117  0.00  0.00     0.036 H 
ENDBRANCH  21  25
ENDBRANCH  16  19
ENDBRANCH  13  15
BRANCH  13  29
ATOM     29  C8  non d ame     -33.642  14.386  26.705  0.00  0.00    -0.049 C 
ATOM     30  H7  non d ame     -33.827  15.408  27.035  0.00  0.00     0.030 H 
ATOM     31  H8  non d ame     -34.022  14.258  25.691  0.00  0.00     0.030 H 
ATOM     32  H9  non d ame     -34.150  13.691  27.374  0.00  0.00     0.030 H 
ENDBRANCH  13  29
ENDBRANCH  10  13
ENDBRANCH   7   9
BRANCH   7  33
ATOM     33  C11 non d ame     -32.308  11.053  30.560  0.00  0.00    -0.033 C 
ATOM     34  H12 non d ame     -31.985  10.085  30.945  0.00  0.00     0.042 H 
BRANCH  33  35
ATOM     35  C12 non d ame     -31.204  12.095  30.926  0.00  0.00    -0.071 C 
ATOM     36  H13 non d ame     -30.238  11.595  30.984  0.00  0.00     0.028 H 
ATOM     37  H14 non d ame     -31.168  12.869  30.160  0.00  0.00     0.028 H 
ATOM     38  H15 non d ame     -31.437  12.548  31.890  0.00  0.00     0.028 H 
ENDBRANCH  33  35
BRANCH  33  39
ATOM     39  C13 non d ame     -33.670  11.412  31.235  0.00  0.00    -0.071 C 
ATOM     40  H16 non d ame     -33.486  11.958  32.160  0.00  0.00     0.028 H 
ATOM     41  H17 non d ame     -34.260  12.031  30.559  0.00  0.00     0.028 H 
ATOM     42  H18 non d ame     -34.218  10.496  31.457  0.00  0.00     0.028 H 
ENDBRANCH  33  39
ENDBRANCH   7  33
ENDBRANCH   4   7
ENDBRANCH   1   3
BRANCH   1  43
ATOM     43  C15 non d ame     -34.871   7.518  27.445  0.00  0.00     0.240 C 
ATOM     44  O5  non d ame     -35.925   7.631  26.908  0.00  0.00    -0.271 OA
ATOM     45  N6  non d ame     -33.659   7.201  26.638  0.00  0.00    -0.355 N 
ATOM     46  H46 non d ame     -32.756   7.108  27.082  0.00  0.00     0.162 HD
BRANCH  45  47
ATOM     47  C20 non d ame     -33.778   7.020  25.174  0.00  0.00     0.013 C 
ATOM     48  H30 non d ame     -34.583   7.665  24.821  0.00  0.00     0.072 H 
BRANCH  47  49
ATOM     49  C21 non d ame     -34.105   5.575  24.874  0.00  0.00    -0.038 C 
ATOM     50  H31 non d ame     -35.150   5.444  25.159  0.00  0.00     0.036 H 
ATOM     51  H32 non d ame     -33.797   5.412  23.841  0.00  0.00     0.036 H 
BRANCH  49  52
ATOM     52  C22 non d ame     -33.291   4.585  25.734  0.00  0.00     0.018 C 
ATOM     53  H33 non d ame     -32.982   3.790  25.057  0.00  0.00     0.048 H 
ATOM     54  H34 non d ame     -32.539   5.188  26.246  0.00  0.00     0.048 H 
BRANCH  52  55
ATOM     55  C23 non d ame     -34.121   3.897  26.852  0.00  0.00     0.259 C 
ATOM     56  O7  non d ame     -35.301   3.797  26.753  0.00  0.00    -0.265 OA
BRANCH  55  57
ATOM     57  O8  non d ame     -33.457   3.398  28.007  0.00  0.00    -0.317 OA
BRANCH  57  58
ATOM     58  C29 non d ame     -32.766   4.401  28.759  0.00  0.00     0.052 C 
ATOM     59  H47 non d ame     -31.708   4.249  28.550  0.00  0.00     0.082 H 
ATOM     60  H48 non d ame     -33.245   5.345  28.500  0.00  0.00     0.082 H 
BRANCH  58  61
ATOM     61  C35 non d ame     -33.013   4.124  30.267  0.00  0.00    -0.034 A 
ATOM     62  C30 non d ame     -34.038   4.783  30.938  0.00  0.00    -0.075 A 
ATOM     63  C31 non d ame     -34.259   4.534  32.292  0.00  0.00    -0.082 A 
ATOM     64  H49 non d ame     -34.667   5.495  30.404  0.00  0.00     0.084 H 
ATOM     65  C32 non d ame     -33.448   3.624  32.975  0.00  0.00    -0.083 A 
ATOM     66  H50 non d ame     -35.064   5.052  32.815  0.00  0.00     0.083 H 
ATOM     67  C33 non d ame     -32.425   2.971  32.302  0.00  0.00    -0.082 A 
ATOM     68  H51 non d ame     -33.615   3.423  34.034  0.00  0.00     0.083 H 
ATOM     69  C34 non d ame     -32.202   3.215  30.949  0.00  0.00    -0.075 A 
ATOM     70  H52 non d ame     -31.793   2.262  32.839  0.00  0.00     0.083 H 
ATOM     71  H53 non d ame     -31.396   2.697  30.427  0.00  0.00     0.084 H 
ENDBRANCH  58  61
ENDBRANCH  57  58
ENDBRANCH  55  57
ENDBRANCH  52  55
ENDBRANCH  49  52
ENDBRANCH  47  49
BRANCH  47  72
ATOM     72  C24 non d ame     -32.461   7.397  24.498  0.00  0.00    -0.039 C 
ATOM     73  H35 non d ame     -31.712   7.373  25.290  0.00  0.00     0.036 H 
ATOM     74  H36 non d ame     -32.372   6.727  23.643  0.00  0.00     0.036 H 
BRANCH  72  75
ATOM     75  C25 non d ame     -32.496   8.892  23.924  0.00  0.00    -0.001 C 
ATOM     76  C26 non d ame     -31.574   8.992  22.567  0.00  0.00    -0.035 C 
ATOM     77  C27 non d ame     -30.714  10.029  22.698  0.00  0.00     0.085 C 
ATOM     78  H38 non d ame     -30.919   8.124  22.495  0.00  0.00     0.036 H 
ATOM     79  H39 non d ame     -32.192   9.280  21.716  0.00  0.00     0.036 H 
ATOM     80  N5  non d ame     -30.738  10.441  24.150  0.00  0.00    -0.049 N 
ATOM     81  H40 non d ame     -29.729   9.623  22.460  0.00  0.00     0.075 H 
ATOM     82  H41 non d ame     -31.132  10.834  22.094  0.00  0.00     0.075 H 
ATOM     83  C28 non d ame     -32.042   9.736  24.790  0.00  0.00     0.193 C 
ATOM     84  H42 non d ame     -29.914  10.040  24.576  0.00  0.00     0.280 HD
ATOM     85  H43 non d ame     -30.875  11.442  24.161  0.00  0.00     0.280 HD
ATOM     86  H44 non d ame     -32.941  10.316  24.993  0.00  0.00     0.129 H 
ATOM     87  H37 non d ame     -33.509   9.289  23.866  0.00  0.00     0.046 H 
BRANCH  83  88
ATOM     88  O6  non d ame     -31.705   9.109  26.029  0.00  0.00    -0.369 OA
ATOM     89  H45 non d ame     -31.999   9.660  26.758  0.00  0.00     0.212 HD
ENDBRANCH  83  88
ENDBRANCH  72  75
ENDBRANCH  47  72
ENDBRANCH  45  47
ENDBRANCH   1  43
BRANCH   1  90
ATOM     90  C16 non d ame     -36.040   8.346  29.511  0.00  0.00    -0.035 C 
ATOM     91  H21 non d ame     -35.833   9.415  29.561  0.00  0.00     0.037 H 
ATOM     92  H22 non d ame     -36.834   7.975  28.863  0.00  0.00     0.037 H 
BRANCH  90  93
ATOM     93  C17 non d ame     -36.408   7.901  30.961  0.00  0.00    -0.059 C 
ATOM     94  H23 non d ame     -35.484   7.620  31.466  0.00  0.00     0.038 H 
BRANCH  93  95
ATOM     95  C18 non d ame     -37.069   9.054  31.782  0.00  0.00    -0.073 C 
ATOM     96  H24 non d ame     -36.575   9.142  32.749  0.00  0.00     0.028 H 
ATOM     97  H25 non d ame     -36.967   9.993  31.237  0.00  0.00     0.028 H 
ATOM     98  H26 non d ame     -38.125   8.835  31.932  0.00  0.00     0.028 H 
ENDBRANCH  93  95
BRANCH  93  99
ATOM     99  C19 non d ame     -37.309   6.663  30.941  0.00  0.00    -0.073 C 
ATOM    100  H27 non d ame     -36.957   5.970  30.175  0.00  0.00     0.028 H 
ATOM    101  H28 non d ame     -37.277   6.173  31.914  0.00  0.00     0.028 H 
ATOM    102  H29 non d ame     -38.332   6.961  30.718  0.00  0.00     0.028 H 
ENDBRANCH  93  99
ENDBRANCH  90  93
ENDBRANCH   1  90
TORSDOF 26
ENDMDL
MODEL 8
REMARK VINA RESULT:      -6.8      2.107      5.551
REMARK  26 active torsions:
REMARK  status: ('A' for Active; 'I' for Inactive)
REMARK    1  A    between atoms: C2_2  and  C3_3 
REMARK    2  A    between atoms: C4_6  and  C5_7 
REMARK       I    between atoms: C5_7  and  N2_9 
REMARK    3  A    between atoms: N2_9  and  C6_10 
REMARK    4  A    between atoms: C6_10  and  C7_11 
REMARK    5  A    between atoms: C6_10  and  C8_13 
REMARK       I    between atoms: C7_11  and  N3_14 
REMARK    6  A    between atoms: N3_14  and  C9_15 
REMARK    7  A    between atoms: C9_15  and  C10_16 
REMARK    8  A    between atoms: C9_15  and  C11_18 
REMARK       I    between atoms: C10_16  and  N4_21 
REMARK    9  A    between atoms: C11_18  and  C12_19 
REMARK   10  A    between atoms: C11_18  and  C13_20 
REMARK   11  A    between atoms: N4_21  and  C14_22 
REMARK   12  A    between atoms: C14_22  and  C15_23 
REMARK   13  A    between atoms: C14_22  and  C16_25 
REMARK       I    between atoms: C15_23  and  N6_40 
REMARK   14  A    between atoms: C16_25  and  C17_26 
REMARK   15  A    between atoms: C17_26  and  C18_27 
REMARK   16  A    between atoms: C17_26  and  C19_28 
REMARK   17  A    between atoms: C20_29  and  C21_30 
REMARK   18  A    between atoms: C20_29  and  C24_33 
REMARK   19  A    between atoms: C20_29  and  N6_40 
REMARK   20  A    between atoms: C21_30  and  C22_31 
REMARK   21  A    between atoms: C22_31  and  C23_32 
REMARK   22  A    between atoms: C23_32  and  O8_43 
REMARK   23  A    between atoms: C24_33  and  C25_34 
REMARK   24  A    between atoms: C28_38  and  O6_39 
REMARK   25  A    between atoms: C29_42  and  O8_43 
REMARK   26  A    between atoms: C29_42  and  C35_49 
ROOT
ATOM      1  C14 non d ame     -30.972  14.162  24.001  0.00  0.00     0.089 C 
ATOM      2  H20 non d ame     -29.942  14.293  24.334  0.00  0.00     0.087 H 
ENDROOT
BRANCH   1   3
ATOM      3  N4  non d ame     -31.313  12.758  24.177  0.00  0.00    -0.346 N 
ATOM      4  C10 non d ame     -30.610  11.695  23.369  0.00  0.00     0.241 C 
ATOM      5  O4  non d ame     -29.776  11.995  22.581  0.00  0.00    -0.271 OA
ATOM      6  H19 non d ame     -32.027  12.524  24.852  0.00  0.00     0.163 HD
BRANCH   4   7
ATOM      7  C9  non d ame     -30.973  10.247  23.570  0.00  0.00     0.092 C 
ATOM      8  H11 non d ame     -30.519   9.888  24.494  0.00  0.00     0.088 H 
BRANCH   7   9
ATOM      9  N3  non d ame     -32.425  10.123  23.723  0.00  0.00    -0.346 N 
ATOM     10  C7  non d ame     -33.016  10.147  25.038  0.00  0.00     0.240 C 
ATOM     11  O3  non d ame     -32.337  10.265  25.985  0.00  0.00    -0.271 OA
ATOM     12  H10 non d ame     -33.023  10.019  22.916  0.00  0.00     0.163 HD
BRANCH  10  13
ATOM     13  C6  non d ame     -34.562  10.011  25.195  0.00  0.00     0.086 C 
ATOM     14  H6  non d ame     -34.857   9.683  26.192  0.00  0.00     0.086 H 
BRANCH  13  15
ATOM     15  N2  non d ame     -35.173  11.314  24.989  0.00  0.00    -0.343 N 
ATOM     16  C5  non d ame     -35.422  12.185  26.140  0.00  0.00     0.273 C 
ATOM     17  O2  non d ame     -35.130  11.827  27.228  0.00  0.00    -0.266 OA
ATOM     18  H5  non d ame     -35.423  11.610  24.056  0.00  0.00     0.163 HD
BRANCH  16  19
ATOM     19  C4  non d ame     -36.065  13.565  25.936  0.00  0.00     0.154 A 
ATOM     20  C1  non d ame     -36.583  14.106  24.717  0.00  0.00    -0.017 A 
ATOM     21  C2  non d ame     -37.058  15.392  25.062  0.00  0.00     0.077 A 
ATOM     22  H1  non d ame     -36.608  13.640  23.732  0.00  0.00     0.091 H 
ATOM     23  O1  non d ame     -36.837  15.557  26.334  0.00  0.00    -0.218 OA
ATOM     24  N1  non d ame     -36.258  14.505  26.865  0.00  0.00    -0.123 NA
BRANCH  21  25
ATOM     25  C3  non d ame     -37.709  16.395  24.120  0.00  0.00    -0.029 C 
ATOM     26  H2  non d ame     -37.530  16.094  23.088  0.00  0.00     0.036 H 
ATOM     27  H3  non d ame     -38.782  16.426  24.308  0.00  0.00     0.036 H 
ATOM     28  H4  non d ame     -37.281  17.383  24.289  0.00  0.00     0.036 H 
ENDBRANCH  21  25
ENDBRANCH  16  19
ENDBRANCH  13  15
BRANCH  13  29
ATOM     29  C8  non d ame     -35.089   9.028  24.181  0.00  0.00    -0.049 C 
ATOM     30  H7  non d ame     -34.279   8.379  23.849  0.00  0.00     0.030 H 
ATOM     31  H8  non d ame     -35.874   8.424  24.635  0.00  0.00     0.030 H 
ATOM     32  H9  non d ame     -35.494   9.569  23.326  0.00  0.00     0.030 H 
ENDBRANCH  13  29
ENDBRANCH  10  13
ENDBRANCH   7   9
BRANCH   7  33
ATOM     33  C11 non d ame     -30.511   9.422  22.333  0.00  0.00    -0.033 C 
ATOM     34  H12 non d ame     -30.370  10.119  21.507  0.00  0.00     0.042 H 
BRANCH  33  35
ATOM     35  C12 non d ame     -29.141   8.722  22.595  0.00  0.00    -0.071 C 
ATOM     36  H13 non d ame     -29.057   8.471  23.653  0.00  0.00     0.028 H 
ATOM     37  H14 non d ame     -29.079   7.812  22.000  0.00  0.00     0.028 H 
ATOM     38  H15 non d ame     -28.330   9.395  22.317  0.00  0.00     0.028 H 
ENDBRANCH  33  35
BRANCH  33  39
ATOM     39  C13 non d ame     -31.604   8.388  21.911  0.00  0.00    -0.071 C 
ATOM     40  H16 non d ame     -31.385   8.016  20.910  0.00  0.00     0.028 H 
ATOM     41  H17 non d ame     -31.608   7.555  22.616  0.00  0.00     0.028 H 
ATOM     42  H18 non d ame     -32.581   8.870  21.915  0.00  0.00     0.028 H 
ENDBRANCH  33  39
ENDBRANCH   7  33
ENDBRANCH   4   7
ENDBRANCH   1   3
BRANCH   1  43
ATOM     43  C15 non d ame     -31.971  15.022  24.825  0.00  0.00     0.240 C 
ATOM     44  O5  non d ame     -32.937  15.472  24.299  0.00  0.00    -0.271 OA
ATOM     45  N6  non d ame     -31.729  15.278  26.273  0.00  0.00    -0.355 N 
ATOM     46  H46 non d ame     -30.914  14.896  26.732  0.00  0.00     0.162 HD
BRANCH  45  47
ATOM     47  C20 non d ame     -32.689  16.097  27.044  0.00  0.00     0.013 C 
ATOM     48  H30 non d ame     -33.687  15.902  26.651  0.00  0.00     0.072 H 
BRANCH  47  49
ATOM     49  C21 non d ame     -32.345  17.560  26.879  0.00  0.00    -0.038 C 
ATOM     50  H31 non d ame     -31.268  17.591  26.704  0.00  0.00     0.036 H 
ATOM     51  H32 non d ame     -33.031  17.940  26.123  0.00  0.00     0.036 H 
BRANCH  49  52
ATOM     52  C22 non d ame     -32.603  18.385  28.158  0.00  0.00     0.018 C 
ATOM     53  H33 non d ame     -33.121  17.715  28.842  0.00  0.00     0.048 H 
ATOM     54  H34 non d ame     -31.635  18.806  28.436  0.00  0.00     0.048 H 
BRANCH  52  55
ATOM     55  C23 non d ame     -33.551  19.596  27.942  0.00  0.00     0.259 C 
ATOM     56  O7  non d ame     -33.183  20.551  27.337  0.00  0.00    -0.265 OA
BRANCH  55  57
ATOM     57  O8  non d ame     -34.864  19.559  28.488  0.00  0.00    -0.317 OA
BRANCH  57  58
ATOM     58  C29 non d ame     -35.741  18.638  27.832  0.00  0.00     0.052 C 
ATOM     59  H47 non d ame     -35.096  17.875  27.399  0.00  0.00     0.082 H 
ATOM     60  H48 non d ame     -36.490  18.363  28.575  0.00  0.00     0.082 H 
BRANCH  58  61
ATOM     61  C35 non d ame     -36.452  19.394  26.677  0.00  0.00    -0.034 A 
ATOM     62  C30 non d ame     -37.570  20.178  26.942  0.00  0.00    -0.075 A 
ATOM     63  C31 non d ame     -38.209  20.856  25.904  0.00  0.00    -0.082 A 
ATOM     64  H49 non d ame     -37.946  20.261  27.961  0.00  0.00     0.084 H 
ATOM     65  C32 non d ame     -37.726  20.746  24.597  0.00  0.00    -0.083 A 
ATOM     66  H50 non d ame     -39.084  21.472  26.116  0.00  0.00     0.083 H 
ATOM     67  C33 non d ame     -36.612  19.959  24.338  0.00  0.00    -0.082 A 
ATOM     68  H51 non d ame     -38.219  21.274  23.781  0.00  0.00     0.083 H 
ATOM     69  C34 non d ame     -35.970  19.282  25.372  0.00  0.00    -0.075 A 
ATOM     70  H52 non d ame     -36.239  19.873  23.316  0.00  0.00     0.083 H 
ATOM     71  H53 non d ame     -35.095  18.667  25.159  0.00  0.00     0.084 H 
ENDBRANCH  58  61
ENDBRANCH  57  58
ENDBRANCH  55  57
ENDBRANCH  52  55
ENDBRANCH  49  52
ENDBRANCH  47  49
BRANCH  47  72
ATOM     72  C24 non d ame     -32.620  15.720  28.523  0.00  0.00    -0.039 C 
ATOM     73  H35 non d ame     -32.289  16.624  29.036  0.00  0.00     0.036 H 
ATOM     74  H36 non d ame     -33.591  15.286  28.757  0.00  0.00     0.036 H 
BRANCH  72  75
ATOM     75  C25 non d ame     -31.518  14.590  28.795  0.00  0.00    -0.001 C 
ATOM     76  C26 non d ame     -32.254  13.143  29.055  0.00  0.00    -0.035 C 
ATOM     77  C27 non d ame     -31.774  12.609  30.204  0.00  0.00     0.085 C 
ATOM     78  H38 non d ame     -33.313  13.294  29.267  0.00  0.00     0.036 H 
ATOM     79  H39 non d ame     -31.948  12.425  28.293  0.00  0.00     0.036 H 
ATOM     80  N5  non d ame     -31.023  13.705  30.920  0.00  0.00    -0.049 N 
ATOM     81  H40 non d ame     -32.654  12.339  30.790  0.00  0.00     0.075 H 
ATOM     82  H41 non d ame     -31.068  11.838  29.894  0.00  0.00     0.075 H 
ATOM     83  C28 non d ame     -30.800  14.876  29.830  0.00  0.00     0.193 C 
ATOM     84  H42 non d ame     -31.639  14.050  31.642  0.00  0.00     0.280 HD
ATOM     85  H43 non d ame     -30.122  13.320  31.166  0.00  0.00     0.280 HD
ATOM     86  H44 non d ame     -29.828  15.020  29.363  0.00  0.00     0.129 H 
ATOM     87  H37 non d ame     -30.713  14.612  28.061  0.00  0.00     0.046 H 
BRANCH  83  88
ATOM     88  O6  non d ame     -31.146  16.144  30.392  0.00  0.00    -0.369 OA
ATOM     89  H45 non d ame     -31.950  16.056  30.909  0.00  0.00     0.212 HD
ENDBRANCH  83  88
ENDBRANCH  72  75
ENDBRANCH  47  72
ENDBRANCH  45  47
ENDBRANCH   1  43
BRANCH   1  90
ATOM     90  C16 non d ame     -31.084  14.518  22.527  0.00  0.00    -0.035 C 
ATOM     91  H21 non d ame     -30.818  13.609  21.989  0.00  0.00     0.037 H 
ATOM     92  H22 non d ame     -32.078  14.948  22.409  0.00  0.00     0.037 H 
BRANCH  90  93
ATOM     93  C17 non d ame     -30.071  15.614  22.067  0.00  0.00    -0.059 C 
ATOM     94  H23 non d ame     -30.318  16.535  22.594  0.00  0.00     0.038 H 
BRANCH  93  95
ATOM     95  C18 non d ame     -28.597  15.240  22.425  0.00  0.00    -0.073 C 
ATOM     96  H24 non d ame     -28.005  16.150  22.525  0.00  0.00     0.028 H 
ATOM     97  H25 non d ame     -28.579  14.692  23.367  0.00  0.00     0.028 H 
ATOM     98  H26 non d ame     -28.177  14.618  21.635  0.00  0.00     0.028 H 
ENDBRANCH  93  95
BRANCH  93  99
ATOM     99  C19 non d ame     -30.213  15.895  20.569  0.00  0.00    -0.073 C 
ATOM    100  H27 non d ame     -29.555  15.229  20.010  0.00  0.00     0.028 H 
ATOM    101  H28 non d ame     -31.245  15.726  20.263  0.00  0.00     0.028 H 
ATOM    102  H29 non d ame     -29.940  16.930  20.366  0.00  0.00     0.028 H 
ENDBRANCH  93  99
ENDBRANCH  90  93
ENDBRANCH   1  90
TORSDOF 26
ENDMDL
MODEL 9
REMARK VINA RESULT:      -6.8      2.095      3.649
REMARK  26 active torsions:
REMARK  status: ('A' for Active; 'I' for Inactive)
REMARK    1  A    between atoms: C2_2  and  C3_3 
REMARK    2  A    between atoms: C4_6  and  C5_7 
REMARK       I    between atoms: C5_7  and  N2_9 
REMARK    3  A    between atoms: N2_9  and  C6_10 
REMARK    4  A    between atoms: C6_10  and  C7_11 
REMARK    5  A    between atoms: C6_10  and  C8_13 
REMARK       I    between atoms: C7_11  and  N3_14 
REMARK    6  A    between atoms: N3_14  and  C9_15 
REMARK    7  A    between atoms: C9_15  and  C10_16 
REMARK    8  A    between atoms: C9_15  and  C11_18 
REMARK       I    between atoms: C10_16  and  N4_21 
REMARK    9  A    between atoms: C11_18  and  C12_19 
REMARK   10  A    between atoms: C11_18  and  C13_20 
REMARK   11  A    between atoms: N4_21  and  C14_22 
REMARK   12  A    between atoms: C14_22  and  C15_23 
REMARK   13  A    between atoms: C14_22  and  C16_25 
REMARK       I    between atoms: C15_23  and  N6_40 
REMARK   14  A    between atoms: C16_25  and  C17_26 
REMARK   15  A    between atoms: C17_26  and  C18_27 
REMARK   16  A    between atoms: C17_26  and  C19_28 
REMARK   17  A    between atoms: C20_29  and  C21_30 
REMARK   18  A    between atoms: C20_29  and  C24_33 
REMARK   19  A    between atoms: C20_29  and  N6_40 
REMARK   20  A    between atoms: C21_30  and  C22_31 
REMARK   21  A    between atoms: C22_31  and  C23_32 
REMARK   22  A    between atoms: C23_32  and  O8_43 
REMARK   23  A    between atoms: C24_33  and  C25_34 
REMARK   24  A    between atoms: C28_38  and  O6_39 
REMARK   25  A    between atoms: C29_42  and  O8_43 
REMARK   26  A    between atoms: C29_42  and  C35_49 
ROOT
ATOM      1  C14 non d ame     -30.715  14.294  23.820  0.00  0.00     0.089 C 
ATOM      2  H20 non d ame     -29.636  14.297  23.658  0.00  0.00     0.087 H 
ENDROOT
BRANCH   1   3
ATOM      3  N4  non d ame     -31.113  12.920  24.086  0.00  0.00    -0.346 N 
ATOM      4  C10 non d ame     -30.529  11.787  23.279  0.00  0.00     0.241 C 
ATOM      5  O4  non d ame     -29.743  12.007  22.418  0.00  0.00    -0.271 OA
ATOM      6  H19 non d ame     -31.785  12.755  24.822  0.00  0.00     0.163 HD
BRANCH   4   7
ATOM      7  C9  non d ame     -30.948  10.371  23.573  0.00  0.00     0.092 C 
ATOM      8  H11 non d ame     -30.477  10.042  24.499  0.00  0.00     0.088 H 
BRANCH   7   9
ATOM      9  N3  non d ame     -32.397  10.323  23.783  0.00  0.00    -0.346 N 
ATOM     10  C7  non d ame     -32.927  10.053  25.097  0.00  0.00     0.240 C 
ATOM     11  O3  non d ame     -32.200   9.871  25.996  0.00  0.00    -0.271 OA
ATOM     12  H10 non d ame     -33.037  10.477  23.017  0.00  0.00     0.163 HD
BRANCH  10  13
ATOM     13  C6  non d ame     -34.471  10.001  25.314  0.00  0.00     0.086 C 
ATOM     14  H6  non d ame     -34.998   9.531  24.484  0.00  0.00     0.086 H 
BRANCH  13  15
ATOM     15  N2  non d ame     -34.754   9.198  26.493  0.00  0.00    -0.343 N 
ATOM     16  C5  non d ame     -35.287   7.843  26.331  0.00  0.00     0.273 C 
ATOM     17  O2  non d ame     -35.486   7.410  25.250  0.00  0.00    -0.266 OA
ATOM     18  H5  non d ame     -34.584   9.578  27.413  0.00  0.00     0.163 HD
BRANCH  16  19
ATOM     19  C4  non d ame     -35.588   6.983  27.568  0.00  0.00     0.154 A 
ATOM     20  C1  non d ame     -36.754   7.038  28.397  0.00  0.00    -0.017 A 
ATOM     21  C2  non d ame     -36.543   6.053  29.387  0.00  0.00     0.077 A 
ATOM     22  H1  non d ame     -37.619   7.693  28.296  0.00  0.00     0.091 H 
ATOM     23  O1  non d ame     -35.390   5.501  29.145  0.00  0.00    -0.218 OA
ATOM     24  N1  non d ame     -34.814   6.027  28.089  0.00  0.00    -0.123 NA
BRANCH  21  25
ATOM     25  C3  non d ame     -37.492   5.702  30.526  0.00  0.00    -0.029 C 
ATOM     26  H2  non d ame     -38.480   6.110  30.314  0.00  0.00     0.036 H 
ATOM     27  H3  non d ame     -37.559   4.619  30.621  0.00  0.00     0.036 H 
ATOM     28  H4  non d ame     -37.116   6.127  31.456  0.00  0.00     0.036 H 
ENDBRANCH  21  25
ENDBRANCH  16  19
ENDBRANCH  13  15
BRANCH  13  29
ATOM     29  C8  non d ame     -35.003  11.399  25.502  0.00  0.00    -0.049 C 
ATOM     30  H7  non d ame     -34.351  11.948  26.181  0.00  0.00     0.030 H 
ATOM     31  H8  non d ame     -35.034  11.908  24.538  0.00  0.00     0.030 H 
ATOM     32  H9  non d ame     -36.008  11.353  25.921  0.00  0.00     0.030 H 
ENDBRANCH  13  29
ENDBRANCH  10  13
ENDBRANCH   7   9
BRANCH   7  33
ATOM     33  C11 non d ame     -30.570   9.459  22.369  0.00  0.00    -0.033 C 
ATOM     34  H12 non d ame     -30.415  10.104  21.504  0.00  0.00     0.042 H 
BRANCH  33  35
ATOM     35  C12 non d ame     -29.235   8.695  22.631  0.00  0.00    -0.071 C 
ATOM     36  H13 non d ame     -29.426   7.622  22.639  0.00  0.00     0.028 H 
ATOM     37  H14 non d ame     -28.522   8.931  21.841  0.00  0.00     0.028 H 
ATOM     38  H15 non d ame     -28.825   8.998  23.594  0.00  0.00     0.028 H 
ENDBRANCH  33  35
BRANCH  33  39
ATOM     39  C13 non d ame     -31.732   8.469  22.031  0.00  0.00    -0.071 C 
ATOM     40  H16 non d ame     -32.183   8.108  22.956  0.00  0.00     0.028 H 
ATOM     41  H17 non d ame     -32.486   8.984  21.435  0.00  0.00     0.028 H 
ATOM     42  H18 non d ame     -31.337   7.626  21.465  0.00  0.00     0.028 H 
ENDBRANCH  33  39
ENDBRANCH   7  33
ENDBRANCH   4   7
ENDBRANCH   1   3
BRANCH   1  43
ATOM     43  C15 non d ame     -31.130  15.174  25.032  0.00  0.00     0.240 C 
ATOM     44  O5  non d ame     -30.752  16.299  25.103  0.00  0.00    -0.271 OA
ATOM     45  N6  non d ame     -32.007  14.619  26.101  0.00  0.00    -0.355 N 
ATOM     46  H46 non d ame     -32.339  13.666  26.049  0.00  0.00     0.162 HD
BRANCH  45  47
ATOM     47  C20 non d ame     -32.396  15.469  27.248  0.00  0.00     0.013 C 
ATOM     48  H30 non d ame     -31.489  15.919  27.653  0.00  0.00     0.072 H 
BRANCH  47  49
ATOM     49  C21 non d ame     -33.063  14.613  28.301  0.00  0.00    -0.038 C 
ATOM     50  H31 non d ame     -32.463  14.736  29.204  0.00  0.00     0.036 H 
ATOM     51  H32 non d ame     -34.112  14.910  28.299  0.00  0.00     0.036 H 
BRANCH  49  52
ATOM     52  C22 non d ame     -33.033  13.108  27.958  0.00  0.00     0.018 C 
ATOM     53  H33 non d ame     -33.947  12.692  28.378  0.00  0.00     0.048 H 
ATOM     54  H34 non d ame     -32.854  13.054  26.884  0.00  0.00     0.048 H 
BRANCH  52  55
ATOM     55  C23 non d ame     -31.863  12.337  28.628  0.00  0.00     0.259 C 
ATOM     56  O7  non d ame     -30.740  12.529  28.287  0.00  0.00    -0.265 OA
BRANCH  55  57
ATOM     57  O8  non d ame     -32.148  11.384  29.645  0.00  0.00    -0.317 OA
BRANCH  57  58
ATOM     58  C29 non d ame     -32.875  11.918  30.755  0.00  0.00     0.052 C 
ATOM     59  H47 non d ame     -32.131  12.116  31.526  0.00  0.00     0.082 H 
ATOM     60  H48 non d ame     -33.473  12.734  30.351  0.00  0.00     0.082 H 
BRANCH  58  61
ATOM     61  C35 non d ame     -33.837  10.815  31.273  0.00  0.00    -0.034 A 
ATOM     62  C30 non d ame     -34.623  11.049  32.397  0.00  0.00    -0.075 A 
ATOM     63  C31 non d ame     -35.487  10.058  32.862  0.00  0.00    -0.082 A 
ATOM     64  H49 non d ame     -34.563  12.007  32.913  0.00  0.00     0.084 H 
ATOM     65  C32 non d ame     -35.561   8.829  32.201  0.00  0.00    -0.083 A 
ATOM     66  H50 non d ame     -36.103  10.245  33.743  0.00  0.00     0.083 H 
ATOM     67  C33 non d ame     -34.772   8.600  31.083  0.00  0.00    -0.082 A 
ATOM     68  H51 non d ame     -36.234   8.050  32.558  0.00  0.00     0.083 H 
ATOM     69  C34 non d ame     -33.908   9.587  30.613  0.00  0.00    -0.075 A 
ATOM     70  H52 non d ame     -34.830   7.639  30.570  0.00  0.00     0.083 H 
ATOM     71  H53 non d ame     -33.293   9.400  29.733  0.00  0.00     0.084 H 
ENDBRANCH  58  61
ENDBRANCH  57  58
ENDBRANCH  55  57
ENDBRANCH  52  55
ENDBRANCH  49  52
ENDBRANCH  47  49
BRANCH  47  72
ATOM     72  C24 non d ame     -33.364  16.554  26.782  0.00  0.00    -0.039 C 
ATOM     73  H35 non d ame     -32.862  17.053  25.952  0.00  0.00     0.036 H 
ATOM     74  H36 non d ame     -34.313  16.044  26.617  0.00  0.00     0.036 H 
BRANCH  72  75
ATOM     75  C25 non d ame     -33.610  17.656  27.918  0.00  0.00    -0.001 C 
ATOM     76  C26 non d ame     -35.209  18.031  27.996  0.00  0.00    -0.035 C 
ATOM     77  C27 non d ame     -35.345  19.378  27.933  0.00  0.00     0.085 C 
ATOM     78  H38 non d ame     -35.719  17.682  27.099  0.00  0.00     0.036 H 
ATOM     79  H39 non d ame     -35.604  17.782  28.981  0.00  0.00     0.036 H 
ATOM     80  N5  non d ame     -34.014  19.935  27.490  0.00  0.00    -0.049 N 
ATOM     81  H40 non d ame     -36.084  19.560  27.152  0.00  0.00     0.075 H 
ATOM     82  H41 non d ame     -35.542  19.699  28.956  0.00  0.00     0.075 H 
ATOM     83  C28 non d ame     -32.947  18.737  27.673  0.00  0.00     0.193 C 
ATOM     84  H42 non d ame     -34.102  20.140  26.505  0.00  0.00     0.280 HD
ATOM     85  H43 non d ame     -33.783  20.674  28.141  0.00  0.00     0.280 HD
ATOM     86  H44 non d ame     -32.252  18.737  28.511  0.00  0.00     0.129 H 
ATOM     87  H37 non d ame     -33.114  17.402  28.855  0.00  0.00     0.046 H 
BRANCH  83  88
ATOM     88  O6  non d ame     -32.135  18.618  26.503  0.00  0.00    -0.369 OA
ATOM     89  H45 non d ame     -31.450  17.963  26.655  0.00  0.00     0.212 HD
ENDBRANCH  83  88
ENDBRANCH  72  75
ENDBRANCH  47  72
ENDBRANCH  45  47
ENDBRANCH   1  43
BRANCH   1  90
ATOM     90  C16 non d ame     -31.424  14.782  22.566  0.00  0.00    -0.035 C 
ATOM     91  H21 non d ame     -31.716  13.880  22.030  0.00  0.00     0.037 H 
ATOM     92  H22 non d ame     -32.186  15.477  22.918  0.00  0.00     0.037 H 
BRANCH  90  93
ATOM     93  C17 non d ame     -30.503  15.590  21.598  0.00  0.00    -0.059 C 
ATOM     94  H23 non d ame     -30.782  16.640  21.675  0.00  0.00     0.038 H 
BRANCH  93  95
ATOM     95  C18 non d ame     -28.993  15.468  21.982  0.00  0.00    -0.073 C 
ATOM     96  H24 non d ame     -28.901  15.349  23.062  0.00  0.00     0.028 H 
ATOM     97  H25 non d ame     -28.561  14.599  21.485  0.00  0.00     0.028 H 
ATOM     98  H26 non d ame     -28.464  16.367  21.669  0.00  0.00     0.028 H 
ENDBRANCH  93  95
BRANCH  93  99
ATOM     99  C19 non d ame     -30.730  15.164  20.145  0.00  0.00    -0.073 C 
ATOM    100  H27 non d ame     -30.556  14.092  20.049  0.00  0.00     0.028 H 
ATOM    101  H28 non d ame     -31.756  15.392  19.856  0.00  0.00     0.028 H 
ATOM    102  H29 non d ame     -30.042  15.705  19.496  0.00  0.00     0.028 H 
ENDBRANCH  93  99
ENDBRANCH  90  93
ENDBRANCH   1  90
TORSDOF 26
ENDMDL
MODEL 10
REMARK VINA RESULT:      -6.8      2.409      7.937
REMARK  26 active torsions:
REMARK  status: ('A' for Active; 'I' for Inactive)
REMARK    1  A    between atoms: C2_2  and  C3_3 
REMARK    2  A    between atoms: C4_6  and  C5_7 
REMARK       I    between atoms: C5_7  and  N2_9 
REMARK    3  A    between atoms: N2_9  and  C6_10 
REMARK    4  A    between atoms: C6_10  and  C7_11 
REMARK    5  A    between atoms: C6_10  and  C8_13 
REMARK       I    between atoms: C7_11  and  N3_14 
REMARK    6  A    between atoms: N3_14  and  C9_15 
REMARK    7  A    between atoms: C9_15  and  C10_16 
REMARK    8  A    between atoms: C9_15  and  C11_18 
REMARK       I    between atoms: C10_16  and  N4_21 
REMARK    9  A    between atoms: C11_18  and  C12_19 
REMARK   10  A    between atoms: C11_18  and  C13_20 
REMARK   11  A    between atoms: N4_21  and  C14_22 
REMARK   12  A    between atoms: C14_22  and  C15_23 
REMARK   13  A    between atoms: C14_22  and  C16_25 
REMARK       I    between atoms: C15_23  and  N6_40 
REMARK   14  A    between atoms: C16_25  and  C17_26 
REMARK   15  A    between atoms: C17_26  and  C18_27 
REMARK   16  A    between atoms: C17_26  and  C19_28 
REMARK   17  A    between atoms: C20_29  and  C21_30 
REMARK   18  A    between atoms: C20_29  and  C24_33 
REMARK   19  A    between atoms: C20_29  and  N6_40 
REMARK   20  A    between atoms: C21_30  and  C22_31 
REMARK   21  A    between atoms: C22_31  and  C23_32 
REMARK   22  A    between atoms: C23_32  and  O8_43 
REMARK   23  A    between atoms: C24_33  and  C25_34 
REMARK   24  A    between atoms: C28_38  and  O6_39 
REMARK   25  A    between atoms: C29_42  and  O8_43 
REMARK   26  A    between atoms: C29_42  and  C35_49 
ROOT
ATOM      1  C14 non d ame     -36.437  15.929  26.501  0.00  0.00     0.089 C 
ATOM      2  H20 non d ame     -37.051  16.477  27.216  0.00  0.00     0.087 H 
ENDROOT
BRANCH   1   3
ATOM      3  N4  non d ame     -35.046  16.111  26.889  0.00  0.00    -0.346 N 
ATOM      4  C10 non d ame     -34.661  17.204  27.856  0.00  0.00     0.241 C 
ATOM      5  O4  non d ame     -35.488  17.926  28.305  0.00  0.00    -0.271 OA
ATOM      6  H19 non d ame     -34.357  15.487  26.494  0.00  0.00     0.163 HD
BRANCH   4   7
ATOM      7  C9  non d ame     -33.218  17.373  28.251  0.00  0.00     0.092 C 
ATOM      8  H11 non d ame     -33.167  17.878  29.216  0.00  0.00     0.088 H 
BRANCH   7   9
ATOM      9  N3  non d ame     -32.598  16.056  28.418  0.00  0.00    -0.346 N 
ATOM     10  C7  non d ame     -31.732  15.804  29.543  0.00  0.00     0.240 C 
ATOM     11  O3  non d ame     -31.522  16.651  30.323  0.00  0.00    -0.271 OA
ATOM     12  H10 non d ame     -32.769  15.316  27.752  0.00  0.00     0.163 HD
BRANCH  10  13
ATOM     13  C6  non d ame     -31.073  14.400  29.714  0.00  0.00     0.086 C 
ATOM     14  H6  non d ame     -30.409  14.348  30.577  0.00  0.00     0.086 H 
BRANCH  13  15
ATOM     15  N2  non d ame     -32.117  13.413  29.934  0.00  0.00    -0.343 N 
ATOM     16  C5  non d ame     -31.797  12.169  30.638  0.00  0.00     0.273 C 
ATOM     17  O2  non d ame     -30.697  11.971  31.021  0.00  0.00    -0.266 OA
ATOM     18  H5  non d ame     -33.054  13.589  29.600  0.00  0.00     0.163 HD
BRANCH  16  19
ATOM     19  C4  non d ame     -32.891  11.117  30.879  0.00  0.00     0.154 A 
ATOM     20  C1  non d ame     -33.273  10.051  30.004  0.00  0.00    -0.017 A 
ATOM     21  C2  non d ame     -34.314   9.379  30.683  0.00  0.00     0.077 A 
ATOM     22  H1  non d ame     -32.860   9.803  29.027  0.00  0.00     0.091 H 
ATOM     23  O1  non d ame     -34.498   9.994  31.815  0.00  0.00    -0.218 OA
ATOM     24  N1  non d ame     -33.680  11.012  31.951  0.00  0.00    -0.123 NA
BRANCH  21  25
ATOM     25  C3  non d ame     -35.078   8.160  30.183  0.00  0.00    -0.029 C 
ATOM     26  H2  non d ame     -34.461   7.613  29.470  0.00  0.00     0.036 H 
ATOM     27  H3  non d ame     -35.319   7.512  31.025  0.00  0.00     0.036 H 
ATOM     28  H4  non d ame     -35.997   8.481  29.696  0.00  0.00     0.036 H 
ENDBRANCH  21  25
ENDBRANCH  16  19
ENDBRANCH  13  15
BRANCH  13  29
ATOM     29  C8  non d ame     -30.289  14.055  28.473  0.00  0.00    -0.049 C 
ATOM     30  H7  non d ame     -30.588  13.070  28.116  0.00  0.00     0.030 H 
ATOM     31  H8  non d ame     -30.490  14.797  27.700  0.00  0.00     0.030 H 
ATOM     32  H9  non d ame     -29.224  14.050  28.705  0.00  0.00     0.030 H 
ENDBRANCH  13  29
ENDBRANCH  10  13
ENDBRANCH   7   9
BRANCH   7  33
ATOM     33  C11 non d ame     -32.465  18.161  27.139  0.00  0.00    -0.033 C 
ATOM     34  H12 non d ame     -31.406  17.917  27.224  0.00  0.00     0.042 H 
BRANCH  33  35
ATOM     35  C12 non d ame     -32.934  17.725  25.715  0.00  0.00    -0.071 C 
ATOM     36  H13 non d ame     -33.915  18.153  25.509  0.00  0.00     0.028 H 
ATOM     37  H14 non d ame     -32.219  18.079  24.974  0.00  0.00     0.028 H 
ATOM     38  H15 non d ame     -32.996  16.637  25.670  0.00  0.00     0.028 H 
ENDBRANCH  33  35
BRANCH  33  39
ATOM     39  C13 non d ame     -32.624  19.702  27.340  0.00  0.00    -0.071 C 
ATOM     40  H16 non d ame     -33.682  19.950  27.432  0.00  0.00     0.028 H 
ATOM     41  H17 non d ame     -32.099  20.007  28.246  0.00  0.00     0.028 H 
ATOM     42  H18 non d ame     -32.201  20.226  26.484  0.00  0.00     0.028 H 
ENDBRANCH  33  39
ENDBRANCH   7  33
ENDBRANCH   4   7
ENDBRANCH   1   3
BRANCH   1  43
ATOM     43  C15 non d ame     -36.755  14.407  26.497  0.00  0.00     0.240 C 
ATOM     44  O5  non d ame     -37.831  14.028  26.830  0.00  0.00    -0.271 OA
ATOM     45  N6  non d ame     -35.722  13.422  26.070  0.00  0.00    -0.355 N 
ATOM     46  H46 non d ame     -34.805  13.733  25.781  0.00  0.00     0.162 HD
BRANCH  45  47
ATOM     47  C20 non d ame     -36.040  11.977  26.070  0.00  0.00     0.013 C 
ATOM     48  H30 non d ame     -36.930  11.831  26.683  0.00  0.00     0.072 H 
BRANCH  47  49
ATOM     49  C21 non d ame     -34.877  11.209  26.656  0.00  0.00    -0.038 C 
ATOM     50  H31 non d ame     -35.250  10.771  27.583  0.00  0.00     0.036 H 
ATOM     51  H32 non d ame     -34.517  10.565  25.855  0.00  0.00     0.036 H 
BRANCH  49  52
ATOM     52  C22 non d ame     -33.694  12.120  27.049  0.00  0.00     0.018 C 
ATOM     53  H33 non d ame     -33.907  13.090  26.603  0.00  0.00     0.048 H 
ATOM     54  H34 non d ame     -33.599  12.028  28.132  0.00  0.00     0.048 H 
BRANCH  52  55
ATOM     55  C23 non d ame     -32.331  11.666  26.460  0.00  0.00     0.259 C 
ATOM     56  O7  non d ame     -31.626  10.926  27.067  0.00  0.00    -0.265 OA
BRANCH  55  57
ATOM     57  O8  non d ame     -31.923  12.156  25.188  0.00  0.00    -0.317 OA
BRANCH  57  58
ATOM     58  C29 non d ame     -31.817  13.582  25.121  0.00  0.00     0.052 C 
ATOM     59  H47 non d ame     -32.818  13.940  24.883  0.00  0.00     0.082 H 
ATOM     60  H48 non d ame     -31.335  13.886  26.050  0.00  0.00     0.082 H 
BRANCH  58  61
ATOM     61  C35 non d ame     -30.875  13.937  23.940  0.00  0.00    -0.034 A 
ATOM     62  C30 non d ame     -30.358  12.928  23.133  0.00  0.00    -0.075 A 
ATOM     63  C31 non d ame     -29.511  13.247  22.072  0.00  0.00    -0.082 A 
ATOM     64  H49 non d ame     -30.616  11.888  23.332  0.00  0.00     0.084 H 
ATOM     65  C32 non d ame     -29.179  14.581  21.821  0.00  0.00    -0.083 A 
ATOM     66  H50 non d ame     -29.109  12.454  21.441  0.00  0.00     0.083 H 
ATOM     67  C33 non d ame     -29.694  15.584  22.631  0.00  0.00    -0.082 A 
ATOM     68  H51 non d ame     -28.519  14.839  20.994  0.00  0.00     0.083 H 
ATOM     69  C34 non d ame     -30.543  15.270  23.691  0.00  0.00    -0.075 A 
ATOM     70  H52 non d ame     -29.432  16.624  22.434  0.00  0.00     0.083 H 
ATOM     71  H53 non d ame     -30.944  16.064  24.321  0.00  0.00     0.084 H 
ENDBRANCH  58  61
ENDBRANCH  57  58
ENDBRANCH  55  57
ENDBRANCH  52  55
ENDBRANCH  49  52
ENDBRANCH  47  49
BRANCH  47  72
ATOM     72  C24 non d ame     -36.297  11.504  24.641  0.00  0.00    -0.039 C 
ATOM     73  H35 non d ame     -35.725  12.182  24.005  0.00  0.00     0.036 H 
ATOM     74  H36 non d ame     -36.070  10.439  24.643  0.00  0.00     0.036 H 
BRANCH  72  75
ATOM     75  C25 non d ame     -37.838  11.659  24.233  0.00  0.00    -0.001 C 
ATOM     76  C26 non d ame     -38.372  10.273  23.529  0.00  0.00    -0.035 C 
ATOM     77  C27 non d ame     -38.967  10.581  22.352  0.00  0.00     0.085 C 
ATOM     78  H38 non d ame     -37.525   9.654  23.232  0.00  0.00     0.036 H 
ATOM     79  H39 non d ame     -39.181   9.842  24.119  0.00  0.00     0.036 H 
ATOM     80  N5  non d ame     -38.598  12.010  22.033  0.00  0.00    -0.049 N 
ATOM     81  H40 non d ame     -38.510   9.923  21.613  0.00  0.00     0.075 H 
ATOM     82  H41 non d ame     -40.038  10.526  22.544  0.00  0.00     0.075 H 
ATOM     83  C28 non d ame     -38.005  12.632  23.400  0.00  0.00     0.193 C 
ATOM     84  H42 non d ame     -37.856  11.969  21.349  0.00  0.00     0.280 HD
ATOM     85  H43 non d ame     -39.462  12.485  21.811  0.00  0.00     0.280 HD
ATOM     86  H44 non d ame     -38.605  13.310  24.005  0.00  0.00     0.129 H 
ATOM     87  H37 non d ame     -38.441  12.069  25.043  0.00  0.00     0.046 H 
BRANCH  83  88
ATOM     88  O6  non d ame     -36.788  13.331  23.135  0.00  0.00    -0.369 OA
ATOM     89  H45 non d ame     -36.069  12.701  23.047  0.00  0.00     0.212 HD
ENDBRANCH  83  88
ENDBRANCH  72  75
ENDBRANCH  47  72
ENDBRANCH  45  47
ENDBRANCH   1  43
BRANCH   1  90
ATOM     90  C16 non d ame     -36.640  16.498  25.106  0.00  0.00    -0.035 C 
ATOM     91  H21 non d ame     -35.639  16.700  24.727  0.00  0.00     0.037 H 
ATOM     92  H22 non d ame     -37.281  15.781  24.593  0.00  0.00     0.037 H 
BRANCH  90  93
ATOM     93  C17 non d ame     -37.401  17.862  25.089  0.00  0.00    -0.059 C 
ATOM     94  H23 non d ame     -37.984  17.905  24.169  0.00  0.00     0.038 H 
BRANCH  93  95
ATOM     95  C18 non d ame     -38.391  17.999  26.289  0.00  0.00    -0.073 C 
ATOM     96  H24 non d ame     -39.415  18.006  25.916  0.00  0.00     0.028 H 
ATOM     97  H25 non d ame     -38.259  17.155  26.967  0.00  0.00     0.028 H 
ATOM     98  H26 non d ame     -38.191  18.928  26.822  0.00  0.00     0.028 H 
ENDBRANCH  93  95
BRANCH  93  99
ATOM     99  C19 non d ame     -36.418  19.035  25.058  0.00  0.00    -0.073 C 
ATOM    100  H27 non d ame     -36.678  19.748  25.841  0.00  0.00     0.028 H 
ATOM    101  H28 non d ame     -35.406  18.666  25.227  0.00  0.00     0.028 H 
ATOM    102  H29 non d ame     -36.468  19.526  24.087  0.00  0.00     0.028 H 
ENDBRANCH  93  99
ENDBRANCH  90  93
ENDBRANCH   1  90
TORSDOF 26
ENDMDL
MODEL 11
REMARK VINA RESULT:      -6.6      3.098      8.154
REMARK  26 active torsions:
REMARK  status: ('A' for Active; 'I' for Inactive)
REMARK    1  A    between atoms: C2_2  and  C3_3 
REMARK    2  A    between atoms: C4_6  and  C5_7 
REMARK       I    between atoms: C5_7  and  N2_9 
REMARK    3  A    between atoms: N2_9  and  C6_10 
REMARK    4  A    between atoms: C6_10  and  C7_11 
REMARK    5  A    between atoms: C6_10  and  C8_13 
REMARK       I    between atoms: C7_11  and  N3_14 
REMARK    6  A    between atoms: N3_14  and  C9_15 
REMARK    7  A    between atoms: C9_15  and  C10_16 
REMARK    8  A    between atoms: C9_15  and  C11_18 
REMARK       I    between atoms: C10_16  and  N4_21 
REMARK    9  A    between atoms: C11_18  and  C12_19 
REMARK   10  A    between atoms: C11_18  and  C13_20 
REMARK   11  A    between atoms: N4_21  and  C14_22 
REMARK   12  A    between atoms: C14_22  and  C15_23 
REMARK   13  A    between atoms: C14_22  and  C16_25 
REMARK       I    between atoms: C15_23  and  N6_40 
REMARK   14  A    between atoms: C16_25  and  C17_26 
REMARK   15  A    between atoms: C17_26  and  C18_27 
REMARK   16  A    between atoms: C17_26  and  C19_28 
REMARK   17  A    between atoms: C20_29  and  C21_30 
REMARK   18  A    between atoms: C20_29  and  C24_33 
REMARK   19  A    between atoms: C20_29  and  N6_40 
REMARK   20  A    between atoms: C21_30  and  C22_31 
REMARK   21  A    between atoms: C22_31  and  C23_32 
REMARK   22  A    between atoms: C23_32  and  O8_43 
REMARK   23  A    between atoms: C24_33  and  C25_34 
REMARK   24  A    between atoms: C28_38  and  O6_39 
REMARK   25  A    between atoms: C29_42  and  O8_43 
REMARK   26  A    between atoms: C29_42  and  C35_49 
ROOT
ATOM      1  C14 non d ame     -34.543   9.071  30.079  0.00  0.00     0.089 C 
ATOM      2  H20 non d ame     -35.548   9.366  29.777  0.00  0.00     0.087 H 
ENDROOT
BRANCH   1   3
ATOM      3  N4  non d ame     -34.163   7.922  29.271  0.00  0.00    -0.346 N 
ATOM      4  C10 non d ame     -35.145   7.315  28.300  0.00  0.00     0.241 C 
ATOM      5  O4  non d ame     -36.236   7.766  28.189  0.00  0.00    -0.271 OA
ATOM      6  H19 non d ame     -33.230   7.551  29.382  0.00  0.00     0.163 HD
BRANCH   4   7
ATOM      7  C9  non d ame     -34.731   6.130  27.467  0.00  0.00     0.092 C 
ATOM      8  H11 non d ame     -35.546   5.405  27.446  0.00  0.00     0.088 H 
BRANCH   7   9
ATOM      9  N3  non d ame     -34.497   6.560  26.086  0.00  0.00    -0.346 N 
ATOM     10  C7  non d ame     -35.401   6.150  25.040  0.00  0.00     0.240 C 
ATOM     11  O3  non d ame     -36.322   5.472  25.292  0.00  0.00    -0.271 OA
ATOM     12  H10 non d ame     -33.706   7.142  25.853  0.00  0.00     0.163 HD
BRANCH  10  13
ATOM     13  C6  non d ame     -35.145   6.608  23.571  0.00  0.00     0.086 C 
ATOM     14  H6  non d ame     -35.680   7.523  23.315  0.00  0.00     0.086 H 
BRANCH  13  15
ATOM     15  N2  non d ame     -33.729   6.895  23.407  0.00  0.00    -0.343 N 
ATOM     16  C5  non d ame     -33.314   8.197  22.878  0.00  0.00     0.273 C 
ATOM     17  O2  non d ame     -34.125   9.004  22.585  0.00  0.00    -0.266 OA
ATOM     18  H5  non d ame     -33.043   6.198  23.657  0.00  0.00     0.163 HD
BRANCH  16  19
ATOM     19  C4  non d ame     -31.821   8.514  22.702  0.00  0.00     0.154 A 
ATOM     20  C1  non d ame     -30.740   7.579  22.637  0.00  0.00    -0.017 A 
ATOM     21  C2  non d ame     -29.582   8.372  22.471  0.00  0.00     0.077 A 
ATOM     22  H1  non d ame     -30.787   6.492  22.702  0.00  0.00     0.091 H 
ATOM     23  O1  non d ame     -29.966   9.615  22.441  0.00  0.00    -0.218 OA
ATOM     24  N1  non d ame     -31.267   9.723  22.575  0.00  0.00    -0.123 NA
BRANCH  21  25
ATOM     25  C3  non d ame     -28.152   7.865  22.346  0.00  0.00    -0.029 C 
ATOM     26  H2  non d ame     -27.510   8.670  21.989  0.00  0.00     0.036 H 
ATOM     27  H3  non d ame     -27.800   7.527  23.321  0.00  0.00     0.036 H 
ATOM     28  H4  non d ame     -28.120   7.035  21.641  0.00  0.00     0.036 H 
ENDBRANCH  21  25
ENDBRANCH  16  19
ENDBRANCH  13  15
BRANCH  13  29
ATOM     29  C8  non d ame     -35.563   5.515  22.620  0.00  0.00    -0.049 C 
ATOM     30  H7  non d ame     -35.235   5.765  21.612  0.00  0.00     0.030 H 
ATOM     31  H8  non d ame     -35.108   4.573  22.927  0.00  0.00     0.030 H 
ATOM     32  H9  non d ame     -36.649   5.416  22.635  0.00  0.00     0.030 H 
ENDBRANCH  13  29
ENDBRANCH  10  13
ENDBRANCH   7   9
BRANCH   7  33
ATOM     33  C11 non d ame     -33.422   5.520  28.048  0.00  0.00    -0.033 C 
ATOM     34  H12 non d ame     -33.299   5.909  29.059  0.00  0.00     0.042 H 
BRANCH  33  35
ATOM     35  C12 non d ame     -33.515   3.966  28.151  0.00  0.00    -0.071 C 
ATOM     36  H13 non d ame     -33.652   3.543  27.156  0.00  0.00     0.028 H 
ATOM     37  H14 non d ame     -32.596   3.576  28.588  0.00  0.00     0.028 H 
ATOM     38  H15 non d ame     -34.361   3.693  28.781  0.00  0.00     0.028 H 
ENDBRANCH  33  35
BRANCH  33  39
ATOM     39  C13 non d ame     -32.180   5.959  27.207  0.00  0.00    -0.071 C 
ATOM     40  H16 non d ame     -31.347   5.286  27.410  0.00  0.00     0.028 H 
ATOM     41  H17 non d ame     -32.427   5.921  26.146  0.00  0.00     0.028 H 
ATOM     42  H18 non d ame     -31.900   6.976  27.477  0.00  0.00     0.028 H 
ENDBRANCH  33  39
ENDBRANCH   7  33
ENDBRANCH   4   7
ENDBRANCH   1   3
BRANCH   1  43
ATOM     43  C15 non d ame     -33.504  10.204  29.849  0.00  0.00     0.240 C 
ATOM     44  O5  non d ame     -32.657  10.403  30.659  0.00  0.00    -0.271 OA
ATOM     45  N6  non d ame     -33.557  11.037  28.614  0.00  0.00    -0.355 N 
ATOM     46  H46 non d ame     -34.269  10.873  27.916  0.00  0.00     0.162 HD
BRANCH  45  47
ATOM     47  C20 non d ame     -32.560  12.110  28.408  0.00  0.00     0.013 C 
ATOM     48  H30 non d ame     -31.570  11.678  28.550  0.00  0.00     0.072 H 
BRANCH  47  49
ATOM     49  C21 non d ame     -32.795  13.210  29.418  0.00  0.00    -0.038 C 
ATOM     50  H31 non d ame     -33.581  13.837  28.994  0.00  0.00     0.036 H 
ATOM     51  H32 non d ame     -32.954  12.706  30.371  0.00  0.00     0.036 H 
BRANCH  49  52
ATOM     52  C22 non d ame     -31.565  14.123  29.607  0.00  0.00     0.018 C 
ATOM     53  H33 non d ame     -31.156  13.870  30.584  0.00  0.00     0.048 H 
ATOM     54  H34 non d ame     -30.957  13.988  28.711  0.00  0.00     0.048 H 
BRANCH  52  55
ATOM     55  C23 non d ame     -31.910  15.637  29.665  0.00  0.00     0.259 C 
ATOM     56  O7  non d ame     -31.287  16.372  30.360  0.00  0.00    -0.265 OA
BRANCH  55  57
ATOM     57  O8  non d ame     -32.993  16.135  28.888  0.00  0.00    -0.317 OA
BRANCH  57  58
ATOM     58  C29 non d ame     -32.688  16.288  27.498  0.00  0.00     0.052 C 
ATOM     59  H47 non d ame     -31.632  16.040  27.399  0.00  0.00     0.082 H 
ATOM     60  H48 non d ame     -33.439  15.705  26.965  0.00  0.00     0.082 H 
BRANCH  58  61
ATOM     61  C35 non d ame     -32.878  17.785  27.129  0.00  0.00    -0.034 A 
ATOM     62  C30 non d ame     -32.681  18.769  28.092  0.00  0.00    -0.075 A 
ATOM     63  C31 non d ame     -32.851  20.113  27.760  0.00  0.00    -0.082 A 
ATOM     64  H49 non d ame     -32.394  18.489  29.105  0.00  0.00     0.084 H 
ATOM     65  C32 non d ame     -33.222  20.470  26.461  0.00  0.00    -0.083 A 
ATOM     66  H50 non d ame     -32.695  20.883  28.517  0.00  0.00     0.083 H 
ATOM     67  C33 non d ame     -33.421  19.483  25.505  0.00  0.00    -0.082 A 
ATOM     68  H51 non d ame     -33.357  21.518  26.194  0.00  0.00     0.083 H 
ATOM     69  C34 non d ame     -33.250  18.140  25.831  0.00  0.00    -0.075 A 
ATOM     70  H52 non d ame     -33.712  19.765  24.493  0.00  0.00     0.083 H 
ATOM     71  H53 non d ame     -33.406  17.371  25.074  0.00  0.00     0.084 H 
ENDBRANCH  58  61
ENDBRANCH  57  58
ENDBRANCH  55  57
ENDBRANCH  52  55
ENDBRANCH  49  52
ENDBRANCH  47  49
BRANCH  47  72
ATOM     72  C24 non d ame     -32.694  12.676  26.996  0.00  0.00    -0.039 C 
ATOM     73  H35 non d ame     -33.386  12.008  26.481  0.00  0.00     0.036 H 
ATOM     74  H36 non d ame     -32.949  13.727  27.129  0.00  0.00     0.036 H 
BRANCH  72  75
ATOM     75  C25 non d ame     -31.304  12.624  26.202  0.00  0.00    -0.001 C 
ATOM     76  C26 non d ame     -31.065  14.039  25.400  0.00  0.00    -0.035 C 
ATOM     77  C27 non d ame     -30.774  13.763  24.106  0.00  0.00     0.085 C 
ATOM     78  H38 non d ame     -31.998  14.597  25.339  0.00  0.00     0.036 H 
ATOM     79  H39 non d ame     -30.160  14.526  25.765  0.00  0.00     0.036 H 
ATOM     80  N5  non d ame     -31.117  12.311  23.876  0.00  0.00    -0.049 N 
ATOM     81  H40 non d ame     -31.450  14.385  23.517  0.00  0.00     0.075 H 
ATOM     82  H41 non d ame     -29.696  13.893  24.015  0.00  0.00     0.075 H 
ATOM     83  C28 non d ame     -31.293  11.659  25.343  0.00  0.00     0.193 C 
ATOM     84  H42 non d ame     -32.011  12.297  23.409  0.00  0.00     0.280 HD
ATOM     85  H43 non d ame     -30.309  11.894  23.434  0.00  0.00     0.280 HD
ATOM     86  H44 non d ame     -30.513  11.027  25.765  0.00  0.00     0.129 H 
ATOM     87  H37 non d ame     -30.486  12.261  26.824  0.00  0.00     0.046 H 
BRANCH  83  88
ATOM     88  O6  non d ame     -32.488  10.877  25.394  0.00  0.00    -0.369 OA
ATOM     89  H45 non d ame     -32.984  11.103  26.184  0.00  0.00     0.212 HD
ENDBRANCH  83  88
ENDBRANCH  72  75
ENDBRANCH  47  72
ENDBRANCH  45  47
ENDBRANCH   1  43
BRANCH   1  90
ATOM     90  C16 non d ame     -34.544   8.667  31.545  0.00  0.00    -0.035 C 
ATOM     91  H21 non d ame     -34.728   7.593  31.549  0.00  0.00     0.037 H 
ATOM     92  H22 non d ame     -33.614   9.062  31.953  0.00  0.00     0.037 H 
BRANCH  90  93
ATOM     93  C17 non d ame     -35.699   9.314  32.373  0.00  0.00    -0.059 C 
ATOM     94  H23 non d ame     -35.903   8.664  33.223  0.00  0.00     0.038 H 
BRANCH  93  95
ATOM     95  C18 non d ame     -35.309  10.720  32.931  0.00  0.00    -0.073 C 
ATOM     96  H24 non d ame     -35.081  10.639  33.993  0.00  0.00     0.028 H 
ATOM     97  H25 non d ame     -34.431  11.091  32.400  0.00  0.00     0.028 H 
ATOM     98  H26 non d ame     -36.138  11.412  32.788  0.00  0.00     0.028 H 
ENDBRANCH  93  95
BRANCH  93  99
ATOM     99  C19 non d ame     -36.985   9.396  31.545  0.00  0.00    -0.073 C 
ATOM    100  H27 non d ame     -36.862  10.135  30.753  0.00  0.00     0.028 H 
ATOM    101  H28 non d ame     -37.195   8.422  31.102  0.00  0.00     0.028 H 
ATOM    102  H29 non d ame     -37.814   9.687  32.190  0.00  0.00     0.028 H 
ENDBRANCH  93  99
ENDBRANCH  90  93
ENDBRANCH   1  90
TORSDOF 26
ENDMDL
MODEL 12
REMARK VINA RESULT:      -6.6      2.173      7.630
REMARK  26 active torsions:
REMARK  status: ('A' for Active; 'I' for Inactive)
REMARK    1  A    between atoms: C2_2  and  C3_3 
REMARK    2  A    between atoms: C4_6  and  C5_7 
REMARK       I    between atoms: C5_7  and  N2_9 
REMARK    3  A    between atoms: N2_9  and  C6_10 
REMARK    4  A    between atoms: C6_10  and  C7_11 
REMARK    5  A    between atoms: C6_10  and  C8_13 
REMARK       I    between atoms: C7_11  and  N3_14 
REMARK    6  A    between atoms: N3_14  and  C9_15 
REMARK    7  A    between atoms: C9_15  and  C10_16 
REMARK    8  A    between atoms: C9_15  and  C11_18 
REMARK       I    between atoms: C10_16  and  N4_21 
REMARK    9  A    between atoms: C11_18  and  C12_19 
REMARK   10  A    between atoms: C11_18  and  C13_20 
REMARK   11  A    between atoms: N4_21  and  C14_22 
REMARK   12  A    between atoms: C14_22  and  C15_23 
REMARK   13  A    between atoms: C14_22  and  C16_25 
REMARK       I    between atoms: C15_23  and  N6_40 
REMARK   14  A    between atoms: C16_25  and  C17_26 
REMARK   15  A    between atoms: C17_26  and  C18_27 
REMARK   16  A    between atoms: C17_26  and  C19_28 
REMARK   17  A    between atoms: C20_29  and  C21_30 
REMARK   18  A    between atoms: C20_29  and  C24_33 
REMARK   19  A    between atoms: C20_29  and  N6_40 
REMARK   20  A    between atoms: C21_30  and  C22_31 
REMARK   21  A    between atoms: C22_31  and  C23_32 
REMARK   22  A    between atoms: C23_32  and  O8_43 
REMARK   23  A    between atoms: C24_33  and  C25_34 
REMARK   24  A    between atoms: C28_38  and  O6_39 
REMARK   25  A    between atoms: C29_42  and  O8_43 
REMARK   26  A    between atoms: C29_42  and  C35_49 
ROOT
ATOM      1  C14 non d ame     -33.011  11.988  28.705  0.00  0.00     0.089 C 
ATOM      2  H20 non d ame     -33.180  12.360  29.717  0.00  0.00     0.087 H 
ENDROOT
BRANCH   1   3
ATOM      3  N4  non d ame     -33.712  10.719  28.583  0.00  0.00    -0.346 N 
ATOM      4  C10 non d ame     -33.908   9.837  29.791  0.00  0.00     0.241 C 
ATOM      5  O4  non d ame     -33.490  10.169  30.850  0.00  0.00    -0.271 OA
ATOM      6  H19 non d ame     -34.058  10.454  27.672  0.00  0.00     0.163 HD
BRANCH   4   7
ATOM      7  C9  non d ame     -34.641   8.529  29.646  0.00  0.00     0.092 C 
ATOM      8  H11 non d ame     -35.580   8.701  29.119  0.00  0.00     0.088 H 
BRANCH   7   9
ATOM      9  N3  non d ame     -33.846   7.610  28.828  0.00  0.00    -0.346 N 
ATOM     10  C7  non d ame     -34.078   7.525  27.407  0.00  0.00     0.240 C 
ATOM     11  O3  non d ame     -34.903   8.188  26.906  0.00  0.00    -0.271 OA
ATOM     12  H10 non d ame     -33.132   7.031  29.246  0.00  0.00     0.163 HD
BRANCH  10  13
ATOM     13  C6  non d ame     -33.230   6.542  26.541  0.00  0.00     0.086 C 
ATOM     14  H6  non d ame     -33.832   5.987  25.822  0.00  0.00     0.086 H 
BRANCH  13  15
ATOM     15  N2  non d ame     -32.263   7.308  25.771  0.00  0.00    -0.343 N 
ATOM     16  C5  non d ame     -32.593   7.721  24.405  0.00  0.00     0.273 C 
ATOM     17  O2  non d ame     -33.638   7.431  23.935  0.00  0.00    -0.266 OA
ATOM     18  H5  non d ame     -31.371   7.548  26.180  0.00  0.00     0.163 HD
BRANCH  16  19
ATOM     19  C4  non d ame     -31.582   8.531  23.581  0.00  0.00     0.154 A 
ATOM     20  C1  non d ame     -31.377   9.947  23.612  0.00  0.00    -0.017 A 
ATOM     21  C2  non d ame     -30.344  10.186  22.677  0.00  0.00     0.077 A 
ATOM     22  H1  non d ame     -31.898  10.688  24.217  0.00  0.00     0.091 H 
ATOM     23  O1  non d ame     -30.001   9.035  22.177  0.00  0.00    -0.218 OA
ATOM     24  N1  non d ame     -30.710   8.055  22.688  0.00  0.00    -0.123 NA
BRANCH  21  25
ATOM     25  C3  non d ame     -29.743  11.540  22.324  0.00  0.00    -0.029 C 
ATOM     26  H2  non d ame     -29.739  11.664  21.241  0.00  0.00     0.036 H 
ATOM     27  H3  non d ame     -30.340  12.331  22.778  0.00  0.00     0.036 H 
ATOM     28  H4  non d ame     -28.722  11.593  22.700  0.00  0.00     0.036 H 
ENDBRANCH  21  25
ENDBRANCH  16  19
ENDBRANCH  13  15
BRANCH  13  29
ATOM     29  C8  non d ame     -32.517   5.564  27.440  0.00  0.00    -0.049 C 
ATOM     30  H7  non d ame     -32.952   5.602  28.437  0.00  0.00     0.030 H 
ATOM     31  H8  non d ame     -32.623   4.557  27.035  0.00  0.00     0.030 H 
ATOM     32  H9  non d ame     -31.460   5.824  27.494  0.00  0.00     0.030 H 
ENDBRANCH  13  29
ENDBRANCH  10  13
ENDBRANCH   7   9
BRANCH   7  33
ATOM     33  C11 non d ame     -34.867   7.904  31.054  0.00  0.00    -0.033 C 
ATOM     34  H12 non d ame     -34.020   8.188  31.679  0.00  0.00     0.042 H 
BRANCH  33  35
ATOM     35  C12 non d ame     -36.158   8.467  31.727  0.00  0.00    -0.071 C 
ATOM     36  H13 non d ame     -36.470   7.799  32.529  0.00  0.00     0.028 H 
ATOM     37  H14 non d ame     -35.951   9.456  32.137  0.00  0.00     0.028 H 
ATOM     38  H15 non d ame     -36.953   8.540  30.985  0.00  0.00     0.028 H 
ENDBRANCH  33  35
BRANCH  33  39
ATOM     39  C13 non d ame     -34.905   6.344  30.973  0.00  0.00    -0.071 C 
ATOM     40  H16 non d ame     -34.679   6.027  29.955  0.00  0.00     0.028 H 
ATOM     41  H17 non d ame     -34.166   5.926  31.657  0.00  0.00     0.028 H 
ATOM     42  H18 non d ame     -35.897   5.990  31.252  0.00  0.00     0.028 H 
ENDBRANCH  33  39
ENDBRANCH   7  33
ENDBRANCH   4   7
ENDBRANCH   1   3
BRANCH   1  43
ATOM     43  C15 non d ame     -33.557  12.962  27.623  0.00  0.00     0.240 C 
ATOM     44  O5  non d ame     -33.399  12.713  26.471  0.00  0.00    -0.271 OA
ATOM     45  N6  non d ame     -34.285  14.200  28.021  0.00  0.00    -0.355 N 
ATOM     46  H46 non d ame     -34.429  14.419  28.996  0.00  0.00     0.162 HD
BRANCH  45  47
ATOM     47  C20 non d ame     -34.800  15.116  26.979  0.00  0.00     0.013 C 
ATOM     48  H30 non d ame     -34.255  14.914  26.057  0.00  0.00     0.072 H 
BRANCH  47  49
ATOM     49  C21 non d ame     -34.569  16.546  27.413  0.00  0.00    -0.038 C 
ATOM     50  H31 non d ame     -35.000  17.166  26.625  0.00  0.00     0.036 H 
ATOM     51  H32 non d ame     -34.955  16.611  28.430  0.00  0.00     0.036 H 
BRANCH  49  52
ATOM     52  C22 non d ame     -33.072  16.916  27.488  0.00  0.00     0.018 C 
ATOM     53  H33 non d ame     -33.021  17.816  28.098  0.00  0.00     0.048 H 
ATOM     54  H34 non d ame     -32.561  16.008  27.813  0.00  0.00     0.048 H 
BRANCH  52  55
ATOM     55  C23 non d ame     -32.449  17.290  26.115  0.00  0.00     0.259 C 
ATOM     56  O7  non d ame     -32.952  18.122  25.431  0.00  0.00    -0.265 OA
BRANCH  55  57
ATOM     57  O8  non d ame     -31.276  16.616  25.675  0.00  0.00    -0.317 OA
BRANCH  57  58
ATOM     58  C29 non d ame     -31.535  15.415  24.943  0.00  0.00     0.052 C 
ATOM     59  H47 non d ame     -31.078  14.613  25.521  0.00  0.00     0.082 H 
ATOM     60  H48 non d ame     -32.609  15.409  24.756  0.00  0.00     0.082 H 
BRANCH  58  61
ATOM     61  C35 non d ame     -30.800  15.517  23.579  0.00  0.00    -0.034 A 
ATOM     62  C30 non d ame     -31.473  15.999  22.460  0.00  0.00    -0.075 A 
ATOM     63  C31 non d ame     -30.812  16.090  21.235  0.00  0.00    -0.082 A 
ATOM     64  H49 non d ame     -32.515  16.304  22.542  0.00  0.00     0.084 H 
ATOM     65  C32 non d ame     -29.476  15.694  21.131  0.00  0.00    -0.083 A 
ATOM     66  H50 non d ame     -31.342  16.469  20.360  0.00  0.00     0.083 H 
ATOM     67  C33 non d ame     -28.811  15.211  22.250  0.00  0.00    -0.082 A 
ATOM     68  H51 non d ame     -28.953  15.763  20.178  0.00  0.00     0.083 H 
ATOM     69  C34 non d ame     -29.466  15.120  23.476  0.00  0.00    -0.075 A 
ATOM     70  H52 non d ame     -27.769  14.901  22.165  0.00  0.00     0.083 H 
ATOM     71  H53 non d ame     -28.936  14.741  24.350  0.00  0.00     0.084 H 
ENDBRANCH  58  61
ENDBRANCH  57  58
ENDBRANCH  55  57
ENDBRANCH  52  55
ENDBRANCH  49  52
ENDBRANCH  47  49
BRANCH  47  72
ATOM     72  C24 non d ame     -36.294  14.879  26.776  0.00  0.00    -0.039 C 
ATOM     73  H35 non d ame     -36.639  14.397  27.692  0.00  0.00     0.036 H 
ATOM     74  H36 non d ame     -36.704  15.845  26.482  0.00  0.00     0.036 H 
BRANCH  72  75
ATOM     75  C25 non d ame     -36.575  13.860  25.572  0.00  0.00    -0.001 C 
ATOM     76  C26 non d ame     -37.711  14.486  24.563  0.00  0.00    -0.035 C 
ATOM     77  C27 non d ame     -38.682  13.561  24.371  0.00  0.00     0.085 C 
ATOM     78  H38 non d ame     -38.235  15.307  25.052  0.00  0.00     0.036 H 
ATOM     79  H39 non d ame     -37.291  14.624  23.566  0.00  0.00     0.036 H 
ATOM     80  N5  non d ame     -38.481  12.488  25.412  0.00  0.00    -0.049 N 
ATOM     81  H40 non d ame     -39.621  14.078  24.571  0.00  0.00     0.075 H 
ATOM     82  H41 non d ame     -38.492  13.139  23.384  0.00  0.00     0.075 H 
ATOM     83  C28 non d ame     -37.000  12.722  26.012  0.00  0.00     0.193 C 
ATOM     84  H42 non d ame     -39.155  12.666  26.142  0.00  0.00     0.280 HD
ATOM     85  H43 non d ame     -38.492  11.605  24.919  0.00  0.00     0.280 HD
ATOM     86  H44 non d ame     -36.174  12.075  25.718  0.00  0.00     0.129 H 
ATOM     87  H37 non d ame     -35.654  13.495  25.117  0.00  0.00     0.046 H 
BRANCH  83  88
ATOM     88  O6  non d ame     -37.033  12.674  27.439  0.00  0.00    -0.369 OA
ATOM     89  H45 non d ame     -37.439  11.852  27.723  0.00  0.00     0.212 HD
ENDBRANCH  83  88
ENDBRANCH  72  75
ENDBRANCH  47  72
ENDBRANCH  45  47
ENDBRANCH   1  43
BRANCH   1  90
ATOM     90  C16 non d ame     -31.525  11.757  28.483  0.00  0.00    -0.035 C 
ATOM     91  H21 non d ame     -31.341  10.730  28.797  0.00  0.00     0.037 H 
ATOM     92  H22 non d ame     -31.338  12.053  27.451  0.00  0.00     0.037 H 
BRANCH  90  93
ATOM     93  C17 non d ame     -30.610  12.659  29.373  0.00  0.00    -0.059 C 
ATOM     94  H23 non d ame     -29.626  12.194  29.414  0.00  0.00     0.038 H 
BRANCH  93  95
ATOM     95  C18 non d ame     -30.437  14.092  28.776  0.00  0.00    -0.073 C 
ATOM     96  H24 non d ame     -30.465  14.039  27.688  0.00  0.00     0.028 H 
ATOM     97  H25 non d ame     -31.246  14.732  29.129  0.00  0.00     0.028 H 
ATOM     98  H26 non d ame     -29.481  14.506  29.096  0.00  0.00     0.028 H 
ENDBRANCH  93  95
BRANCH  93  99
ATOM     99  C19 non d ame     -31.140  12.727  30.808  0.00  0.00    -0.073 C 
ATOM    100  H27 non d ame     -32.174  13.075  30.798  0.00  0.00     0.028 H 
ATOM    101  H28 non d ame     -31.097  11.736  31.259  0.00  0.00     0.028 H 
ATOM    102  H29 non d ame     -30.529  13.417  31.388  0.00  0.00     0.028 H 
ENDBRANCH  93  99
ENDBRANCH  90  93
ENDBRANCH   1  90
TORSDOF 26
ENDMDL
MODEL 13
REMARK VINA RESULT:      -6.6      2.925      8.974
REMARK  26 active torsions:
REMARK  status: ('A' for Active; 'I' for Inactive)
REMARK    1  A    between atoms: C2_2  and  C3_3 
REMARK    2  A    between atoms: C4_6  and  C5_7 
REMARK       I    between atoms: C5_7  and  N2_9 
REMARK    3  A    between atoms: N2_9  and  C6_10 
REMARK    4  A    between atoms: C6_10  and  C7_11 
REMARK    5  A    between atoms: C6_10  and  C8_13 
REMARK       I    between atoms: C7_11  and  N3_14 
REMARK    6  A    between atoms: N3_14  and  C9_15 
REMARK    7  A    between atoms: C9_15  and  C10_16 
REMARK    8  A    between atoms: C9_15  and  C11_18 
REMARK       I    between atoms: C10_16  and  N4_21 
REMARK    9  A    between atoms: C11_18  and  C12_19 
REMARK   10  A    between atoms: C11_18  and  C13_20 
REMARK   11  A    between atoms: N4_21  and  C14_22 
REMARK   12  A    between atoms: C14_22  and  C15_23 
REMARK   13  A    between atoms: C14_22  and  C16_25 
REMARK       I    between atoms: C15_23  and  N6_40 
REMARK   14  A    between atoms: C16_25  and  C17_26 
REMARK   15  A    between atoms: C17_26  and  C18_27 
REMARK   16  A    between atoms: C17_26  and  C19_28 
REMARK   17  A    between atoms: C20_29  and  C21_30 
REMARK   18  A    between atoms: C20_29  and  C24_33 
REMARK   19  A    between atoms: C20_29  and  N6_40 
REMARK   20  A    between atoms: C21_30  and  C22_31 
REMARK   21  A    between atoms: C22_31  and  C23_32 
REMARK   22  A    between atoms: C23_32  and  O8_43 
REMARK   23  A    between atoms: C24_33  and  C25_34 
REMARK   24  A    between atoms: C28_38  and  O6_39 
REMARK   25  A    between atoms: C29_42  and  O8_43 
REMARK   26  A    between atoms: C29_42  and  C35_49 
ROOT
ATOM      1  C14 non d ame     -33.851   7.035  27.730  0.00  0.00     0.089 C 
ATOM      2  H20 non d ame     -33.419   6.622  28.641  0.00  0.00     0.087 H 
ENDROOT
BRANCH   1   3
ATOM      3  N4  non d ame     -34.259   8.402  28.020  0.00  0.00    -0.346 N 
ATOM      4  C10 non d ame     -34.745   8.776  29.397  0.00  0.00     0.241 C 
ATOM      5  O4  non d ame     -34.804   7.959  30.256  0.00  0.00    -0.271 OA
ATOM      6  H19 non d ame     -34.204   9.082  27.275  0.00  0.00     0.163 HD
BRANCH   4   7
ATOM      7  C9  non d ame     -35.157  10.196  29.681  0.00  0.00     0.092 C 
ATOM      8  H11 non d ame     -35.315  10.317  30.753  0.00  0.00     0.088 H 
BRANCH   7   9
ATOM      9  N3  non d ame     -34.075  11.106  29.296  0.00  0.00    -0.346 N 
ATOM     10  C7  non d ame     -33.005  11.385  30.223  0.00  0.00     0.240 C 
ATOM     11  O3  non d ame     -33.001  10.888  31.282  0.00  0.00    -0.271 OA
ATOM     12  H10 non d ame     -34.065  11.544  28.387  0.00  0.00     0.163 HD
BRANCH  10  13
ATOM     13  C6  non d ame     -31.856  12.357  29.809  0.00  0.00     0.086 C 
ATOM     14  H6  non d ame     -31.313  12.017  28.927  0.00  0.00     0.086 H 
BRANCH  13  15
ATOM     15  N2  non d ame     -32.431  13.648  29.470  0.00  0.00    -0.343 N 
ATOM     16  C5  non d ame     -31.747  14.511  28.504  0.00  0.00     0.273 C 
ATOM     17  O2  non d ame     -30.734  14.158  28.007  0.00  0.00    -0.266 OA
ATOM     18  H5  non d ame     -33.295  13.944  29.902  0.00  0.00     0.163 HD
BRANCH  16  19
ATOM     19  C4  non d ame     -32.344  15.878  28.135  0.00  0.00     0.154 A 
ATOM     20  C1  non d ame     -32.529  16.415  26.822  0.00  0.00    -0.017 A 
ATOM     21  C2  non d ame     -33.108  17.688  27.027  0.00  0.00     0.077 A 
ATOM     22  H1  non d ame     -32.280  15.954  25.866  0.00  0.00     0.091 H 
ATOM     23  O1  non d ame     -33.239  17.850  28.312  0.00  0.00    -0.218 OA
ATOM     24  N1  non d ame     -32.800  16.808  28.979  0.00  0.00    -0.123 NA
BRANCH  21  25
ATOM     25  C3  non d ame     -33.507  18.682  25.946  0.00  0.00    -0.029 C 
ATOM     26  H2  non d ame     -32.822  18.596  25.102  0.00  0.00     0.036 H 
ATOM     27  H3  non d ame     -34.522  18.467  25.611  0.00  0.00     0.036 H 
ATOM     28  H4  non d ame     -33.463  19.693  26.347  0.00  0.00     0.036 H 
ENDBRANCH  21  25
ENDBRANCH  16  19
ENDBRANCH  13  15
BRANCH  13  29
ATOM     29  C8  non d ame     -30.886  12.508  30.953  0.00  0.00    -0.049 C 
ATOM     30  H7  non d ame     -30.831  11.573  31.509  0.00  0.00     0.030 H 
ATOM     31  H8  non d ame     -29.899  12.756  30.561  0.00  0.00     0.030 H 
ATOM     32  H9  non d ame     -31.224  13.306  31.614  0.00  0.00     0.030 H 
ENDBRANCH  13  29
ENDBRANCH  10  13
ENDBRANCH   7   9
BRANCH   7  33
ATOM     33  C11 non d ame     -36.435  10.539  28.860  0.00  0.00    -0.033 C 
ATOM     34  H12 non d ame     -36.980  11.309  29.407  0.00  0.00     0.042 H 
BRANCH  33  35
ATOM     35  C12 non d ame     -36.073  11.125  27.460  0.00  0.00    -0.071 C 
ATOM     36  H13 non d ame     -36.986  11.294  26.890  0.00  0.00     0.028 H 
ATOM     37  H14 non d ame     -35.544  12.069  27.588  0.00  0.00     0.028 H 
ATOM     38  H15 non d ame     -35.436  10.420  26.925  0.00  0.00     0.028 H 
ENDBRANCH  33  35
BRANCH  33  39
ATOM     39  C13 non d ame     -37.366   9.291  28.729  0.00  0.00    -0.071 C 
ATOM     40  H16 non d ame     -36.936   8.590  28.013  0.00  0.00     0.028 H 
ATOM     41  H17 non d ame     -37.463   8.805  29.700  0.00  0.00     0.028 H 
ATOM     42  H18 non d ame     -38.350   9.606  28.383  0.00  0.00     0.028 H 
ENDBRANCH  33  39
ENDBRANCH   7  33
ENDBRANCH   4   7
ENDBRANCH   1   3
BRANCH   1  43
ATOM     43  C15 non d ame     -32.832   7.061  26.555  0.00  0.00     0.240 C 
ATOM     44  O5  non d ame     -31.870   6.365  26.593  0.00  0.00    -0.271 OA
ATOM     45  N6  non d ame     -33.062   7.945  25.377  0.00  0.00    -0.355 N 
ATOM     46  H46 non d ame     -33.880   8.537  25.332  0.00  0.00     0.162 HD
BRANCH  45  47
ATOM     47  C20 non d ame     -32.085   7.957  24.267  0.00  0.00     0.013 C 
ATOM     48  H30 non d ame     -31.141   7.566  24.647  0.00  0.00     0.072 H 
BRANCH  47  49
ATOM     49  C21 non d ame     -31.899   9.376  23.780  0.00  0.00    -0.038 C 
ATOM     50  H31 non d ame     -30.822   9.554  23.795  0.00  0.00     0.036 H 
ATOM     51  H32 non d ame     -32.448   9.440  22.842  0.00  0.00     0.036 H 
BRANCH  49  52
ATOM     52  C22 non d ame     -32.526  10.422  24.727  0.00  0.00     0.018 C 
ATOM     53  H33 non d ame     -32.990  11.165  24.080  0.00  0.00     0.048 H 
ATOM     54  H34 non d ame     -33.137   9.854  25.430  0.00  0.00     0.048 H 
BRANCH  52  55
ATOM     55  C23 non d ame     -31.487  11.191  25.587  0.00  0.00     0.259 C 
ATOM     56  O7  non d ame     -31.292  10.883  26.718  0.00  0.00    -0.265 OA
BRANCH  55  57
ATOM     57  O8  non d ame     -30.777  12.283  25.013  0.00  0.00    -0.317 OA
BRANCH  57  58
ATOM     58  C29 non d ame     -31.585  13.439  24.772  0.00  0.00     0.052 C 
ATOM     59  H47 non d ame     -32.584  13.060  24.554  0.00  0.00     0.082 H 
ATOM     60  H48 non d ame     -31.425  14.095  25.627  0.00  0.00     0.082 H 
BRANCH  58  61
ATOM     61  C35 non d ame     -31.042  14.147  23.502  0.00  0.00    -0.034 A 
ATOM     62  C30 non d ame     -30.065  13.532  22.726  0.00  0.00    -0.075 A 
ATOM     63  C31 non d ame     -29.576  14.168  21.585  0.00  0.00    -0.082 A 
ATOM     64  H49 non d ame     -29.681  12.553  23.011  0.00  0.00     0.084 H 
ATOM     65  C32 non d ame     -30.067  15.426  21.223  0.00  0.00    -0.083 A 
ATOM     66  H50 non d ame     -28.811  13.683  20.978  0.00  0.00     0.083 H 
ATOM     67  C33 non d ame     -31.040  16.037  22.002  0.00  0.00    -0.082 A 
ATOM     68  H51 non d ame     -29.691  15.929  20.332  0.00  0.00     0.083 H 
ATOM     69  C34 non d ame     -31.532  15.404  23.142  0.00  0.00    -0.075 A 
ATOM     70  H52 non d ame     -31.420  17.019  21.718  0.00  0.00     0.083 H 
ATOM     71  H53 non d ame     -32.297  15.890  23.747  0.00  0.00     0.084 H 
ENDBRANCH  58  61
ENDBRANCH  57  58
ENDBRANCH  55  57
ENDBRANCH  52  55
ENDBRANCH  49  52
ENDBRANCH  47  49
BRANCH  47  72
ATOM     72  C24 non d ame     -32.595   7.087  23.120  0.00  0.00    -0.039 C 
ATOM     73  H35 non d ame     -31.809   6.352  22.942  0.00  0.00     0.036 H 
ATOM     74  H36 non d ame     -33.588   6.758  23.425  0.00  0.00     0.036 H 
BRANCH  72  75
ATOM     75  C25 non d ame     -32.770   7.929  21.769  0.00  0.00    -0.001 C 
ATOM     76  C26 non d ame     -34.367   8.173  21.465  0.00  0.00    -0.035 C 
ATOM     77  C27 non d ame     -34.632   7.793  20.192  0.00  0.00     0.085 C 
ATOM     78  H38 non d ame     -34.971   7.492  22.065  0.00  0.00     0.036 H 
ATOM     79  H39 non d ame     -34.589   9.240  21.463  0.00  0.00     0.036 H 
ATOM     80  N5  non d ame     -33.437   7.008  19.708  0.00  0.00    -0.049 N 
ATOM     81  H40 non d ame     -35.492   7.125  20.260  0.00  0.00     0.075 H 
ATOM     82  H41 non d ame     -34.705   8.717  19.620  0.00  0.00     0.075 H 
ATOM     83  C28 non d ame     -32.251   7.310  20.761  0.00  0.00     0.193 C 
ATOM     84  H42 non d ame     -33.687   6.032  19.777  0.00  0.00     0.280 HD
ATOM     85  H43 non d ame     -33.180   7.401  18.813  0.00  0.00     0.280 HD
ATOM     86  H44 non d ame     -31.443   7.993  20.504  0.00  0.00     0.129 H 
ATOM     87  H37 non d ame     -32.121   8.804  21.740  0.00  0.00     0.046 H 
BRANCH  83  88
ATOM     88  O6  non d ame     -31.613   6.091  21.148  0.00  0.00    -0.369 OA
ATOM     89  H45 non d ame     -31.576   6.039  22.105  0.00  0.00     0.212 HD
ENDBRANCH  83  88
ENDBRANCH  72  75
ENDBRANCH  47  72
ENDBRANCH  45  47
ENDBRANCH   1  43
BRANCH   1  90
ATOM     90  C16 non d ame     -35.075   6.227  27.328  0.00  0.00    -0.035 C 
ATOM     91  H21 non d ame     -35.916   6.915  27.413  0.00  0.00     0.037 H 
ATOM     92  H22 non d ame     -34.826   5.788  26.362  0.00  0.00     0.037 H 
BRANCH  90  93
ATOM     93  C17 non d ame     -35.383   5.036  28.289  0.00  0.00    -0.059 C 
ATOM     94  H23 non d ame     -35.544   4.149  27.677  0.00  0.00     0.038 H 
BRANCH  93  95
ATOM     95  C18 non d ame     -34.194   4.738  29.258  0.00  0.00    -0.073 C 
ATOM     96  H24 non d ame     -34.487   4.980  30.279  0.00  0.00     0.028 H 
ATOM     97  H25 non d ame     -33.932   3.681  29.197  0.00  0.00     0.028 H 
ATOM     98  H26 non d ame     -33.333   5.342  28.973  0.00  0.00     0.028 H 
ENDBRANCH  93  95
BRANCH  93  99
ATOM     99  C19 non d ame     -36.673   5.286  29.074  0.00  0.00    -0.073 C 
ATOM    100  H27 non d ame     -36.548   4.940  30.101  0.00  0.00     0.028 H 
ATOM    101  H28 non d ame     -36.896   6.353  29.077  0.00  0.00     0.028 H 
ATOM    102  H29 non d ame     -37.495   4.745  28.605  0.00  0.00     0.028 H 
ENDBRANCH  93  99
ENDBRANCH  90  93
ENDBRANCH   1  90
TORSDOF 26
ENDMDL
MODEL 14
REMARK VINA RESULT:      -6.6      3.090      7.668
REMARK  26 active torsions:
REMARK  status: ('A' for Active; 'I' for Inactive)
REMARK    1  A    between atoms: C2_2  and  C3_3 
REMARK    2  A    between atoms: C4_6  and  C5_7 
REMARK       I    between atoms: C5_7  and  N2_9 
REMARK    3  A    between atoms: N2_9  and  C6_10 
REMARK    4  A    between atoms: C6_10  and  C7_11 
REMARK    5  A    between atoms: C6_10  and  C8_13 
REMARK       I    between atoms: C7_11  and  N3_14 
REMARK    6  A    between atoms: N3_14  and  C9_15 
REMARK    7  A    between atoms: C9_15  and  C10_16 
REMARK    8  A    between atoms: C9_15  and  C11_18 
REMARK       I    between atoms: C10_16  and  N4_21 
REMARK    9  A    between atoms: C11_18  and  C12_19 
REMARK   10  A    between atoms: C11_18  and  C13_20 
REMARK   11  A    between atoms: N4_21  and  C14_22 
REMARK   12  A    between atoms: C14_22  and  C15_23 
REMARK   13  A    between atoms: C14_22  and  C16_25 
REMARK       I    between atoms: C15_23  and  N6_40 
REMARK   14  A    between atoms: C16_25  and  C17_26 
REMARK   15  A    between atoms: C17_26  and  C18_27 
REMARK   16  A    between atoms: C17_26  and  C19_28 
REMARK   17  A    between atoms: C20_29  and  C21_30 
REMARK   18  A    between atoms: C20_29  and  C24_33 
REMARK   19  A    between atoms: C20_29  and  N6_40 
REMARK   20  A    between atoms: C21_30  and  C22_31 
REMARK   21  A    between atoms: C22_31  and  C23_32 
REMARK   22  A    between atoms: C23_32  and  O8_43 
REMARK   23  A    between atoms: C24_33  and  C25_34 
REMARK   24  A    between atoms: C28_38  and  O6_39 
REMARK   25  A    between atoms: C29_42  and  O8_43 
REMARK   26  A    between atoms: C29_42  and  C35_49 
ROOT
ATOM      1  C14 non d ame     -33.093  10.084  29.648  0.00  0.00     0.089 C 
ATOM      2  H20 non d ame     -32.215   9.468  29.450  0.00  0.00     0.087 H 
ENDROOT
BRANCH   1   3
ATOM      3  N4  non d ame     -33.565  10.596  28.370  0.00  0.00    -0.346 N 
ATOM      4  C10 non d ame     -32.988  10.071  27.079  0.00  0.00     0.241 C 
ATOM      5  O4  non d ame     -32.142   9.240  27.094  0.00  0.00    -0.271 OA
ATOM      6  H19 non d ame     -34.284  11.305  28.379  0.00  0.00     0.163 HD
BRANCH   4   7
ATOM      7  C9  non d ame     -33.493  10.609  25.766  0.00  0.00     0.092 C 
ATOM      8  H11 non d ame     -34.581  10.672  25.799  0.00  0.00     0.088 H 
BRANCH   7   9
ATOM      9  N3  non d ame     -32.985  11.968  25.565  0.00  0.00    -0.346 N 
ATOM     10  C7  non d ame     -33.709  13.095  26.100  0.00  0.00     0.240 C 
ATOM     11  O3  non d ame     -34.704  12.925  26.693  0.00  0.00    -0.271 OA
ATOM     12  H10 non d ame     -32.129  12.131  25.055  0.00  0.00     0.163 HD
BRANCH  10  13
ATOM     13  C6  non d ame     -33.165  14.541  25.881  0.00  0.00     0.086 C 
ATOM     14  H6  non d ame     -32.398  14.816  26.605  0.00  0.00     0.086 H 
BRANCH  13  15
ATOM     15  N2  non d ame     -32.544  14.616  24.569  0.00  0.00    -0.343 N 
ATOM     16  C5  non d ame     -31.398  15.505  24.363  0.00  0.00     0.273 C 
ATOM     17  O2  non d ame     -30.985  16.156  25.259  0.00  0.00    -0.266 OA
ATOM     18  H5  non d ame     -32.906  14.059  23.808  0.00  0.00     0.163 HD
BRANCH  16  19
ATOM     19  C4  non d ame     -30.731  15.593  22.982  0.00  0.00     0.154 A 
ATOM     20  C1  non d ame     -31.382  15.725  21.714  0.00  0.00    -0.017 A 
ATOM     21  C2  non d ame     -30.333  15.762  20.768  0.00  0.00     0.077 A 
ATOM     22  H1  non d ame     -32.451  15.783  21.511  0.00  0.00     0.091 H 
ATOM     23  O1  non d ame     -29.215  15.665  21.427  0.00  0.00    -0.218 OA
ATOM     24  N1  non d ame     -29.422  15.565  22.720  0.00  0.00    -0.123 NA
BRANCH  21  25
ATOM     25  C3  non d ame     -30.484  15.893  19.259  0.00  0.00    -0.029 C 
ATOM     26  H2  non d ame     -29.542  16.233  18.827  0.00  0.00     0.036 H 
ATOM     27  H3  non d ame     -30.748  14.924  18.835  0.00  0.00     0.036 H 
ATOM     28  H4  non d ame     -31.268  16.614  19.033  0.00  0.00     0.036 H 
ENDBRANCH  21  25
ENDBRANCH  16  19
ENDBRANCH  13  15
BRANCH  13  29
ATOM     29  C8  non d ame     -34.301  15.528  25.973  0.00  0.00    -0.049 C 
ATOM     30  H7  non d ame     -34.833  15.558  25.023  0.00  0.00     0.030 H 
ATOM     31  H8  non d ame     -34.986  15.220  26.763  0.00  0.00     0.030 H 
ATOM     32  H9  non d ame     -33.905  16.518  26.200  0.00  0.00     0.030 H 
ENDBRANCH  13  29
ENDBRANCH  10  13
ENDBRANCH   7   9
BRANCH   7  33
ATOM     33  C11 non d ame     -32.996   9.696  24.607  0.00  0.00    -0.033 C 
ATOM     34  H12 non d ame     -32.605   8.781  25.054  0.00  0.00     0.042 H 
BRANCH  33  35
ATOM     35  C12 non d ame     -34.168   9.290  23.659  0.00  0.00    -0.071 C 
ATOM     36  H13 non d ame     -33.764   8.954  22.705  0.00  0.00     0.028 H 
ATOM     37  H14 non d ame     -34.741   8.483  24.115  0.00  0.00     0.028 H 
ATOM     38  H15 non d ame     -34.818  10.150  23.496  0.00  0.00     0.028 H 
ENDBRANCH  33  35
BRANCH  33  39
ATOM     39  C13 non d ame     -31.837  10.379  23.813  0.00  0.00    -0.071 C 
ATOM     40  H16 non d ame     -32.030  10.296  22.743  0.00  0.00     0.028 H 
ATOM     41  H17 non d ame     -31.777  11.432  24.091  0.00  0.00     0.028 H 
ATOM     42  H18 non d ame     -30.894   9.888  24.052  0.00  0.00     0.028 H 
ENDBRANCH  33  39
ENDBRANCH   7  33
ENDBRANCH   4   7
ENDBRANCH   1   3
BRANCH   1  43
ATOM     43  C15 non d ame     -34.242   9.273  30.312  0.00  0.00     0.240 C 
ATOM     44  O5  non d ame     -34.358   9.273  31.494  0.00  0.00    -0.271 OA
ATOM     45  N6  non d ame     -35.203   8.503  29.472  0.00  0.00    -0.355 N 
ATOM     46  H46 non d ame     -35.117   8.500  28.466  0.00  0.00     0.162 HD
BRANCH  45  47
ATOM     47  C20 non d ame     -36.292   7.738  30.118  0.00  0.00     0.013 C 
ATOM     48  H30 non d ame     -36.060   7.656  31.180  0.00  0.00     0.072 H 
BRANCH  47  49
ATOM     49  C21 non d ame     -36.371   6.361  29.499  0.00  0.00    -0.038 C 
ATOM     50  H31 non d ame     -37.366   5.985  29.742  0.00  0.00     0.036 H 
ATOM     51  H32 non d ame     -36.076   6.489  28.458  0.00  0.00     0.036 H 
BRANCH  49  52
ATOM     52  C22 non d ame     -35.365   5.366  30.118  0.00  0.00     0.018 C 
ATOM     53  H33 non d ame     -34.976   5.857  31.009  0.00  0.00     0.048 H 
ATOM     54  H34 non d ame     -35.903   4.421  30.208  0.00  0.00     0.048 H 
BRANCH  52  55
ATOM     55  C23 non d ame     -34.135   5.075  29.215  0.00  0.00     0.259 C 
ATOM     56  O7  non d ame     -33.345   4.243  29.523  0.00  0.00    -0.265 OA
BRANCH  55  57
ATOM     57  O8  non d ame     -33.954   5.826  28.020  0.00  0.00    -0.317 OA
BRANCH  57  58
ATOM     58  C29 non d ame     -32.626   5.764  27.491  0.00  0.00     0.052 C 
ATOM     59  H47 non d ame     -32.155   6.707  27.766  0.00  0.00     0.082 H 
ATOM     60  H48 non d ame     -32.210   4.822  27.846  0.00  0.00     0.082 H 
BRANCH  58  61
ATOM     61  C35 non d ame     -32.731   5.701  25.943  0.00  0.00    -0.034 A 
ATOM     62  C30 non d ame     -33.807   5.054  25.343  0.00  0.00    -0.075 A 
ATOM     63  C31 non d ame     -33.900   4.997  23.953  0.00  0.00    -0.082 A 
ATOM     64  H49 non d ame     -34.576   4.591  25.961  0.00  0.00     0.084 H 
ATOM     65  C32 non d ame     -32.911   5.588  23.162  0.00  0.00    -0.083 A 
ATOM     66  H50 non d ame     -34.745   4.490  23.486  0.00  0.00     0.083 H 
ATOM     67  C33 non d ame     -31.838   6.230  23.765  0.00  0.00    -0.082 A 
ATOM     68  H51 non d ame     -32.977   5.549  22.075  0.00  0.00     0.083 H 
ATOM     69  C34 non d ame     -31.741   6.291  25.154  0.00  0.00    -0.075 A 
ATOM     70  H52 non d ame     -31.066   6.688  23.146  0.00  0.00     0.083 H 
ATOM     71  H53 non d ame     -30.896   6.798  25.620  0.00  0.00     0.084 H 
ENDBRANCH  58  61
ENDBRANCH  57  58
ENDBRANCH  55  57
ENDBRANCH  52  55
ENDBRANCH  49  52
ENDBRANCH  47  49
BRANCH  47  72
ATOM     72  C24 non d ame     -37.622   8.463  29.921  0.00  0.00    -0.039 C 
ATOM     73  H35 non d ame     -37.445   9.175  29.113  0.00  0.00     0.036 H 
ATOM     74  H36 non d ame     -38.366   7.676  29.800  0.00  0.00     0.036 H 
BRANCH  72  75
ATOM     75  C25 non d ame     -38.034   9.309  31.217  0.00  0.00    -0.001 C 
ATOM     76  C26 non d ame     -39.624   9.072  31.557  0.00  0.00    -0.035 C 
ATOM     77  C27 non d ame     -40.226  10.277  31.694  0.00  0.00     0.085 C 
ATOM     78  H38 non d ame     -40.129   8.631  30.698  0.00  0.00     0.036 H 
ATOM     79  H39 non d ame     -39.732   8.620  32.544  0.00  0.00     0.036 H 
ATOM     80  N5  non d ame     -39.269  11.312  31.156  0.00  0.00    -0.049 N 
ATOM     81  H40 non d ame     -41.106  10.239  31.050  0.00  0.00     0.075 H 
ATOM     82  H41 non d ame     -40.342  10.425  32.767  0.00  0.00     0.075 H 
ATOM     83  C28 non d ame     -37.839  10.573  31.032  0.00  0.00     0.193 C 
ATOM     84  H42 non d ame     -39.591  11.547  30.228  0.00  0.00     0.280 HD
ATOM     85  H43 non d ame     -39.199  12.032  31.862  0.00  0.00     0.280 HD
ATOM     86  H44 non d ame     -37.053  10.761  31.762  0.00  0.00     0.129 H 
ATOM     87  H37 non d ame     -37.326   9.181  32.036  0.00  0.00     0.046 H 
BRANCH  83  88
ATOM     88  O6  non d ame     -37.251  10.847  29.759  0.00  0.00    -0.369 OA
ATOM     89  H45 non d ame     -36.650  11.591  29.837  0.00  0.00     0.212 HD
ENDBRANCH  83  88
ENDBRANCH  72  75
ENDBRANCH  47  72
ENDBRANCH  45  47
ENDBRANCH   1  43
BRANCH   1  90
ATOM     90  C16 non d ame     -32.711  11.254  30.540  0.00  0.00    -0.035 C 
ATOM     91  H21 non d ame     -33.620  11.845  30.647  0.00  0.00     0.037 H 
ATOM     92  H22 non d ame     -32.247  10.807  31.419  0.00  0.00     0.037 H 
BRANCH  90  93
ATOM     93  C17 non d ame     -31.642  12.201  29.909  0.00  0.00    -0.059 C 
ATOM     94  H23 non d ame     -31.368  11.791  28.937  0.00  0.00     0.038 H 
BRANCH  93  95
ATOM     95  C18 non d ame     -32.196  13.644  29.679  0.00  0.00    -0.073 C 
ATOM     96  H24 non d ame     -31.365  14.332  29.522  0.00  0.00     0.028 H 
ATOM     97  H25 non d ame     -32.841  13.649  28.800  0.00  0.00     0.028 H 
ATOM     98  H26 non d ame     -32.768  13.958  30.551  0.00  0.00     0.028 H 
ENDBRANCH  93  95
BRANCH  93  99
ATOM     99  C19 non d ame     -30.371  12.236  30.762  0.00  0.00    -0.073 C 
ATOM    100  H27 non d ame     -30.208  13.250  31.131  0.00  0.00     0.028 H 
ATOM    101  H28 non d ame     -30.481  11.557  31.607  0.00  0.00     0.028 H 
ATOM    102  H29 non d ame     -29.519  11.927  30.157  0.00  0.00     0.028 H 
ENDBRANCH  93  99
ENDBRANCH  90  93
ENDBRANCH   1  90
TORSDOF 26
ENDMDL
MODEL 15
REMARK VINA RESULT:      -6.6      3.283      7.350
REMARK  26 active torsions:
REMARK  status: ('A' for Active; 'I' for Inactive)
REMARK    1  A    between atoms: C2_2  and  C3_3 
REMARK    2  A    between atoms: C4_6  and  C5_7 
REMARK       I    between atoms: C5_7  and  N2_9 
REMARK    3  A    between atoms: N2_9  and  C6_10 
REMARK    4  A    between atoms: C6_10  and  C7_11 
REMARK    5  A    between atoms: C6_10  and  C8_13 
REMARK       I    between atoms: C7_11  and  N3_14 
REMARK    6  A    between atoms: N3_14  and  C9_15 
REMARK    7  A    between atoms: C9_15  and  C10_16 
REMARK    8  A    between atoms: C9_15  and  C11_18 
REMARK       I    between atoms: C10_16  and  N4_21 
REMARK    9  A    between atoms: C11_18  and  C12_19 
REMARK   10  A    between atoms: C11_18  and  C13_20 
REMARK   11  A    between atoms: N4_21  and  C14_22 
REMARK   12  A    between atoms: C14_22  and  C15_23 
REMARK   13  A    between atoms: C14_22  and  C16_25 
REMARK       I    between atoms: C15_23  and  N6_40 
REMARK   14  A    between atoms: C16_25  and  C17_26 
REMARK   15  A    between atoms: C17_26  and  C18_27 
REMARK   16  A    between atoms: C17_26  and  C19_28 
REMARK   17  A    between atoms: C20_29  and  C21_30 
REMARK   18  A    between atoms: C20_29  and  C24_33 
REMARK   19  A    between atoms: C20_29  and  N6_40 
REMARK   20  A    between atoms: C21_30  and  C22_31 
REMARK   21  A    between atoms: C22_31  and  C23_32 
REMARK   22  A    between atoms: C23_32  and  O8_43 
REMARK   23  A    between atoms: C24_33  and  C25_34 
REMARK   24  A    between atoms: C28_38  and  O6_39 
REMARK   25  A    between atoms: C29_42  and  O8_43 
REMARK   26  A    between atoms: C29_42  and  C35_49 
ROOT
ATOM      1  C14 non d ame     -32.539  10.397  26.542  0.00  0.00     0.089 C 
ATOM      2  H20 non d ame     -33.563  10.512  26.186  0.00  0.00     0.087 H 
ENDROOT
BRANCH   1   3
ATOM      3  N4  non d ame     -31.938   9.302  25.795  0.00  0.00    -0.346 N 
ATOM      4  C10 non d ame     -32.331   9.051  24.360  0.00  0.00     0.241 C 
ATOM      5  O4  non d ame     -33.136   9.742  23.830  0.00  0.00    -0.271 OA
ATOM      6  H19 non d ame     -31.256   8.724  26.266  0.00  0.00     0.163 HD
BRANCH   4   7
ATOM      7  C9  non d ame     -31.694   7.917  23.601  0.00  0.00     0.092 C 
ATOM      8  H11 non d ame     -30.733   7.676  24.057  0.00  0.00     0.088 H 
BRANCH   7   9
ATOM      9  N3  non d ame     -32.536   6.723  23.708  0.00  0.00    -0.346 N 
ATOM     10  C7  non d ame     -32.410   5.851  24.849  0.00  0.00     0.240 C 
ATOM     11  O3  non d ame     -31.634   6.094  25.691  0.00  0.00    -0.271 OA
ATOM     12  H10 non d ame     -33.209   6.499  22.989  0.00  0.00     0.163 HD
BRANCH  10  13
ATOM     13  C6  non d ame     -33.307   4.579  24.955  0.00  0.00     0.086 C 
ATOM     14  H6  non d ame     -32.797   3.741  25.430  0.00  0.00     0.086 H 
BRANCH  13  15
ATOM     15  N2  non d ame     -34.462   4.885  25.785  0.00  0.00    -0.343 N 
ATOM     16  C5  non d ame     -34.480   4.450  27.183  0.00  0.00     0.273 C 
ATOM     17  O2  non d ame     -33.564   3.853  27.631  0.00  0.00    -0.266 OA
ATOM     18  H5  non d ame     -35.242   5.392  25.393  0.00  0.00     0.163 HD
BRANCH  16  19
ATOM     19  C4  non d ame     -35.693   4.768  28.071  0.00  0.00     0.154 A 
ATOM     20  C1  non d ame     -35.715   5.588  29.244  0.00  0.00    -0.017 A 
ATOM     21  C2  non d ame     -37.058   5.558  29.684  0.00  0.00     0.077 A 
ATOM     22  H1  non d ame     -34.885   6.122  29.706  0.00  0.00     0.091 H 
ATOM     23  O1  non d ame     -37.721   4.808  28.852  0.00  0.00    -0.218 OA
ATOM     24  N1  non d ame     -36.945   4.335  27.904  0.00  0.00    -0.123 NA
BRANCH  21  25
ATOM     25  C3  non d ame     -37.623   6.272  30.904  0.00  0.00    -0.029 C 
ATOM     26  H2  non d ame     -36.829   6.430  31.634  0.00  0.00     0.036 H 
ATOM     27  H3  non d ame     -38.034   7.236  30.602  0.00  0.00     0.036 H 
ATOM     28  H4  non d ame     -38.410   5.665  31.349  0.00  0.00     0.036 H 
ENDBRANCH  21  25
ENDBRANCH  16  19
ENDBRANCH  13  15
BRANCH  13  29
ATOM     29  C8  non d ame     -33.757   4.161  23.578  0.00  0.00    -0.049 C 
ATOM     30  H7  non d ame     -33.237   4.758  22.829  0.00  0.00     0.030 H 
ATOM     31  H8  non d ame     -33.527   3.106  23.426  0.00  0.00     0.030 H 
ATOM     32  H9  non d ame     -34.832   4.315  23.484  0.00  0.00     0.030 H 
ENDBRANCH  13  29
ENDBRANCH  10  13
ENDBRANCH   7   9
BRANCH   7  33
ATOM     33  C11 non d ame     -31.547   8.314  22.104  0.00  0.00    -0.033 C 
ATOM     34  H12 non d ame     -32.173   9.190  21.933  0.00  0.00     0.042 H 
BRANCH  33  35
ATOM     35  C12 non d ame     -30.078   8.714  21.762  0.00  0.00    -0.071 C 
ATOM     36  H13 non d ame     -29.425   7.852  21.900  0.00  0.00     0.028 H 
ATOM     37  H14 non d ame     -30.024   9.048  20.726  0.00  0.00     0.028 H 
ATOM     38  H15 non d ame     -29.757   9.521  22.421  0.00  0.00     0.028 H 
ENDBRANCH  33  35
BRANCH  33  39
ATOM     39  C13 non d ame     -32.054   7.169  21.169  0.00  0.00    -0.071 C 
ATOM     40  H16 non d ame     -32.136   7.542  20.148  0.00  0.00     0.028 H 
ATOM     41  H17 non d ame     -31.349   6.337  21.197  0.00  0.00     0.028 H 
ATOM     42  H18 non d ame     -33.031   6.827  21.511  0.00  0.00     0.028 H 
ENDBRANCH  33  39
ENDBRANCH   7  33
ENDBRANCH   4   7
ENDBRANCH   1   3
BRANCH   1  43
ATOM     43  C15 non d ame     -31.689  11.678  26.313  0.00  0.00     0.240 C 
ATOM     44  O5  non d ame     -30.881  12.004  27.121  0.00  0.00    -0.271 OA
ATOM     45  N6  non d ame     -31.874  12.495  25.080  0.00  0.00    -0.355 N 
ATOM     46  H46 non d ame     -32.553  12.225  24.383  0.00  0.00     0.162 HD
BRANCH  45  47
ATOM     47  C20 non d ame     -31.056  13.711  24.875  0.00  0.00     0.013 C 
ATOM     48  H30 non d ame     -30.214  13.669  25.566  0.00  0.00     0.072 H 
BRANCH  47  49
ATOM     49  C21 non d ame     -31.898  14.934  25.161  0.00  0.00    -0.038 C 
ATOM     50  H31 non d ame     -31.375  15.769  24.692  0.00  0.00     0.036 H 
ATOM     51  H32 non d ame     -32.908  14.676  24.843  0.00  0.00     0.036 H 
BRANCH  49  52
ATOM     52  C22 non d ame     -31.984  15.264  26.667  0.00  0.00     0.018 C 
ATOM     53  H33 non d ame     -31.252  14.620  27.152  0.00  0.00     0.048 H 
ATOM     54  H34 non d ame     -31.888  16.348  26.737  0.00  0.00     0.048 H 
BRANCH  52  55
ATOM     55  C23 non d ame     -33.356  14.914  27.307  0.00  0.00     0.259 C 
ATOM     56  O7  non d ame     -34.013  14.022  26.878  0.00  0.00    -0.265 OA
BRANCH  55  57
ATOM     57  O8  non d ame     -33.827  15.682  28.408  0.00  0.00    -0.317 OA
BRANCH  57  58
ATOM     58  C29 non d ame     -34.834  16.638  28.061  0.00  0.00     0.052 C 
ATOM     59  H47 non d ame     -35.463  16.147  27.320  0.00  0.00     0.082 H 
ATOM     60  H48 non d ame     -35.262  16.972  29.006  0.00  0.00     0.082 H 
BRANCH  58  61
ATOM     61  C35 non d ame     -34.133  17.848  27.386  0.00  0.00    -0.034 A 
ATOM     62  C30 non d ame     -33.127  18.534  28.058  0.00  0.00    -0.075 A 
ATOM     63  C31 non d ame     -32.498  19.621  27.452  0.00  0.00    -0.082 A 
ATOM     64  H49 non d ame     -32.831  18.221  29.060  0.00  0.00     0.084 H 
ATOM     65  C32 non d ame     -32.881  20.022  26.169  0.00  0.00    -0.083 A 
ATOM     66  H50 non d ame     -31.709  20.156  27.981  0.00  0.00     0.083 H 
ATOM     67  C33 non d ame     -33.888  19.337  25.504  0.00  0.00    -0.082 A 
ATOM     68  H51 non d ame     -32.394  20.870  25.688  0.00  0.00     0.083 H 
ATOM     69  C34 non d ame     -34.518  18.249  26.105  0.00  0.00    -0.075 A 
ATOM     70  H52 non d ame     -34.186  19.653  24.504  0.00  0.00     0.083 H 
ATOM     71  H53 non d ame     -35.307  17.715  25.575  0.00  0.00     0.084 H 
ENDBRANCH  58  61
ENDBRANCH  57  58
ENDBRANCH  55  57
ENDBRANCH  52  55
ENDBRANCH  49  52
ENDBRANCH  47  49
BRANCH  47  72
ATOM     72  C24 non d ame     -30.557  13.761  23.433  0.00  0.00    -0.039 C 
ATOM     73  H35 non d ame     -29.556  13.327  23.458  0.00  0.00     0.036 H 
ATOM     74  H36 non d ame     -31.340  13.291  22.838  0.00  0.00     0.036 H 
BRANCH  72  75
ATOM     75  C25 non d ame     -30.405  15.268  22.910  0.00  0.00    -0.001 C 
ATOM     76  C26 non d ame     -31.305  15.480  21.550  0.00  0.00    -0.035 C 
ATOM     77  C27 non d ame     -30.522  16.028  20.590  0.00  0.00     0.085 C 
ATOM     78  H38 non d ame     -31.584  14.514  21.131  0.00  0.00     0.036 H 
ATOM     79  H39 non d ame     -32.067  16.241  21.722  0.00  0.00     0.036 H 
ATOM     80  N5  non d ame     -29.094  15.905  21.062  0.00  0.00    -0.049 N 
ATOM     81  H40 non d ame     -30.661  15.401  19.709  0.00  0.00     0.075 H 
ATOM     82  H41 non d ame     -30.796  17.083  20.557  0.00  0.00     0.075 H 
ATOM     83  C28 non d ame     -29.174  15.546  22.634  0.00  0.00     0.193 C 
ATOM     84  H42 non d ame     -28.697  15.116  20.572  0.00  0.00     0.280 HD
ATOM     85  H43 non d ame     -28.680  16.821  20.962  0.00  0.00     0.280 HD
ATOM     86  H44 non d ame     -28.969  16.305  23.387  0.00  0.00     0.129 H 
ATOM     87  H37 non d ame     -30.534  15.997  23.709  0.00  0.00     0.046 H 
BRANCH  83  88
ATOM     88  O6  non d ame     -28.296  14.460  22.937  0.00  0.00    -0.369 OA
ATOM     89  H45 non d ame     -27.617  14.399  22.261  0.00  0.00     0.212 HD
ENDBRANCH  83  88
ENDBRANCH  72  75
ENDBRANCH  47  72
ENDBRANCH  45  47
ENDBRANCH   1  43
BRANCH   1  90
ATOM     90  C16 non d ame     -32.544  10.044  28.020  0.00  0.00    -0.035 C 
ATOM     91  H21 non d ame     -32.801   8.986  28.064  0.00  0.00     0.037 H 
ATOM     92  H22 non d ame     -31.583  10.387  28.402  0.00  0.00     0.037 H 
BRANCH  90  93
ATOM     93  C17 non d ame     -33.640  10.796  28.841  0.00  0.00    -0.059 C 
ATOM     94  H23 non d ame     -34.199  11.425  28.148  0.00  0.00     0.038 H 
BRANCH  93  95
ATOM     95  C18 non d ame     -34.650   9.813  29.515  0.00  0.00    -0.073 C 
ATOM     96  H24 non d ame     -34.224   9.436  30.444  0.00  0.00     0.028 H 
ATOM     97  H25 non d ame     -35.580  10.340  29.730  0.00  0.00     0.028 H 
ATOM     98  H26 non d ame     -34.851   8.981  28.842  0.00  0.00     0.028 H 
ENDBRANCH  93  95
BRANCH  93  99
ATOM     99  C19 non d ame     -33.004  11.722  29.882  0.00  0.00    -0.073 C 
ATOM    100  H27 non d ame     -33.017  11.235  30.858  0.00  0.00     0.028 H 
ATOM    101  H28 non d ame     -31.974  11.935  29.598  0.00  0.00     0.028 H 
ATOM    102  H29 non d ame     -33.567  12.653  29.932  0.00  0.00     0.028 H 
ENDBRANCH  93  99
ENDBRANCH  90  93
ENDBRANCH   1  90
TORSDOF 26
ENDMDL
MODEL 16
REMARK VINA RESULT:      -6.5      3.553      9.231
REMARK  26 active torsions:
REMARK  status: ('A' for Active; 'I' for Inactive)
REMARK    1  A    between atoms: C2_2  and  C3_3 
REMARK    2  A    between atoms: C4_6  and  C5_7 
REMARK       I    between atoms: C5_7  and  N2_9 
REMARK    3  A    between atoms: N2_9  and  C6_10 
REMARK    4  A    between atoms: C6_10  and  C7_11 
REMARK    5  A    between atoms: C6_10  and  C8_13 
REMARK       I    between atoms: C7_11  and  N3_14 
REMARK    6  A    between atoms: N3_14  and  C9_15 
REMARK    7  A    between atoms: C9_15  and  C10_16 
REMARK    8  A    between atoms: C9_15  and  C11_18 
REMARK       I    between atoms: C10_16  and  N4_21 
REMARK    9  A    between atoms: C11_18  and  C12_19 
REMARK   10  A    between atoms: C11_18  and  C13_20 
REMARK   11  A    between atoms: N4_21  and  C14_22 
REMARK   12  A    between atoms: C14_22  and  C15_23 
REMARK   13  A    between atoms: C14_22  and  C16_25 
REMARK       I    between atoms: C15_23  and  N6_40 
REMARK   14  A    between atoms: C16_25  and  C17_26 
REMARK   15  A    between atoms: C17_26  and  C18_27 
REMARK   16  A    between atoms: C17_26  and  C19_28 
REMARK   17  A    between atoms: C20_29  and  C21_30 
REMARK   18  A    between atoms: C20_29  and  C24_33 
REMARK   19  A    between atoms: C20_29  and  N6_40 
REMARK   20  A    between atoms: C21_30  and  C22_31 
REMARK   21  A    between atoms: C22_31  and  C23_32 
REMARK   22  A    between atoms: C23_32  and  O8_43 
REMARK   23  A    between atoms: C24_33  and  C25_34 
REMARK   24  A    between atoms: C28_38  and  O6_39 
REMARK   25  A    between atoms: C29_42  and  O8_43 
REMARK   26  A    between atoms: C29_42  and  C35_49 
ROOT
ATOM      1  C14 non d ame     -34.931   8.388  31.147  0.00  0.00     0.089 C 
ATOM      2  H20 non d ame     -34.509   8.399  32.153  0.00  0.00     0.087 H 
ENDROOT
BRANCH   1   3
ATOM      3  N4  non d ame     -34.019   9.119  30.282  0.00  0.00    -0.346 N 
ATOM      4  C10 non d ame     -33.465  10.454  30.712  0.00  0.00     0.241 C 
ATOM      5  O4  non d ame     -33.771  10.922  31.758  0.00  0.00    -0.271 OA
ATOM      6  H19 non d ame     -33.772   8.705  29.394  0.00  0.00     0.163 HD
BRANCH   4   7
ATOM      7  C9  non d ame     -32.516  11.194  29.806  0.00  0.00     0.092 C 
ATOM      8  H11 non d ame     -31.819  10.484  29.360  0.00  0.00     0.088 H 
BRANCH   7   9
ATOM      9  N3  non d ame     -33.268  11.810  28.709  0.00  0.00    -0.346 N 
ATOM     10  C7  non d ame     -33.379  11.133  27.441  0.00  0.00     0.240 C 
ATOM     11  O3  non d ame     -32.867  10.091  27.285  0.00  0.00    -0.271 OA
ATOM     12  H10 non d ame     -33.713  12.709  28.828  0.00  0.00     0.163 HD
BRANCH  10  13
ATOM     13  C6  non d ame     -34.178  11.795  26.276  0.00  0.00     0.086 C 
ATOM     14  H6  non d ame     -34.895  12.537  26.626  0.00  0.00     0.086 H 
BRANCH  13  15
ATOM     15  N2  non d ame     -33.248  12.495  25.405  0.00  0.00    -0.343 N 
ATOM     16  C5  non d ame     -32.823  13.855  25.746  0.00  0.00     0.273 C 
ATOM     17  O2  non d ame     -33.238  14.377  26.721  0.00  0.00    -0.266 OA
ATOM     18  H5  non d ame     -32.901  12.041  24.571  0.00  0.00     0.163 HD
BRANCH  16  19
ATOM     19  C4  non d ame     -31.840  14.605  24.835  0.00  0.00     0.154 A 
ATOM     20  C1  non d ame     -30.830  14.034  23.997  0.00  0.00    -0.017 A 
ATOM     21  C2  non d ame     -30.207  15.139  23.375  0.00  0.00     0.077 A 
ATOM     22  H1  non d ame     -30.586  12.981  23.861  0.00  0.00     0.091 H 
ATOM     23  O1  non d ame     -30.799  16.213  23.810  0.00  0.00    -0.218 OA
ATOM     24  N1  non d ame     -31.754  15.927  24.664  0.00  0.00    -0.123 NA
BRANCH  21  25
ATOM     25  C3  non d ame     -29.057  15.082  22.378  0.00  0.00    -0.029 C 
ATOM     26  H2  non d ame     -28.139  15.414  22.863  0.00  0.00     0.036 H 
ATOM     27  H3  non d ame     -28.931  14.058  22.027  0.00  0.00     0.036 H 
ATOM     28  H4  non d ame     -29.276  15.732  21.532  0.00  0.00     0.036 H 
ENDBRANCH  21  25
ENDBRANCH  16  19
ENDBRANCH  13  15
BRANCH  13  29
ATOM     29  C8  non d ame     -34.913  10.732  25.499  0.00  0.00    -0.049 C 
ATOM     30  H7  non d ame     -34.201  10.149  24.917  0.00  0.00     0.030 H 
ATOM     31  H8  non d ame     -35.440  10.076  26.192  0.00  0.00     0.030 H 
ATOM     32  H9  non d ame     -35.631  11.204  24.828  0.00  0.00     0.030 H 
ENDBRANCH  13  29
ENDBRANCH  10  13
ENDBRANCH   7   9
BRANCH   7  33
ATOM     33  C11 non d ame     -31.783  12.302  30.616  0.00  0.00    -0.033 C 
ATOM     34  H12 non d ame     -32.340  12.455  31.542  0.00  0.00     0.042 H 
BRANCH  33  35
ATOM     35  C12 non d ame     -30.337  11.862  31.005  0.00  0.00    -0.071 C 
ATOM     36  H13 non d ame     -29.627  12.622  30.683  0.00  0.00     0.028 H 
ATOM     37  H14 non d ame     -30.274  11.740  32.086  0.00  0.00     0.028 H 
ATOM     38  H15 non d ame     -30.102  10.916  30.517  0.00  0.00     0.028 H 
ENDBRANCH  33  35
BRANCH  33  39
ATOM     39  C13 non d ame     -31.772  13.654  29.832  0.00  0.00    -0.071 C 
ATOM     40  H16 non d ame     -32.561  13.645  29.080  0.00  0.00     0.028 H 
ATOM     41  H17 non d ame     -31.940  14.479  30.526  0.00  0.00     0.028 H 
ATOM     42  H18 non d ame     -30.806  13.783  29.344  0.00  0.00     0.028 H 
ENDBRANCH  33  39
ENDBRANCH   7  33
ENDBRANCH   4   7
ENDBRANCH   1   3
BRANCH   1  43
ATOM     43  C15 non d ame     -35.091   6.944  30.592  0.00  0.00     0.240 C 
ATOM     44  O5  non d ame     -35.778   6.163  31.167  0.00  0.00    -0.271 OA
ATOM     45  N6  non d ame     -34.396   6.538  29.338  0.00  0.00    -0.355 N 
ATOM     46  H46 non d ame     -33.815   7.195  28.838  0.00  0.00     0.162 HD
BRANCH  45  47
ATOM     47  C20 non d ame     -34.560   5.161  28.821  0.00  0.00     0.013 C 
ATOM     48  H30 non d ame     -34.922   4.537  29.639  0.00  0.00     0.072 H 
BRANCH  47  49
ATOM     49  C21 non d ame     -33.224   4.649  28.333  0.00  0.00    -0.038 C 
ATOM     50  H31 non d ame     -32.473   5.271  28.822  0.00  0.00     0.036 H 
ATOM     51  H32 non d ame     -33.239   3.574  28.509  0.00  0.00     0.036 H 
BRANCH  49  52
ATOM     52  C22 non d ame     -33.027   4.841  26.814  0.00  0.00     0.018 C 
ATOM     53  H33 non d ame     -32.481   3.962  26.474  0.00  0.00     0.048 H 
ATOM     54  H34 non d ame     -34.018   5.056  26.413  0.00  0.00     0.048 H 
BRANCH  52  55
ATOM     55  C23 non d ame     -32.142   6.064  26.447  0.00  0.00     0.259 C 
ATOM     56  O7  non d ame     -31.960   6.935  27.233  0.00  0.00    -0.265 OA
BRANCH  55  57
ATOM     57  O8  non d ame     -31.561   6.139  25.150  0.00  0.00    -0.317 OA
BRANCH  57  58
ATOM     58  C29 non d ame     -32.383   6.799  24.182  0.00  0.00     0.052 C 
ATOM     59  H47 non d ame     -32.552   6.069  23.392  0.00  0.00     0.082 H 
ATOM     60  H48 non d ame     -33.227   7.205  24.739  0.00  0.00     0.082 H 
BRANCH  58  61
ATOM     61  C35 non d ame     -31.571   7.983  23.591  0.00  0.00    -0.034 A 
ATOM     62  C30 non d ame     -30.535   7.737  22.695  0.00  0.00    -0.075 A 
ATOM     63  C31 non d ame     -29.805   8.801  22.164  0.00  0.00    -0.082 A 
ATOM     64  H49 non d ame     -30.294   6.714  22.409  0.00  0.00     0.084 H 
ATOM     65  C32 non d ame     -30.113  10.112  22.534  0.00  0.00    -0.083 A 
ATOM     66  H50 non d ame     -28.995   8.605  21.461  0.00  0.00     0.083 H 
ATOM     67  C33 non d ame     -31.145  10.352  23.431  0.00  0.00    -0.082 A 
ATOM     68  H51 non d ame     -29.548  10.949  22.123  0.00  0.00     0.083 H 
ATOM     69  C34 non d ame     -31.878   9.293  23.962  0.00  0.00    -0.075 A 
ATOM     70  H52 non d ame     -31.382  11.376  23.720  0.00  0.00     0.083 H 
ATOM     71  H53 non d ame     -32.688   9.489  24.665  0.00  0.00     0.084 H 
ENDBRANCH  58  61
ENDBRANCH  57  58
ENDBRANCH  55  57
ENDBRANCH  52  55
ENDBRANCH  49  52
ENDBRANCH  47  49
BRANCH  47  72
ATOM     72  C24 non d ame     -35.561   5.157  27.668  0.00  0.00    -0.039 C 
ATOM     73  H35 non d ame     -35.630   6.196  27.341  0.00  0.00     0.036 H 
ATOM     74  H36 non d ame     -35.205   4.392  26.978  0.00  0.00     0.036 H 
BRANCH  72  75
ATOM     75  C25 non d ame     -37.022   4.715  28.153  0.00  0.00    -0.001 C 
ATOM     76  C26 non d ame     -37.411   3.258  27.499  0.00  0.00    -0.035 C 
ATOM     77  C27 non d ame     -38.625   3.354  26.907  0.00  0.00     0.085 C 
ATOM     78  H38 non d ame     -36.741   3.029  26.670  0.00  0.00     0.036 H 
ATOM     79  H39 non d ame     -37.570   2.524  28.290  0.00  0.00     0.036 H 
ATOM     80  N5  non d ame     -38.954   4.825  26.812  0.00  0.00    -0.049 N 
ATOM     81  H40 non d ame     -38.493   2.954  25.902  0.00  0.00     0.075 H 
ATOM     82  H41 non d ame     -39.324   2.879  27.596  0.00  0.00     0.075 H 
ATOM     83  C28 non d ame     -37.915   5.577  27.792  0.00  0.00     0.193 C 
ATOM     84  H42 non d ame     -38.756   5.102  25.861  0.00  0.00     0.280 HD
ATOM     85  H43 non d ame     -39.886   4.934  27.186  0.00  0.00     0.280 HD
ATOM     86  H44 non d ame     -38.238   5.945  28.765  0.00  0.00     0.129 H 
ATOM     87  H37 non d ame     -37.152   4.827  29.229  0.00  0.00     0.046 H 
BRANCH  83  88
ATOM     88  O6  non d ame     -37.339   6.704  27.129  0.00  0.00    -0.369 OA
ATOM     89  H45 non d ame     -36.487   6.905  27.522  0.00  0.00     0.212 HD
ENDBRANCH  83  88
ENDBRANCH  72  75
ENDBRANCH  47  72
ENDBRANCH  45  47
ENDBRANCH   1  43
BRANCH   1  90
ATOM     90  C16 non d ame     -36.281   9.088  31.149  0.00  0.00    -0.035 C 
ATOM     91  H21 non d ame     -36.887   8.547  31.875  0.00  0.00     0.037 H 
ATOM     92  H22 non d ame     -36.059  10.143  31.304  0.00  0.00     0.037 H 
BRANCH  90  93
ATOM     93  C17 non d ame     -37.039   8.992  29.786  0.00  0.00    -0.059 C 
ATOM     94  H23 non d ame     -36.523   8.255  29.171  0.00  0.00     0.038 H 
BRANCH  93  95
ATOM     95  C18 non d ame     -38.515   8.515  29.965  0.00  0.00    -0.073 C 
ATOM     96  H24 non d ame     -38.524   7.510  30.388  0.00  0.00     0.028 H 
ATOM     97  H25 non d ame     -39.038   9.195  30.638  0.00  0.00     0.028 H 
ATOM     98  H26 non d ame     -39.015   8.507  28.997  0.00  0.00     0.028 H 
ENDBRANCH  93  95
BRANCH  93  99
ATOM     99  C19 non d ame     -36.985  10.326  29.036  0.00  0.00    -0.073 C 
ATOM    100  H27 non d ame     -37.204  11.141  29.727  0.00  0.00     0.028 H 
ATOM    101  H28 non d ame     -35.990  10.467  28.615  0.00  0.00     0.028 H 
ATOM    102  H29 non d ame     -37.722  10.322  28.233  0.00  0.00     0.028 H 
ENDBRANCH  93  99
ENDBRANCH  90  93
ENDBRANCH   1  90
TORSDOF 26
ENDMDL
MODEL 17
REMARK VINA RESULT:      -6.5      2.411      6.472
REMARK  26 active torsions:
REMARK  status: ('A' for Active; 'I' for Inactive)
REMARK    1  A    between atoms: C2_2  and  C3_3 
REMARK    2  A    between atoms: C4_6  and  C5_7 
REMARK       I    between atoms: C5_7  and  N2_9 
REMARK    3  A    between atoms: N2_9  and  C6_10 
REMARK    4  A    between atoms: C6_10  and  C7_11 
REMARK    5  A    between atoms: C6_10  and  C8_13 
REMARK       I    between atoms: C7_11  and  N3_14 
REMARK    6  A    between atoms: N3_14  and  C9_15 
REMARK    7  A    between atoms: C9_15  and  C10_16 
REMARK    8  A    between atoms: C9_15  and  C11_18 
REMARK       I    between atoms: C10_16  and  N4_21 
REMARK    9  A    between atoms: C11_18  and  C12_19 
REMARK   10  A    between atoms: C11_18  and  C13_20 
REMARK   11  A    between atoms: N4_21  and  C14_22 
REMARK   12  A    between atoms: C14_22  and  C15_23 
REMARK   13  A    between atoms: C14_22  and  C16_25 
REMARK       I    between atoms: C15_23  and  N6_40 
REMARK   14  A    between atoms: C16_25  and  C17_26 
REMARK   15  A    between atoms: C17_26  and  C18_27 
REMARK   16  A    between atoms: C17_26  and  C19_28 
REMARK   17  A    between atoms: C20_29  and  C21_30 
REMARK   18  A    between atoms: C20_29  and  C24_33 
REMARK   19  A    between atoms: C20_29  and  N6_40 
REMARK   20  A    between atoms: C21_30  and  C22_31 
REMARK   21  A    between atoms: C22_31  and  C23_32 
REMARK   22  A    between atoms: C23_32  and  O8_43 
REMARK   23  A    between atoms: C24_33  and  C25_34 
REMARK   24  A    between atoms: C28_38  and  O6_39 
REMARK   25  A    between atoms: C29_42  and  O8_43 
REMARK   26  A    between atoms: C29_42  and  C35_49 
ROOT
ATOM      1  C14 non d ame     -31.093  14.201  24.179  0.00  0.00     0.089 C 
ATOM      2  H20 non d ame     -30.059  14.370  24.484  0.00  0.00     0.087 H 
ENDROOT
BRANCH   1   3
ATOM      3  N4  non d ame     -31.380  12.787  24.368  0.00  0.00    -0.346 N 
ATOM      4  C10 non d ame     -30.690  11.750  23.518  0.00  0.00     0.241 C 
ATOM      5  O4  non d ame     -29.911  12.077  22.685  0.00  0.00    -0.271 OA
ATOM      6  H19 non d ame     -32.048  12.529  25.080  0.00  0.00     0.163 HD
BRANCH   4   7
ATOM      7  C9  non d ame     -30.995  10.290  23.731  0.00  0.00     0.092 C 
ATOM      8  H11 non d ame     -30.408   9.920  24.572  0.00  0.00     0.088 H 
BRANCH   7   9
ATOM      9  N3  non d ame     -32.408  10.132  24.085  0.00  0.00    -0.346 N 
ATOM     10  C7  non d ame     -32.779   9.804  25.440  0.00  0.00     0.240 C 
ATOM     11  O3  non d ame     -31.953   9.662  26.257  0.00  0.00    -0.271 OA
ATOM     12  H10 non d ame     -33.131  10.250  23.391  0.00  0.00     0.163 HD
BRANCH  10  13
ATOM     13  C6  non d ame     -34.285   9.634  25.810  0.00  0.00     0.086 C 
ATOM     14  H6  non d ame     -34.665   8.637  25.586  0.00  0.00     0.086 H 
BRANCH  13  15
ATOM     15  N2  non d ame     -34.442   9.825  27.243  0.00  0.00    -0.343 N 
ATOM     16  C5  non d ame     -34.601   8.657  28.113  0.00  0.00     0.273 C 
ATOM     17  O2  non d ame     -34.603   7.570  27.651  0.00  0.00    -0.266 OA
ATOM     18  H5  non d ame     -34.443  10.758  27.629  0.00  0.00     0.163 HD
BRANCH  16  19
ATOM     19  C4  non d ame     -34.766   8.845  29.629  0.00  0.00     0.154 A 
ATOM     20  C1  non d ame     -34.901  10.080  30.338  0.00  0.00    -0.017 A 
ATOM     21  C2  non d ame     -35.022   9.709  31.696  0.00  0.00     0.077 A 
ATOM     22  H1  non d ame     -34.909  11.091  29.931  0.00  0.00     0.091 H 
ATOM     23  O1  non d ame     -34.965   8.410  31.749  0.00  0.00    -0.218 OA
ATOM     24  N1  non d ame     -34.814   7.884  30.556  0.00  0.00    -0.123 NA
BRANCH  21  25
ATOM     25  C3  non d ame     -35.190  10.655  32.878  0.00  0.00    -0.029 C 
ATOM     26  H2  non d ame     -34.349  11.348  32.912  0.00  0.00     0.036 H 
ATOM     27  H3  non d ame     -36.118  11.216  32.765  0.00  0.00     0.036 H 
ATOM     28  H4  non d ame     -35.224  10.080  33.802  0.00  0.00     0.036 H 
ENDBRANCH  21  25
ENDBRANCH  16  19
ENDBRANCH  13  15
BRANCH  13  29
ATOM     29  C8  non d ame     -35.108  10.650  25.060  0.00  0.00    -0.049 C 
ATOM     30  H7  non d ame     -34.494  11.521  24.836  0.00  0.00     0.030 H 
ATOM     31  H8  non d ame     -35.468  10.210  24.130  0.00  0.00     0.030 H 
ATOM     32  H9  non d ame     -35.958  10.953  25.673  0.00  0.00     0.030 H 
ENDBRANCH  13  29
ENDBRANCH  10  13
ENDBRANCH   7   9
BRANCH   7  33
ATOM     33  C11 non d ame     -30.699   9.502  22.422  0.00  0.00    -0.033 C 
ATOM     34  H12 non d ame     -30.651  10.226  21.607  0.00  0.00     0.042 H 
BRANCH  33  35
ATOM     35  C12 non d ame     -29.317   8.780  22.491  0.00  0.00    -0.071 C 
ATOM     36  H13 non d ame     -28.944   8.808  23.515  0.00  0.00     0.028 H 
ATOM     37  H14 non d ame     -29.434   7.744  22.175  0.00  0.00     0.028 H 
ATOM     38  H15 non d ame     -28.610   9.284  21.833  0.00  0.00     0.028 H 
ENDBRANCH  33  35
BRANCH  33  39
ATOM     39  C13 non d ame     -31.850   8.494  22.104  0.00  0.00    -0.071 C 
ATOM     40  H16 non d ame     -32.055   7.886  22.985  0.00  0.00     0.028 H 
ATOM     41  H17 non d ame     -32.749   9.045  21.824  0.00  0.00     0.028 H 
ATOM     42  H18 non d ame     -31.550   7.849  21.279  0.00  0.00     0.028 H 
ENDBRANCH  33  39
ENDBRANCH   7  33
ENDBRANCH   4   7
ENDBRANCH   1   3
BRANCH   1  43
ATOM     43  C15 non d ame     -32.098  15.028  25.030  0.00  0.00     0.240 C 
ATOM     44  O5  non d ame     -33.134  15.369  24.555  0.00  0.00    -0.271 OA
ATOM     45  N6  non d ame     -31.775  15.389  26.439  0.00  0.00    -0.355 N 
ATOM     46  H46 non d ame     -30.901  15.100  26.855  0.00  0.00     0.162 HD
BRANCH  45  47
ATOM     47  C20 non d ame     -32.743  16.174  27.236  0.00  0.00     0.013 C 
ATOM     48  H30 non d ame     -33.736  16.004  26.820  0.00  0.00     0.072 H 
BRANCH  47  49
ATOM     49  C21 non d ame     -32.389  17.642  27.147  0.00  0.00    -0.038 C 
ATOM     50  H31 non d ame     -32.517  18.038  28.155  0.00  0.00     0.036 H 
ATOM     51  H32 non d ame     -31.412  17.680  26.666  0.00  0.00     0.036 H 
BRANCH  49  52
ATOM     52  C22 non d ame     -33.354  18.437  26.241  0.00  0.00     0.018 C 
ATOM     53  H33 non d ame     -32.762  18.747  25.381  0.00  0.00     0.048 H 
ATOM     54  H34 non d ame     -34.223  17.793  26.100  0.00  0.00     0.048 H 
BRANCH  52  55
ATOM     55  C23 non d ame     -33.888  19.743  26.889  0.00  0.00     0.259 C 
ATOM     56  O7  non d ame     -33.226  20.730  26.893  0.00  0.00    -0.265 OA
BRANCH  55  57
ATOM     57  O8  non d ame     -35.177  19.745  27.492  0.00  0.00    -0.317 OA
BRANCH  57  58
ATOM     58  C29 non d ame     -36.127  20.586  26.832  0.00  0.00     0.052 C 
ATOM     59  H47 non d ame     -36.917  20.768  27.560  0.00  0.00     0.082 H 
ATOM     60  H48 non d ame     -35.553  21.421  26.429  0.00  0.00     0.082 H 
BRANCH  58  61
ATOM     61  C35 non d ame     -36.730  19.788  25.644  0.00  0.00    -0.034 A 
ATOM     62  C30 non d ame     -36.902  20.403  24.408  0.00  0.00    -0.075 A 
ATOM     63  C31 non d ame     -37.444  19.686  23.342  0.00  0.00    -0.082 A 
ATOM     64  H49 non d ame     -36.615  21.445  24.275  0.00  0.00     0.084 H 
ATOM     65  C32 non d ame     -37.815  18.350  23.516  0.00  0.00    -0.083 A 
ATOM     66  H50 non d ame     -37.577  20.170  22.374  0.00  0.00     0.083 H 
ATOM     67  C33 non d ame     -37.644  17.742  24.752  0.00  0.00    -0.082 A 
ATOM     68  H51 non d ame     -38.238  17.782  22.687  0.00  0.00     0.083 H 
ATOM     69  C34 non d ame     -37.101  18.454  25.820  0.00  0.00    -0.075 A 
ATOM     70  H52 non d ame     -37.937  16.700  24.886  0.00  0.00     0.083 H 
ATOM     71  H53 non d ame     -36.969  17.969  26.787  0.00  0.00     0.084 H 
ENDBRANCH  58  61
ENDBRANCH  57  58
ENDBRANCH  55  57
ENDBRANCH  52  55
ENDBRANCH  49  52
ENDBRANCH  47  49
BRANCH  47  72
ATOM     72  C24 non d ame     -32.695  15.726  28.695  0.00  0.00    -0.039 C 
ATOM     73  H35 non d ame     -32.319  16.587  29.250  0.00  0.00     0.036 H 
ATOM     74  H36 non d ame     -33.688  15.332  28.910  0.00  0.00     0.036 H 
BRANCH  72  75
ATOM     75  C25 non d ame     -31.653  14.529  28.914  0.00  0.00    -0.001 C 
ATOM     76  C26 non d ame     -32.462  13.140  29.258  0.00  0.00    -0.035 C 
ATOM     77  C27 non d ame     -31.936  12.595  30.382  0.00  0.00     0.085 C 
ATOM     78  H38 non d ame     -33.490  13.366  29.541  0.00  0.00     0.036 H 
ATOM     79  H39 non d ame     -32.259  12.390  28.493  0.00  0.00     0.036 H 
ATOM     80  N5  non d ame     -31.065  13.651  31.018  0.00  0.00    -0.049 N 
ATOM     81  H40 non d ame     -32.787  12.396  31.034  0.00  0.00     0.075 H 
ATOM     82  H41 non d ame     -31.307  11.774  30.040  0.00  0.00     0.075 H 
ATOM     83  C28 non d ame     -30.845  14.785  29.890  0.00  0.00     0.193 C 
ATOM     84  H42 non d ame     -31.603  14.050  31.774  0.00  0.00     0.280 HD
ATOM     85  H43 non d ame     -30.176  13.211  31.209  0.00  0.00     0.280 HD
ATOM     86  H44 non d ame     -29.901  14.856  29.351  0.00  0.00     0.129 H 
ATOM     87  H37 non d ame     -30.903  14.485  28.125  0.00  0.00     0.046 H 
BRANCH  83  88
ATOM     88  O6  non d ame     -31.066  16.083  30.446  0.00  0.00    -0.369 OA
ATOM     89  H45 non d ame     -30.542  16.182  31.244  0.00  0.00     0.212 HD
ENDBRANCH  83  88
ENDBRANCH  72  75
ENDBRANCH  47  72
ENDBRANCH  45  47
ENDBRANCH   1  43
BRANCH   1  90
ATOM     90  C16 non d ame     -31.260  14.549  22.709  0.00  0.00    -0.035 C 
ATOM     91  H21 non d ame     -31.089  13.617  22.170  0.00  0.00     0.037 H 
ATOM     92  H22 non d ame     -32.225  15.050  22.638  0.00  0.00     0.037 H 
BRANCH  90  93
ATOM     93  C17 non d ame     -30.196  15.563  22.180  0.00  0.00    -0.059 C 
ATOM     94  H23 non d ame     -30.405  16.531  22.636  0.00  0.00     0.038 H 
BRANCH  93  95
ATOM     95  C18 non d ame     -28.742  15.153  22.577  0.00  0.00    -0.073 C 
ATOM     96  H24 non d ame     -28.091  16.026  22.525  0.00  0.00     0.028 H 
ATOM     97  H25 non d ame     -28.740  14.760  23.594  0.00  0.00     0.028 H 
ATOM     98  H26 non d ame     -28.380  14.388  21.891  0.00  0.00     0.028 H 
ENDBRANCH  93  95
BRANCH  93  99
ATOM     99  C19 non d ame     -30.317  15.740  20.664  0.00  0.00    -0.073 C 
ATOM    100  H27 non d ame     -30.194  16.794  20.409  0.00  0.00     0.028 H 
ATOM    101  H28 non d ame     -29.543  15.156  20.166  0.00  0.00     0.028 H 
ATOM    102  H29 non d ame     -31.297  15.399  20.334  0.00  0.00     0.028 H 
ENDBRANCH  93  99
ENDBRANCH  90  93
ENDBRANCH   1  90
TORSDOF 26
ENDMDL
MODEL 18
REMARK VINA RESULT:      -6.5      3.431      9.269
REMARK  26 active torsions:
REMARK  status: ('A' for Active; 'I' for Inactive)
REMARK    1  A    between atoms: C2_2  and  C3_3 
REMARK    2  A    between atoms: C4_6  and  C5_7 
REMARK       I    between atoms: C5_7  and  N2_9 
REMARK    3  A    between atoms: N2_9  and  C6_10 
REMARK    4  A    between atoms: C6_10  and  C7_11 
REMARK    5  A    between atoms: C6_10  and  C8_13 
REMARK       I    between atoms: C7_11  and  N3_14 
REMARK    6  A    between atoms: N3_14  and  C9_15 
REMARK    7  A    between atoms: C9_15  and  C10_16 
REMARK    8  A    between atoms: C9_15  and  C11_18 
REMARK       I    between atoms: C10_16  and  N4_21 
REMARK    9  A    between atoms: C11_18  and  C12_19 
REMARK   10  A    between atoms: C11_18  and  C13_20 
REMARK   11  A    between atoms: N4_21  and  C14_22 
REMARK   12  A    between atoms: C14_22  and  C15_23 
REMARK   13  A    between atoms: C14_22  and  C16_25 
REMARK       I    between atoms: C15_23  and  N6_40 
REMARK   14  A    between atoms: C16_25  and  C17_26 
REMARK   15  A    between atoms: C17_26  and  C18_27 
REMARK   16  A    between atoms: C17_26  and  C19_28 
REMARK   17  A    between atoms: C20_29  and  C21_30 
REMARK   18  A    between atoms: C20_29  and  C24_33 
REMARK   19  A    between atoms: C20_29  and  N6_40 
REMARK   20  A    between atoms: C21_30  and  C22_31 
REMARK   21  A    between atoms: C22_31  and  C23_32 
REMARK   22  A    between atoms: C23_32  and  O8_43 
REMARK   23  A    between atoms: C24_33  and  C25_34 
REMARK   24  A    between atoms: C28_38  and  O6_39 
REMARK   25  A    between atoms: C29_42  and  O8_43 
REMARK   26  A    between atoms: C29_42  and  C35_49 
ROOT
ATOM      1  C14 non d ame     -34.771   8.275  31.168  0.00  0.00     0.089 C 
ATOM      2  H20 non d ame     -33.909   8.537  31.782  0.00  0.00     0.087 H 
ENDROOT
BRANCH   1   3
ATOM      3  N4  non d ame     -34.701   9.072  29.953  0.00  0.00    -0.346 N 
ATOM      4  C10 non d ame     -33.695  10.189  29.831  0.00  0.00     0.241 C 
ATOM      5  O4  non d ame     -32.954  10.429  30.726  0.00  0.00    -0.271 OA
ATOM      6  H19 non d ame     -35.342   8.853  29.203  0.00  0.00     0.163 HD
BRANCH   4   7
ATOM      7  C9  non d ame     -33.633  11.000  28.563  0.00  0.00     0.092 C 
ATOM      8  H11 non d ame     -34.397  11.777  28.596  0.00  0.00     0.088 H 
BRANCH   7   9
ATOM      9  N3  non d ame     -32.334  11.672  28.475  0.00  0.00    -0.346 N 
ATOM     10  C7  non d ame     -32.272  13.108  28.349  0.00  0.00     0.240 C 
ATOM     11  O3  non d ame     -33.259  13.737  28.315  0.00  0.00    -0.271 OA
ATOM     12  H10 non d ame     -31.474  11.143  28.502  0.00  0.00     0.163 HD
BRANCH  10  13
ATOM     13  C6  non d ame     -30.887  13.818  28.253  0.00  0.00     0.086 C 
ATOM     14  H6  non d ame     -30.052  13.117  28.247  0.00  0.00     0.086 H 
BRANCH  13  15
ATOM     15  N2  non d ame     -30.820  14.553  27.000  0.00  0.00    -0.343 N 
ATOM     16  C5  non d ame     -30.951  13.830  25.733  0.00  0.00     0.273 C 
ATOM     17  O2  non d ame     -31.107  12.659  25.732  0.00  0.00    -0.266 OA
ATOM     18  H5  non d ame     -30.682  15.553  27.011  0.00  0.00     0.163 HD
BRANCH  16  19
ATOM     19  C4  non d ame     -30.884  14.594  24.401  0.00  0.00     0.154 A 
ATOM     20  C1  non d ame     -30.672  14.044  23.098  0.00  0.00    -0.017 A 
ATOM     21  C2  non d ame     -30.696  15.155  22.225  0.00  0.00     0.077 A 
ATOM     22  H1  non d ame     -30.522  12.999  22.826  0.00  0.00     0.091 H 
ATOM     23  O1  non d ame     -30.902  16.214  22.952  0.00  0.00    -0.218 OA
ATOM     24  N1  non d ame     -31.014  15.912  24.225  0.00  0.00    -0.123 NA
BRANCH  21  25
ATOM     25  C3  non d ame     -30.518  15.118  20.713  0.00  0.00    -0.029 C 
ATOM     26  H2  non d ame     -31.212  15.818  20.248  0.00  0.00     0.036 H 
ATOM     27  H3  non d ame     -29.495  15.399  20.461  0.00  0.00     0.036 H 
ATOM     28  H4  non d ame     -30.718  14.111  20.348  0.00  0.00     0.036 H 
ENDBRANCH  21  25
ENDBRANCH  16  19
ENDBRANCH  13  15
BRANCH  13  29
ATOM     29  C8  non d ame     -30.722  14.764  29.416  0.00  0.00    -0.049 C 
ATOM     30  H7  non d ame     -30.172  14.267  30.214  0.00  0.00     0.030 H 
ATOM     31  H8  non d ame     -30.170  15.647  29.090  0.00  0.00     0.030 H 
ATOM     32  H9  non d ame     -31.704  15.064  29.782  0.00  0.00     0.030 H 
ENDBRANCH  13  29
ENDBRANCH  10  13
ENDBRANCH   7   9
BRANCH   7  33
ATOM     33  C11 non d ame     -33.810  10.058  27.337  0.00  0.00    -0.033 C 
ATOM     34  H12 non d ame     -34.497   9.263  27.630  0.00  0.00     0.042 H 
BRANCH  33  35
ATOM     35  C12 non d ame     -34.451  10.810  26.129  0.00  0.00    -0.071 C 
ATOM     36  H13 non d ame     -35.504  11.001  26.337  0.00  0.00     0.028 H 
ATOM     37  H14 non d ame     -33.934  11.757  25.976  0.00  0.00     0.028 H 
ATOM     38  H15 non d ame     -34.364  10.198  25.231  0.00  0.00     0.028 H 
ENDBRANCH  33  35
BRANCH  33  39
ATOM     39  C13 non d ame     -32.452   9.398  26.936  0.00  0.00    -0.071 C 
ATOM     40  H16 non d ame     -31.764  10.167  26.584  0.00  0.00     0.028 H 
ATOM     41  H17 non d ame     -32.022   8.896  27.804  0.00  0.00     0.028 H 
ATOM     42  H18 non d ame     -32.621   8.670  26.144  0.00  0.00     0.028 H 
ENDBRANCH  33  39
ENDBRANCH   7  33
ENDBRANCH   4   7
ENDBRANCH   1   3
BRANCH   1  43
ATOM     43  C15 non d ame     -34.777   6.771  30.774  0.00  0.00     0.240 C 
ATOM     44  O5  non d ame     -35.088   5.951  31.576  0.00  0.00    -0.271 OA
ATOM     45  N6  non d ame     -34.404   6.352  29.393  0.00  0.00    -0.355 N 
ATOM     46  H46 non d ame     -34.144   7.040  28.701  0.00  0.00     0.162 HD
BRANCH  45  47
ATOM     47  C20 non d ame     -34.417   4.917  29.033  0.00  0.00     0.013 C 
ATOM     48  H30 non d ame     -34.433   4.340  29.957  0.00  0.00     0.072 H 
BRANCH  47  49
ATOM     49  C21 non d ame     -33.171   4.590  28.241  0.00  0.00    -0.038 C 
ATOM     50  H31 non d ame     -32.430   4.270  28.976  0.00  0.00     0.036 H 
ATOM     51  H32 non d ame     -33.492   3.905  27.457  0.00  0.00     0.036 H 
BRANCH  49  52
ATOM     52  C22 non d ame     -32.573   5.822  27.527  0.00  0.00     0.018 C 
ATOM     53  H33 non d ame     -33.176   6.670  27.847  0.00  0.00     0.048 H 
ATOM     54  H34 non d ame     -31.505   5.799  27.746  0.00  0.00     0.048 H 
BRANCH  52  55
ATOM     55  C23 non d ame     -32.694   5.769  25.979  0.00  0.00     0.259 C 
ATOM     56  O7  non d ame     -33.719   5.459  25.464  0.00  0.00    -0.265 OA
BRANCH  55  57
ATOM     57  O8  non d ame     -31.559   6.082  25.181  0.00  0.00    -0.317 OA
BRANCH  57  58
ATOM     58  C29 non d ame     -31.855   6.253  23.791  0.00  0.00     0.052 C 
ATOM     59  H47 non d ame     -31.361   5.426  23.281  0.00  0.00     0.082 H 
ATOM     60  H48 non d ame     -32.938   6.362  23.731  0.00  0.00     0.082 H 
BRANCH  58  61
ATOM     61  C35 non d ame     -31.201   7.580  23.322  0.00  0.00    -0.034 A 
ATOM     62  C30 non d ame     -29.972   7.559  22.671  0.00  0.00    -0.075 A 
ATOM     63  C31 non d ame     -29.385   8.752  22.249  0.00  0.00    -0.082 A 
ATOM     64  H49 non d ame     -29.469   6.609  22.491  0.00  0.00     0.084 H 
ATOM     65  C32 non d ame     -30.030   9.968  22.484  0.00  0.00    -0.083 A 
ATOM     66  H50 non d ame     -28.422   8.731  21.738  0.00  0.00     0.083 H 
ATOM     67  C33 non d ame     -31.255   9.985  23.136  0.00  0.00    -0.082 A 
ATOM     68  H51 non d ame     -29.578  10.905  22.156  0.00  0.00     0.083 H 
ATOM     69  C34 non d ame     -31.847   8.795  23.557  0.00  0.00    -0.075 A 
ATOM     70  H52 non d ame     -31.756  10.936  23.320  0.00  0.00     0.083 H 
ATOM     71  H53 non d ame     -32.810   8.817  24.069  0.00  0.00     0.084 H 
ENDBRANCH  58  61
ENDBRANCH  57  58
ENDBRANCH  55  57
ENDBRANCH  52  55
ENDBRANCH  49  52
ENDBRANCH  47  49
BRANCH  47  72
ATOM     72  C24 non d ame     -35.653   4.606  28.191  0.00  0.00    -0.039 C 
ATOM     73  H35 non d ame     -35.316   4.649  27.155  0.00  0.00     0.036 H 
ATOM     74  H36 non d ame     -36.052   3.676  28.596  0.00  0.00     0.036 H 
BRANCH  72  75
ATOM     75  C25 non d ame     -36.787   5.723  28.368  0.00  0.00    -0.001 C 
ATOM     76  C26 non d ame     -38.037   5.117  29.247  0.00  0.00    -0.035 C 
ATOM     77  C27 non d ame     -39.192   5.344  28.577  0.00  0.00     0.085 C 
ATOM     78  H38 non d ame     -37.974   4.030  29.286  0.00  0.00     0.036 H 
ATOM     79  H39 non d ame     -38.159   5.689  30.167  0.00  0.00     0.036 H 
ATOM     80  N5  non d ame     -38.815   5.754  27.174  0.00  0.00    -0.049 N 
ATOM     81  H40 non d ame     -39.702   4.380  28.541  0.00  0.00     0.075 H 
ATOM     82  H41 non d ame     -39.660   6.189  29.081  0.00  0.00     0.075 H 
ATOM     83  C28 non d ame     -37.242   6.112  27.223  0.00  0.00     0.193 C 
ATOM     84  H42 non d ame     -38.941   4.938  26.593  0.00  0.00     0.280 HD
ATOM     85  H43 non d ame     -39.332   6.599  26.975  0.00  0.00     0.280 HD
ATOM     86  H44 non d ame     -36.910   7.149  27.221  0.00  0.00     0.129 H 
ATOM     87  H37 non d ame     -36.377   6.682  28.684  0.00  0.00     0.046 H 
BRANCH  83  88
ATOM     88  O6  non d ame     -36.560   5.490  26.132  0.00  0.00    -0.369 OA
ATOM     89  H45 non d ame     -36.229   6.164  25.535  0.00  0.00     0.212 HD
ENDBRANCH  83  88
ENDBRANCH  72  75
ENDBRANCH  47  72
ENDBRANCH  45  47
ENDBRANCH   1  43
BRANCH   1  90
ATOM     90  C16 non d ame     -36.054   8.614  31.910  0.00  0.00    -0.035 C 
ATOM     91  H21 non d ame     -36.344   7.696  32.421  0.00  0.00     0.037 H 
ATOM     92  H22 non d ame     -35.825   9.509  32.488  0.00  0.00     0.037 H 
BRANCH  90  93
ATOM     93  C17 non d ame     -37.243   8.988  30.969  0.00  0.00    -0.059 C 
ATOM     94  H23 non d ame     -36.936   8.773  29.946  0.00  0.00     0.038 H 
BRANCH  93  95
ATOM     95  C18 non d ame     -38.522   8.144  31.272  0.00  0.00    -0.073 C 
ATOM     96  H24 non d ame     -39.351   8.811  31.505  0.00  0.00     0.028 H 
ATOM     97  H25 non d ame     -38.776   7.543  30.398  0.00  0.00     0.028 H 
ATOM     98  H26 non d ame     -38.333   7.488  32.121  0.00  0.00     0.028 H 
ENDBRANCH  93  95
BRANCH  93  99
ATOM     99  C19 non d ame     -37.549  10.487  31.046  0.00  0.00    -0.073 C 
ATOM    100  H27 non d ame     -36.615  11.046  31.112  0.00  0.00     0.028 H 
ATOM    101  H28 non d ame     -38.092  10.793  30.151  0.00  0.00     0.028 H 
ATOM    102  H29 non d ame     -38.158  10.689  31.926  0.00  0.00     0.028 H 
ENDBRANCH  93  99
ENDBRANCH  90  93
ENDBRANCH   1  90
TORSDOF 26
ENDMDL
MODEL 19
REMARK VINA RESULT:      -6.5      3.128      8.001
REMARK  26 active torsions:
REMARK  status: ('A' for Active; 'I' for Inactive)
REMARK    1  A    between atoms: C2_2  and  C3_3 
REMARK    2  A    between atoms: C4_6  and  C5_7 
REMARK       I    between atoms: C5_7  and  N2_9 
REMARK    3  A    between atoms: N2_9  and  C6_10 
REMARK    4  A    between atoms: C6_10  and  C7_11 
REMARK    5  A    between atoms: C6_10  and  C8_13 
REMARK       I    between atoms: C7_11  and  N3_14 
REMARK    6  A    between atoms: N3_14  and  C9_15 
REMARK    7  A    between atoms: C9_15  and  C10_16 
REMARK    8  A    between atoms: C9_15  and  C11_18 
REMARK       I    between atoms: C10_16  and  N4_21 
REMARK    9  A    between atoms: C11_18  and  C12_19 
REMARK   10  A    between atoms: C11_18  and  C13_20 
REMARK   11  A    between atoms: N4_21  and  C14_22 
REMARK   12  A    between atoms: C14_22  and  C15_23 
REMARK   13  A    between atoms: C14_22  and  C16_25 
REMARK       I    between atoms: C15_23  and  N6_40 
REMARK   14  A    between atoms: C16_25  and  C17_26 
REMARK   15  A    between atoms: C17_26  and  C18_27 
REMARK   16  A    between atoms: C17_26  and  C19_28 
REMARK   17  A    between atoms: C20_29  and  C21_30 
REMARK   18  A    between atoms: C20_29  and  C24_33 
REMARK   19  A    between atoms: C20_29  and  N6_40 
REMARK   20  A    between atoms: C21_30  and  C22_31 
REMARK   21  A    between atoms: C22_31  and  C23_32 
REMARK   22  A    between atoms: C23_32  and  O8_43 
REMARK   23  A    between atoms: C24_33  and  C25_34 
REMARK   24  A    between atoms: C28_38  and  O6_39 
REMARK   25  A    between atoms: C29_42  and  O8_43 
REMARK   26  A    between atoms: C29_42  and  C35_49 
ROOT
ATOM      1  C14 non d ame     -35.418   8.651  26.499  0.00  0.00     0.089 C 
ATOM      2  H20 non d ame     -35.541   7.870  27.250  0.00  0.00     0.087 H 
ENDROOT
BRANCH   1   3
ATOM      3  N4  non d ame     -34.600   9.700  27.090  0.00  0.00    -0.346 N 
ATOM      4  C10 non d ame     -33.527   9.356  28.093  0.00  0.00     0.241 C 
ATOM      5  O4  non d ame     -33.343   8.229  28.411  0.00  0.00    -0.271 OA
ATOM      6  H19 non d ame     -34.774  10.654  26.807  0.00  0.00     0.163 HD
BRANCH   4   7
ATOM      7  C9  non d ame     -32.687  10.455  28.689  0.00  0.00     0.092 C 
ATOM      8  H11 non d ame     -31.635  10.251  28.487  0.00  0.00     0.088 H 
BRANCH   7   9
ATOM      9  N3  non d ame     -33.014  11.728  28.042  0.00  0.00    -0.346 N 
ATOM     10  C7  non d ame     -32.073  12.339  27.136  0.00  0.00     0.240 C 
ATOM     11  O3  non d ame     -31.046  11.821  26.918  0.00  0.00    -0.271 OA
ATOM     12  H10 non d ame     -33.895  12.188  28.222  0.00  0.00     0.163 HD
BRANCH  10  13
ATOM     13  C6  non d ame     -32.426  13.697  26.453  0.00  0.00     0.086 C 
ATOM     14  H6  non d ame     -31.912  14.544  26.907  0.00  0.00     0.086 H 
BRANCH  13  15
ATOM     15  N2  non d ame     -32.002  13.649  25.063  0.00  0.00    -0.343 N 
ATOM     16  C5  non d ame     -31.219  14.757  24.510  0.00  0.00     0.273 C 
ATOM     17  O2  non d ame     -30.939  15.682  25.189  0.00  0.00    -0.266 OA
ATOM     18  H5  non d ame     -32.249  12.856  24.489  0.00  0.00     0.163 HD
BRANCH  16  19
ATOM     19  C4  non d ame     -30.762  14.718  23.043  0.00  0.00     0.154 A 
ATOM     20  C1  non d ame     -31.178  15.587  21.985  0.00  0.00    -0.017 A 
ATOM     21  C2  non d ame     -30.474  15.136  20.846  0.00  0.00     0.077 A 
ATOM     22  H1  non d ame     -31.884  16.415  22.034  0.00  0.00     0.091 H 
ATOM     23  O1  non d ame     -29.739  14.128  21.219  0.00  0.00    -0.218 OA
ATOM     24  N1  non d ame     -29.892  13.866  22.496  0.00  0.00    -0.123 NA
BRANCH  21  25
ATOM     25  C3  non d ame     -30.557  15.723  19.443  0.00  0.00    -0.029 C 
ATOM     26  H2  non d ame     -31.571  15.605  19.059  0.00  0.00     0.036 H 
ATOM     27  H3  non d ame     -30.304  16.782  19.477  0.00  0.00     0.036 H 
ATOM     28  H4  non d ame     -29.859  15.203  18.789  0.00  0.00     0.036 H 
ENDBRANCH  21  25
ENDBRANCH  16  19
ENDBRANCH  13  15
BRANCH  13  29
ATOM     29  C8  non d ame     -33.914  13.930  26.530  0.00  0.00    -0.049 C 
ATOM     30  H7  non d ame     -34.440  13.034  26.203  0.00  0.00     0.030 H 
ATOM     31  H8  non d ame     -34.192  14.158  27.560  0.00  0.00     0.030 H 
ATOM     32  H9  non d ame     -34.185  14.767  25.886  0.00  0.00     0.030 H 
ENDBRANCH  13  29
ENDBRANCH  10  13
ENDBRANCH   7   9
BRANCH   7  33
ATOM     33  C11 non d ame     -32.978  10.560  30.214  0.00  0.00    -0.033 C 
ATOM     34  H12 non d ame     -32.469   9.730  30.704  0.00  0.00     0.042 H 
BRANCH  33  35
ATOM     35  C12 non d ame     -32.405  11.882  30.814  0.00  0.00    -0.071 C 
ATOM     36  H13 non d ame     -31.370  12.006  30.496  0.00  0.00     0.028 H 
ATOM     37  H14 non d ame     -32.997  12.726  30.462  0.00  0.00     0.028 H 
ATOM     38  H15 non d ame     -32.447  11.836  31.902  0.00  0.00     0.028 H 
ENDBRANCH  33  35
BRANCH  33  39
ATOM     39  C13 non d ame     -34.508  10.425  30.502  0.00  0.00    -0.071 C 
ATOM     40  H16 non d ame     -35.072  10.937  29.722  0.00  0.00     0.028 H 
ATOM     41  H17 non d ame     -34.784   9.369  30.517  0.00  0.00     0.028 H 
ATOM     42  H18 non d ame     -34.737  10.871  31.469  0.00  0.00     0.028 H 
ENDBRANCH  33  39
ENDBRANCH   7  33
ENDBRANCH   4   7
ENDBRANCH   1   3
BRANCH   1  43
ATOM     43  C15 non d ame     -34.706   8.130  25.219  0.00  0.00     0.240 C 
ATOM     44  O5  non d ame     -35.137   8.409  24.147  0.00  0.00    -0.271 OA
ATOM     45  N6  non d ame     -33.479   7.290  25.328  0.00  0.00    -0.355 N 
ATOM     46  H46 non d ame     -33.100   7.051  26.233  0.00  0.00     0.162 HD
BRANCH  45  47
ATOM     47  C20 non d ame     -32.812   6.803  24.101  0.00  0.00     0.013 C 
ATOM     48  H30 non d ame     -33.467   7.016  23.256  0.00  0.00     0.072 H 
BRANCH  47  49
ATOM     49  C21 non d ame     -32.583   5.312  24.215  0.00  0.00    -0.038 C 
ATOM     50  H31 non d ame     -32.138   5.010  23.265  0.00  0.00     0.036 H 
ATOM     51  H32 non d ame     -32.034   5.169  25.144  0.00  0.00     0.036 H 
BRANCH  49  52
ATOM     52  C22 non d ame     -33.896   4.513  24.355  0.00  0.00     0.018 C 
ATOM     53  H33 non d ame     -34.696   5.219  24.138  0.00  0.00     0.048 H 
ATOM     54  H34 non d ame     -33.769   3.626  23.732  0.00  0.00     0.048 H 
BRANCH  52  55
ATOM     55  C23 non d ame     -34.162   3.992  25.793  0.00  0.00     0.259 C 
ATOM     56  O7  non d ame     -33.741   2.936  26.140  0.00  0.00    -0.265 OA
BRANCH  55  57
ATOM     57  O8  non d ame     -34.930   4.785  26.692  0.00  0.00    -0.317 OA
BRANCH  57  58
ATOM     58  C29 non d ame     -34.340   4.931  27.987  0.00  0.00     0.052 C 
ATOM     59  H47 non d ame     -33.927   3.954  28.235  0.00  0.00     0.082 H 
ATOM     60  H48 non d ame     -33.685   5.799  27.917  0.00  0.00     0.082 H 
BRANCH  58  61
ATOM     61  C35 non d ame     -35.475   5.254  28.996  0.00  0.00    -0.034 A 
ATOM     62  C30 non d ame     -35.166   5.777  30.248  0.00  0.00    -0.075 A 
ATOM     63  C31 non d ame     -36.185   6.066  31.155  0.00  0.00    -0.082 A 
ATOM     64  H49 non d ame     -34.126   5.958  30.519  0.00  0.00     0.084 H 
ATOM     65  C32 non d ame     -37.517   5.829  30.806  0.00  0.00    -0.083 A 
ATOM     66  H50 non d ame     -35.939   6.477  32.134  0.00  0.00     0.083 H 
ATOM     67  C33 non d ame     -37.820   5.304  29.557  0.00  0.00    -0.082 A 
ATOM     68  H51 non d ame     -38.320   6.054  31.508  0.00  0.00     0.083 H 
ATOM     69  C34 non d ame     -36.805   5.015  28.647  0.00  0.00    -0.075 A 
ATOM     70  H52 non d ame     -38.861   5.118  29.288  0.00  0.00     0.083 H 
ATOM     71  H53 non d ame     -37.052   4.604  27.668  0.00  0.00     0.084 H 
ENDBRANCH  58  61
ENDBRANCH  57  58
ENDBRANCH  55  57
ENDBRANCH  52  55
ENDBRANCH  49  52
ENDBRANCH  47  49
BRANCH  47  72
ATOM     72  C24 non d ame     -31.471   7.513  23.925  0.00  0.00    -0.039 C 
ATOM     73  H35 non d ame     -31.139   7.758  24.934  0.00  0.00     0.036 H 
ATOM     74  H36 non d ame     -30.873   6.851  23.300  0.00  0.00     0.036 H 
BRANCH  72  75
ATOM     75  C25 non d ame     -31.633   8.894  23.130  0.00  0.00    -0.001 C 
ATOM     76  C26 non d ame     -30.422   9.050  22.028  0.00  0.00    -0.035 C 
ATOM     77  C27 non d ame     -29.835  10.260  22.193  0.00  0.00     0.085 C 
ATOM     78  H38 non d ame     -29.621   8.345  22.250  0.00  0.00     0.036 H 
ATOM     79  H39 non d ame     -30.838   9.104  21.022  0.00  0.00     0.036 H 
ATOM     80  N5  non d ame     -30.316  10.807  23.515  0.00  0.00    -0.049 N 
ATOM     81  H40 non d ame     -28.765  10.058  22.260  0.00  0.00     0.075 H 
ATOM     82  H41 non d ame     -30.223  10.884  21.388  0.00  0.00     0.075 H 
ATOM     83  C28 non d ame     -31.587   9.905  23.934  0.00  0.00     0.193 C 
ATOM     84  H42 non d ame     -29.573  10.645  24.180  0.00  0.00     0.280 HD
ATOM     85  H43 non d ame     -30.635  11.749  23.335  0.00  0.00     0.280 HD
ATOM     86  H44 non d ame     -32.600  10.290  23.826  0.00  0.00     0.129 H 
ATOM     87  H37 non d ame     -32.651   9.050  22.774  0.00  0.00     0.046 H 
BRANCH  83  88
ATOM     88  O6  non d ame     -31.476   9.501  25.301  0.00  0.00    -0.369 OA
ATOM     89  H45 non d ame     -32.326   9.602  25.734  0.00  0.00     0.212 HD
ENDBRANCH  83  88
ENDBRANCH  72  75
ENDBRANCH  47  72
ENDBRANCH  45  47
ENDBRANCH   1  43
BRANCH   1  90
ATOM     90  C16 non d ame     -36.775   9.229  26.130  0.00  0.00    -0.035 C 
ATOM     91  H21 non d ame     -36.648  10.311  26.167  0.00  0.00     0.037 H 
ATOM     92  H22 non d ame     -37.050   8.745  25.194  0.00  0.00     0.037 H 
BRANCH  90  93
ATOM     93  C17 non d ame     -37.903   8.884  27.154  0.00  0.00    -0.059 C 
ATOM     94  H23 non d ame     -38.624   9.701  27.140  0.00  0.00     0.038 H 
BRANCH  93  95
ATOM     95  C18 non d ame     -38.660   7.572  26.775  0.00  0.00    -0.073 C 
ATOM     96  H24 non d ame     -38.084   7.020  26.033  0.00  0.00     0.028 H 
ATOM     97  H25 non d ame     -38.787   6.956  27.666  0.00  0.00     0.028 H 
ATOM     98  H26 non d ame     -39.638   7.821  26.365  0.00  0.00     0.028 H 
ENDBRANCH  93  95
BRANCH  93  99
ATOM     99  C19 non d ame     -37.342   8.798  28.576  0.00  0.00    -0.073 C 
ATOM    100  H27 non d ame     -37.692   9.652  29.157  0.00  0.00     0.028 H 
ATOM    101  H28 non d ame     -37.683   7.876  29.046  0.00  0.00     0.028 H 
ATOM    102  H29 non d ame     -36.253   8.805  28.539  0.00  0.00     0.028 H 
ENDBRANCH  93  99
ENDBRANCH  90  93
ENDBRANCH   1  90
TORSDOF 26
ENDMDL
MODEL 20
REMARK VINA RESULT:      -6.5      2.982      7.588
REMARK  26 active torsions:
REMARK  status: ('A' for Active; 'I' for Inactive)
REMARK    1  A    between atoms: C2_2  and  C3_3 
REMARK    2  A    between atoms: C4_6  and  C5_7 
REMARK       I    between atoms: C5_7  and  N2_9 
REMARK    3  A    between atoms: N2_9  and  C6_10 
REMARK    4  A    between atoms: C6_10  and  C7_11 
REMARK    5  A    between atoms: C6_10  and  C8_13 
REMARK       I    between atoms: C7_11  and  N3_14 
REMARK    6  A    between atoms: N3_14  and  C9_15 
REMARK    7  A    between atoms: C9_15  and  C10_16 
REMARK    8  A    between atoms: C9_15  and  C11_18 
REMARK       I    between atoms: C10_16  and  N4_21 
REMARK    9  A    between atoms: C11_18  and  C12_19 
REMARK   10  A    between atoms: C11_18  and  C13_20 
REMARK   11  A    between atoms: N4_21  and  C14_22 
REMARK   12  A    between atoms: C14_22  and  C15_23 
REMARK   13  A    between atoms: C14_22  and  C16_25 
REMARK       I    between atoms: C15_23  and  N6_40 
REMARK   14  A    between atoms: C16_25  and  C17_26 
REMARK   15  A    between atoms: C17_26  and  C18_27 
REMARK   16  A    between atoms: C17_26  and  C19_28 
REMARK   17  A    between atoms: C20_29  and  C21_30 
REMARK   18  A    between atoms: C20_29  and  C24_33 
REMARK   19  A    between atoms: C20_29  and  N6_40 
REMARK   20  A    between atoms: C21_30  and  C22_31 
REMARK   21  A    between atoms: C22_31  and  C23_32 
REMARK   22  A    between atoms: C23_32  and  O8_43 
REMARK   23  A    between atoms: C24_33  and  C25_34 
REMARK   24  A    between atoms: C28_38  and  O6_39 
REMARK   25  A    between atoms: C29_42  and  O8_43 
REMARK   26  A    between atoms: C29_42  and  C35_49 
ROOT
ATOM      1  C14 non d ame     -35.942  10.121  26.219  0.00  0.00     0.089 C 
ATOM      2  H20 non d ame     -36.974   9.965  26.534  0.00  0.00     0.087 H 
ENDROOT
BRANCH   1   3
ATOM      3  N4  non d ame     -35.102  10.007  27.402  0.00  0.00    -0.346 N 
ATOM      4  C10 non d ame     -35.681  10.247  28.774  0.00  0.00     0.241 C 
ATOM      5  O4  non d ame     -36.825  10.534  28.901  0.00  0.00    -0.271 OA
ATOM      6  H19 non d ame     -34.130   9.764  27.273  0.00  0.00     0.163 HD
BRANCH   4   7
ATOM      7  C9  non d ame     -34.798  10.119  29.987  0.00  0.00     0.092 C 
ATOM      8  H11 non d ame     -34.108   9.287  29.843  0.00  0.00     0.088 H 
BRANCH   7   9
ATOM      9  N3  non d ame     -33.990  11.332  30.135  0.00  0.00    -0.346 N 
ATOM     10  C7  non d ame     -32.736  11.453  29.431  0.00  0.00     0.240 C 
ATOM     11  O3  non d ame     -32.363  10.582  28.744  0.00  0.00    -0.271 OA
ATOM     12  H10 non d ame     -34.298  12.091  30.725  0.00  0.00     0.163 HD
BRANCH  10  13
ATOM     13  C6  non d ame     -31.878  12.746  29.594  0.00  0.00     0.086 C 
ATOM     14  H6  non d ame     -31.129  12.857  28.810  0.00  0.00     0.086 H 
BRANCH  13  15
ATOM     15  N2  non d ame     -32.751  13.905  29.501  0.00  0.00    -0.343 N 
ATOM     16  C5  non d ame     -32.554  14.871  28.417  0.00  0.00     0.273 C 
ATOM     17  O2  non d ame     -31.691  14.707  27.627  0.00  0.00    -0.266 OA
ATOM     18  H5  non d ame     -33.484  14.039  30.183  0.00  0.00     0.163 HD
BRANCH  16  19
ATOM     19  C4  non d ame     -33.470  16.099  28.306  0.00  0.00     0.154 A 
ATOM     20  C1  non d ame     -34.855  16.116  27.945  0.00  0.00    -0.017 A 
ATOM     21  C2  non d ame     -35.226  17.479  27.991  0.00  0.00     0.077 A 
ATOM     22  H1  non d ame     -35.492  15.271  27.687  0.00  0.00     0.091 H 
ATOM     23  O1  non d ame     -34.172  18.156  28.342  0.00  0.00    -0.218 OA
ATOM     24  N1  non d ame     -33.135  17.373  28.530  0.00  0.00    -0.123 NA
BRANCH  21  25
ATOM     25  C3  non d ame     -36.606  18.048  27.688  0.00  0.00    -0.029 C 
ATOM     26  H2  non d ame     -36.853  18.813  28.424  0.00  0.00     0.036 H 
ATOM     27  H3  non d ame     -36.605  18.490  26.691  0.00  0.00     0.036 H 
ATOM     28  H4  non d ame     -37.346  17.250  27.731  0.00  0.00     0.036 H 
ENDBRANCH  21  25
ENDBRANCH  16  19
ENDBRANCH  13  15
BRANCH  13  29
ATOM     29  C8  non d ame     -31.185  12.728  30.933  0.00  0.00    -0.049 C 
ATOM     30  H7  non d ame     -31.927  12.637  31.725  0.00  0.00     0.030 H 
ATOM     31  H8  non d ame     -30.503  11.879  30.976  0.00  0.00     0.030 H 
ATOM     32  H9  non d ame     -30.624  13.653  31.065  0.00  0.00     0.030 H 
ENDBRANCH  13  29
ENDBRANCH  10  13
ENDBRANCH   7   9
BRANCH   7  33
ATOM     33  C11 non d ame     -35.682   9.931  31.254  0.00  0.00    -0.033 C 
ATOM     34  H12 non d ame     -36.699  10.224  30.992  0.00  0.00     0.042 H 
BRANCH  33  35
ATOM     35  C12 non d ame     -35.725   8.436  31.702  0.00  0.00    -0.071 C 
ATOM     36  H13 non d ame     -35.181   7.826  30.982  0.00  0.00     0.028 H 
ATOM     37  H14 non d ame     -35.263   8.339  32.684  0.00  0.00     0.028 H 
ATOM     38  H15 non d ame     -36.761   8.102  31.752  0.00  0.00     0.028 H 
ENDBRANCH  33  35
BRANCH  33  39
ATOM     39  C13 non d ame     -35.199  10.857  32.417  0.00  0.00    -0.071 C 
ATOM     40  H16 non d ame     -35.562  10.467  33.368  0.00  0.00     0.028 H 
ATOM     41  H17 non d ame     -34.109  10.887  32.428  0.00  0.00     0.028 H 
ATOM     42  H18 non d ame     -35.587  11.863  32.265  0.00  0.00     0.028 H 
ENDBRANCH  33  39
ENDBRANCH   7  33
ENDBRANCH   4   7
ENDBRANCH   1   3
BRANCH   1  43
ATOM     43  C15 non d ame     -35.478   9.063  25.179  0.00  0.00     0.240 C 
ATOM     44  O5  non d ame     -36.276   8.338  24.678  0.00  0.00    -0.271 OA
ATOM     45  N6  non d ame     -34.041   8.960  24.798  0.00  0.00    -0.355 N 
ATOM     46  H46 non d ame     -33.355   9.574  25.213  0.00  0.00     0.162 HD
BRANCH  45  47
ATOM     47  C20 non d ame     -33.616   7.949  23.805  0.00  0.00     0.013 C 
ATOM     48  H30 non d ame     -34.512   7.482  23.397  0.00  0.00     0.072 H 
BRANCH  47  49
ATOM     49  C21 non d ame     -32.756   6.909  24.487  0.00  0.00    -0.038 C 
ATOM     50  H31 non d ame     -32.525   6.168  23.720  0.00  0.00     0.036 H 
ATOM     51  H32 non d ame     -31.952   7.462  24.970  0.00  0.00     0.036 H 
BRANCH  49  52
ATOM     52  C22 non d ame     -33.503   6.156  25.609  0.00  0.00     0.018 C 
ATOM     53  H33 non d ame     -34.540   6.485  25.546  0.00  0.00     0.048 H 
ATOM     54  H34 non d ame     -33.258   5.102  25.470  0.00  0.00     0.048 H 
BRANCH  52  55
ATOM     55  C23 non d ame     -33.022   6.523  27.039  0.00  0.00     0.259 C 
ATOM     56  O7  non d ame     -33.290   7.579  27.514  0.00  0.00    -0.265 OA
BRANCH  55  57
ATOM     57  O8  non d ame     -32.241   5.587  27.773  0.00  0.00    -0.317 OA
BRANCH  57  58
ATOM     58  C29 non d ame     -32.916   4.356  28.049  0.00  0.00     0.052 C 
ATOM     59  H47 non d ame     -33.870   4.420  27.527  0.00  0.00     0.082 H 
ATOM     60  H48 non d ame     -32.207   3.568  27.798  0.00  0.00     0.082 H 
BRANCH  58  61
ATOM     61  C35 non d ame     -33.196   4.295  29.575  0.00  0.00    -0.034 A 
ATOM     62  C30 non d ame     -34.258   5.012  30.117  0.00  0.00    -0.075 A 
ATOM     63  C31 non d ame     -34.509   4.958  31.488  0.00  0.00    -0.082 A 
ATOM     64  H49 non d ame     -34.892   5.617  29.470  0.00  0.00     0.084 H 
ATOM     65  C32 non d ame     -33.692   4.184  32.317  0.00  0.00    -0.083 A 
ATOM     66  H50 non d ame     -35.343   5.520  31.910  0.00  0.00     0.083 H 
ATOM     67  C33 non d ame     -32.632   3.473  31.772  0.00  0.00    -0.082 A 
ATOM     68  H51 non d ame     -33.883   4.135  33.389  0.00  0.00     0.083 H 
ATOM     69  C34 non d ame     -32.379   3.523  30.402  0.00  0.00    -0.075 A 
ATOM     70  H52 non d ame     -31.995   2.872  32.421  0.00  0.00     0.083 H 
ATOM     71  H53 non d ame     -31.545   2.960  29.981  0.00  0.00     0.084 H 
ENDBRANCH  58  61
ENDBRANCH  57  58
ENDBRANCH  55  57
ENDBRANCH  52  55
ENDBRANCH  49  52
ENDBRANCH  47  49
BRANCH  47  72
ATOM     72  C24 non d ame     -32.815   8.623  22.693  0.00  0.00    -0.039 C 
ATOM     73  H35 non d ame     -32.818   7.913  21.864  0.00  0.00     0.036 H 
ATOM     74  H36 non d ame     -33.264   9.608  22.568  0.00  0.00     0.036 H 
BRANCH  72  75
ATOM     75  C25 non d ame     -31.287   8.850  23.116  0.00  0.00    -0.001 C 
ATOM     76  C26 non d ame     -31.001  10.454  23.337  0.00  0.00    -0.035 C 
ATOM     77  C27 non d ame     -29.908  10.806  22.618  0.00  0.00     0.085 C 
ATOM     78  H38 non d ame     -31.802  11.042  22.889  0.00  0.00     0.036 H 
ATOM     79  H39 non d ame     -30.699  10.641  24.368  0.00  0.00     0.036 H 
ATOM     80  N5  non d ame     -29.618   9.667  21.671  0.00  0.00    -0.049 N 
ATOM     81  H40 non d ame     -30.209  11.681  22.041  0.00  0.00     0.075 H 
ATOM     82  H41 non d ame     -29.096  10.882  23.341  0.00  0.00     0.075 H 
ATOM     83  C28 non d ame     -30.480   8.412  22.208  0.00  0.00     0.193 C 
ATOM     84  H42 non d ame     -29.980   9.944  20.770  0.00  0.00     0.280 HD
ATOM     85  H43 non d ame     -28.636   9.452  21.776  0.00  0.00     0.280 HD
ATOM     86  H44 non d ame     -29.997   7.599  22.748  0.00  0.00     0.129 H 
ATOM     87  H37 non d ame     -30.974   8.176  23.913  0.00  0.00     0.046 H 
BRANCH  83  88
ATOM     88  O6  non d ame     -31.174   7.791  21.124  0.00  0.00    -0.369 OA
ATOM     89  H45 non d ame     -32.117   7.802  21.300  0.00  0.00     0.212 HD
ENDBRANCH  83  88
ENDBRANCH  72  75
ENDBRANCH  47  72
ENDBRANCH  45  47
ENDBRANCH   1  43
BRANCH   1  90
ATOM     90  C16 non d ame     -35.788  11.516  25.634  0.00  0.00    -0.035 C 
ATOM     91  H21 non d ame     -35.226  12.080  26.377  0.00  0.00     0.037 H 
ATOM     92  H22 non d ame     -35.375  11.366  24.637  0.00  0.00     0.037 H 
BRANCH  90  93
ATOM     93  C17 non d ame     -37.143  12.269  25.443  0.00  0.00    -0.059 C 
ATOM     94  H23 non d ame     -37.174  13.083  26.167  0.00  0.00     0.038 H 
BRANCH  93  95
ATOM     95  C18 non d ame     -37.275  12.892  24.017  0.00  0.00    -0.073 C 
ATOM     96  H24 non d ame     -36.710  12.292  23.304  0.00  0.00     0.028 H 
ATOM     97  H25 non d ame     -38.325  12.909  23.724  0.00  0.00     0.028 H 
ATOM     98  H26 non d ame     -36.884  13.909  24.026  0.00  0.00     0.028 H 
ENDBRANCH  93  95
BRANCH  93  99
ATOM     99  C19 non d ame     -38.328  11.347  25.746  0.00  0.00    -0.073 C 
ATOM    100  H27 non d ame     -38.905  11.757  26.576  0.00  0.00     0.028 H 
ATOM    101  H28 non d ame     -38.965  11.272  24.864  0.00  0.00     0.028 H 
ATOM    102  H29 non d ame     -37.959  10.357  26.012  0.00  0.00     0.028 H 
ENDBRANCH  93  99
ENDBRANCH  90  93
ENDBRANCH   1  90
TORSDOF 26
ENDMDL
