MODEL 1
REMARK VINA RESULT:      -7.3      0.000      0.000
REMARK  26 active torsions:
REMARK  status: ('A' for Active; 'I' for Inactive)
REMARK    1  A    between atoms: C2_2  and  C3_3 
REMARK    2  A    between atoms: C4_6  and  C5_7 
REMARK       I    between atoms: C5_7  and  N2_9 
REMARK    3  A    between atoms: N2_9  and  C6_10 
REMARK    4  A    between atoms: C6_10  and  C7_11 
REMARK    5  A    between atoms: C6_10  and  C8_13 
REMARK       I    between atoms: C7_11  and  N3_14 
REMARK    6  A    between atoms: N3_14  and  C9_15 
REMARK    7  A    between atoms: C9_15  and  C10_16 
REMARK    8  A    between atoms: C9_15  and  C11_18 
REMARK       I    between atoms: C10_16  and  N4_21 
REMARK    9  A    between atoms: C11_18  and  C12_19 
REMARK   10  A    between atoms: C11_18  and  C13_20 
REMARK   11  A    between atoms: N4_21  and  C14_22 
REMARK   12  A    between atoms: C14_22  and  C15_23 
REMARK   13  A    between atoms: C14_22  and  C16_25 
REMARK       I    between atoms: C15_23  and  N6_40 
REMARK   14  A    between atoms: C16_25  and  C17_26 
REMARK   15  A    between atoms: C17_26  and  C18_27 
REMARK   16  A    between atoms: C17_26  and  C19_28 
REMARK   17  A    between atoms: C20_29  and  C21_30 
REMARK   18  A    between atoms: C20_29  and  C24_33 
REMARK   19  A    between atoms: C20_29  and  N6_40 
REMARK   20  A    between atoms: C21_30  and  C22_31 
REMARK   21  A    between atoms: C22_31  and  C23_32 
REMARK   22  A    between atoms: C23_32  and  O8_43 
REMARK   23  A    between atoms: C24_33  and  C25_34 
REMARK   24  A    between atoms: C28_38  and  O6_39 
REMARK   25  A    between atoms: C29_42  and  O8_43 
REMARK   26  A    between atoms: C29_42  and  C35_49 
ROOT
ATOM      1  C14 non d ame     -30.709  14.421  23.769  0.00  0.00     0.089 C 
ATOM      2  H20 non d ame     -29.624  14.441  23.655  0.00  0.00     0.087 H 
ENDROOT
BRANCH   1   3
ATOM      3  N4  non d ame     -31.091  13.053  24.083  0.00  0.00    -0.346 N 
ATOM      4  C10 non d ame     -30.514  11.901  23.297  0.00  0.00     0.241 C 
ATOM      5  O4  non d ame     -29.747  12.101  22.415  0.00  0.00    -0.271 OA
ATOM      6  H19 non d ame     -31.747  12.904  24.837  0.00  0.00     0.163 HD
BRANCH   4   7
ATOM      7  C9  non d ame     -30.917  10.491  23.640  0.00  0.00     0.092 C 
ATOM      8  H11 non d ame     -30.370  10.167  24.526  0.00  0.00     0.088 H 
BRANCH   7   9
ATOM      9  N3  non d ame     -32.343  10.457  23.974  0.00  0.00    -0.346 N 
ATOM     10  C7  non d ame     -32.765  10.564  25.349  0.00  0.00     0.240 C 
ATOM     11  O3  non d ame     -31.968  10.676  26.200  0.00  0.00    -0.271 OA
ATOM     12  H10 non d ame     -33.042  10.358  23.252  0.00  0.00     0.163 HD
BRANCH  10  13
ATOM     13  C6  non d ame     -34.285  10.524  25.699  0.00  0.00     0.086 C 
ATOM     14  H6  non d ame     -34.469  10.331  26.756  0.00  0.00     0.086 H 
BRANCH  13  15
ATOM     15  N2  non d ame     -34.870  11.822  25.405  0.00  0.00    -0.343 N 
ATOM     16  C5  non d ame     -35.836  12.405  26.339  0.00  0.00     0.273 C 
ATOM     17  O2  non d ame     -36.137  11.822  27.322  0.00  0.00    -0.266 OA
ATOM     18  H5  non d ame     -34.610  12.311  24.561  0.00  0.00     0.163 HD
BRANCH  16  19
ATOM     19  C4  non d ame     -36.461  13.777  26.042  0.00  0.00     0.154 A 
ATOM     20  C1  non d ame     -36.404  14.505  24.811  0.00  0.00    -0.017 A 
ATOM     21  C2  non d ame     -37.128  15.693  25.057  0.00  0.00     0.077 A 
ATOM     22  H1  non d ame     -35.912  14.217  23.882  0.00  0.00     0.091 H 
ATOM     23  O1  non d ame     -37.550  15.641  26.287  0.00  0.00    -0.218 OA
ATOM     24  N1  non d ame     -37.173  14.533  26.882  0.00  0.00    -0.123 NA
BRANCH  21  25
ATOM     25  C3  non d ame     -37.371  16.823  24.065  0.00  0.00    -0.029 C 
ATOM     26  H2  non d ame     -37.596  17.741  24.608  0.00  0.00     0.036 H 
ATOM     27  H3  non d ame     -36.479  16.971  23.457  0.00  0.00     0.036 H 
ATOM     28  H4  non d ame     -38.211  16.567  23.421  0.00  0.00     0.036 H 
ENDBRANCH  21  25
ENDBRANCH  16  19
ENDBRANCH  13  15
BRANCH  13  29
ATOM     29  C8  non d ame     -34.964   9.454  24.881  0.00  0.00    -0.049 C 
ATOM     30  H7  non d ame     -34.475   8.496  25.059  0.00  0.00     0.030 H 
ATOM     31  H8  non d ame     -36.012   9.386  25.172  0.00  0.00     0.030 H 
ATOM     32  H9  non d ame     -34.895   9.707  23.823  0.00  0.00     0.030 H 
ENDBRANCH  13  29
ENDBRANCH  10  13
ENDBRANCH   7   9
BRANCH   7  33
ATOM     33  C11 non d ame     -30.650   9.565  22.418  0.00  0.00    -0.033 C 
ATOM     34  H12 non d ame     -30.525  10.203  21.543  0.00  0.00     0.042 H 
BRANCH  33  35
ATOM     35  C12 non d ame     -29.331   8.751  22.598  0.00  0.00    -0.071 C 
ATOM     36  H13 non d ame     -29.324   7.912  21.902  0.00  0.00     0.028 H 
ATOM     37  H14 non d ame     -28.476   9.396  22.397  0.00  0.00     0.028 H 
ATOM     38  H15 non d ame     -29.271   8.375  23.620  0.00  0.00     0.028 H 
ENDBRANCH  33  35
BRANCH  33  39
ATOM     39  C13 non d ame     -31.867   8.620  22.156  0.00  0.00    -0.071 C 
ATOM     40  H16 non d ame     -31.635   7.618  22.519  0.00  0.00     0.028 H 
ATOM     41  H17 non d ame     -32.744   9.002  22.680  0.00  0.00     0.028 H 
ATOM     42  H18 non d ame     -32.073   8.581  21.087  0.00  0.00     0.028 H 
ENDBRANCH  33  39
ENDBRANCH   7  33
ENDBRANCH   4   7
ENDBRANCH   1   3
BRANCH   1  43
ATOM     43  C15 non d ame     -31.195  15.348  24.919  0.00  0.00     0.240 C 
ATOM     44  O5  non d ame     -31.106  16.527  24.806  0.00  0.00    -0.271 OA
ATOM     45  N6  non d ame     -31.782  14.765  26.159  0.00  0.00    -0.355 N 
ATOM     46  H46 non d ame     -31.868  13.764  26.265  0.00  0.00     0.162 HD
BRANCH  45  47
ATOM     47  C20 non d ame     -32.242  15.660  27.244  0.00  0.00     0.013 C 
ATOM     48  H30 non d ame     -31.675  16.588  27.177  0.00  0.00     0.072 H 
BRANCH  47  49
ATOM     49  C21 non d ame     -31.991  14.996  28.579  0.00  0.00    -0.038 C 
ATOM     50  H31 non d ame     -30.906  14.923  28.672  0.00  0.00     0.036 H 
ATOM     51  H32 non d ame     -32.563  15.572  29.306  0.00  0.00     0.036 H 
BRANCH  49  52
ATOM     52  C22 non d ame     -32.533  13.552  28.643  0.00  0.00     0.018 C 
ATOM     53  H33 non d ame     -33.362  13.578  29.348  0.00  0.00     0.048 H 
ATOM     54  H34 non d ame     -32.708  13.257  27.607  0.00  0.00     0.048 H 
BRANCH  52  55
ATOM     55  C23 non d ame     -31.516  12.526  29.214  0.00  0.00     0.259 C 
ATOM     56  O7  non d ame     -30.384  12.533  28.852  0.00  0.00    -0.265 OA
BRANCH  55  57
ATOM     57  O8  non d ame     -31.956  11.564  30.166  0.00  0.00    -0.317 OA
BRANCH  57  58
ATOM     58  C29 non d ame     -32.854  10.587  29.633  0.00  0.00     0.052 C 
ATOM     59  H47 non d ame     -33.404  11.093  28.840  0.00  0.00     0.082 H 
ATOM     60  H48 non d ame     -32.239   9.717  29.401  0.00  0.00     0.082 H 
BRANCH  58  61
ATOM     61  C35 non d ame     -33.855  10.195  30.752  0.00  0.00    -0.034 A 
ATOM     62  C30 non d ame     -34.213  11.125  31.723  0.00  0.00    -0.075 A 
ATOM     63  C31 non d ame     -35.113  10.773  32.729  0.00  0.00    -0.082 A 
ATOM     64  H49 non d ame     -33.789  12.129  31.697  0.00  0.00     0.084 H 
ATOM     65  C32 non d ame     -35.652   9.485  32.763  0.00  0.00    -0.083 A 
ATOM     66  H50 non d ame     -35.392  11.505  33.488  0.00  0.00     0.083 H 
ATOM     67  C33 non d ame     -35.290   8.559  31.794  0.00  0.00    -0.082 A 
ATOM     68  H51 non d ame     -36.357   9.202  33.545  0.00  0.00     0.083 H 
ATOM     69  C34 non d ame     -34.393   8.907  30.786  0.00  0.00    -0.075 A 
ATOM     70  H52 non d ame     -35.711   7.554  31.824  0.00  0.00     0.083 H 
ATOM     71  H53 non d ame     -34.114   8.175  30.028  0.00  0.00     0.084 H 
ENDBRANCH  58  61
ENDBRANCH  57  58
ENDBRANCH  55  57
ENDBRANCH  52  55
ENDBRANCH  49  52
ENDBRANCH  47  49
BRANCH  47  72
ATOM     72  C24 non d ame     -33.735  15.938  27.086  0.00  0.00    -0.039 C 
ATOM     73  H35 non d ame     -34.060  15.313  26.253  0.00  0.00     0.036 H 
ATOM     74  H36 non d ame     -34.164  15.792  28.076  0.00  0.00     0.036 H 
BRANCH  72  75
ATOM     75  C25 non d ame     -34.013  17.460  26.670  0.00  0.00    -0.001 C 
ATOM     76  C26 non d ame     -32.721  18.394  27.070  0.00  0.00    -0.035 C 
ATOM     77  C27 non d ame     -33.157  19.460  27.785  0.00  0.00     0.085 C 
ATOM     78  H38 non d ame     -32.078  17.863  27.772  0.00  0.00     0.036 H 
ATOM     79  H39 non d ame     -32.295  18.846  26.175  0.00  0.00     0.036 H 
ATOM     80  N5  non d ame     -34.582  19.167  28.189  0.00  0.00    -0.049 N 
ATOM     81  H40 non d ame     -32.533  19.486  28.679  0.00  0.00     0.075 H 
ATOM     82  H41 non d ame     -33.150  20.299  27.090  0.00  0.00     0.075 H 
ATOM     83  C28 non d ame     -35.057  17.926  27.272  0.00  0.00     0.193 C 
ATOM     84  H42 non d ame     -34.551  18.863  29.151  0.00  0.00     0.280 HD
ATOM     85  H43 non d ame     -35.124  19.981  27.934  0.00  0.00     0.280 HD
ATOM     86  H44 non d ame     -35.720  18.087  26.423  0.00  0.00     0.129 H 
ATOM     87  H37 non d ame     -34.393  17.548  25.652  0.00  0.00     0.046 H 
BRANCH  83  88
ATOM     88  O6  non d ame     -35.702  16.937  28.077  0.00  0.00    -0.369 OA
ATOM     89  H45 non d ame     -35.249  16.097  27.975  0.00  0.00     0.212 HD
ENDBRANCH  83  88
ENDBRANCH  72  75
ENDBRANCH  47  72
ENDBRANCH  45  47
ENDBRANCH   1  43
BRANCH   1  90
ATOM     90  C16 non d ame     -31.371  14.834  22.465  0.00  0.00    -0.035 C 
ATOM     91  H21 non d ame     -31.581  13.903  21.940  0.00  0.00     0.037 H 
ATOM     92  H22 non d ame     -32.189  15.493  22.753  0.00  0.00     0.037 H 
BRANCH  90  93
ATOM     93  C17 non d ame     -30.442  15.668  21.526  0.00  0.00    -0.059 C 
ATOM     94  H23 non d ame     -30.706  16.718  21.646  0.00  0.00     0.038 H 
BRANCH  93  95
ATOM     95  C18 non d ame     -28.933  15.511  21.900  0.00  0.00    -0.073 C 
ATOM     96  H24 non d ame     -28.536  16.472  22.224  0.00  0.00     0.028 H 
ATOM     97  H25 non d ame     -28.833  14.786  22.708  0.00  0.00     0.028 H 
ATOM     98  H26 non d ame     -28.377  15.163  21.029  0.00  0.00     0.028 H 
ENDBRANCH  93  95
BRANCH  93  99
ATOM     99  C19 non d ame     -30.680  15.305  20.058  0.00  0.00    -0.073 C 
ATOM    100  H27 non d ame     -31.748  15.340  19.843  0.00  0.00     0.028 H 
ATOM    101  H28 non d ame     -30.158  16.016  19.418  0.00  0.00     0.028 H 
ATOM    102  H29 non d ame     -30.303  14.300  19.867  0.00  0.00     0.028 H 
ENDBRANCH  93  99
ENDBRANCH  90  93
ENDBRANCH   1  90
TORSDOF 26
ENDMDL
MODEL 2
REMARK VINA RESULT:      -7.2      1.635      2.369
REMARK  26 active torsions:
REMARK  status: ('A' for Active; 'I' for Inactive)
REMARK    1  A    between atoms: C2_2  and  C3_3 
REMARK    2  A    between atoms: C4_6  and  C5_7 
REMARK       I    between atoms: C5_7  and  N2_9 
REMARK    3  A    between atoms: N2_9  and  C6_10 
REMARK    4  A    between atoms: C6_10  and  C7_11 
REMARK    5  A    between atoms: C6_10  and  C8_13 
REMARK       I    between atoms: C7_11  and  N3_14 
REMARK    6  A    between atoms: N3_14  and  C9_15 
REMARK    7  A    between atoms: C9_15  and  C10_16 
REMARK    8  A    between atoms: C9_15  and  C11_18 
REMARK       I    between atoms: C10_16  and  N4_21 
REMARK    9  A    between atoms: C11_18  and  C12_19 
REMARK   10  A    between atoms: C11_18  and  C13_20 
REMARK   11  A    between atoms: N4_21  and  C14_22 
REMARK   12  A    between atoms: C14_22  and  C15_23 
REMARK   13  A    between atoms: C14_22  and  C16_25 
REMARK       I    between atoms: C15_23  and  N6_40 
REMARK   14  A    between atoms: C16_25  and  C17_26 
REMARK   15  A    between atoms: C17_26  and  C18_27 
REMARK   16  A    between atoms: C17_26  and  C19_28 
REMARK   17  A    between atoms: C20_29  and  C21_30 
REMARK   18  A    between atoms: C20_29  and  C24_33 
REMARK   19  A    between atoms: C20_29  and  N6_40 
REMARK   20  A    between atoms: C21_30  and  C22_31 
REMARK   21  A    between atoms: C22_31  and  C23_32 
REMARK   22  A    between atoms: C23_32  and  O8_43 
REMARK   23  A    between atoms: C24_33  and  C25_34 
REMARK   24  A    between atoms: C28_38  and  O6_39 
REMARK   25  A    between atoms: C29_42  and  O8_43 
REMARK   26  A    between atoms: C29_42  and  C35_49 
ROOT
ATOM      1  C14 non d ame     -31.148  14.122  24.498  0.00  0.00     0.089 C 
ATOM      2  H20 non d ame     -30.177  13.694  24.751  0.00  0.00     0.087 H 
ENDROOT
BRANCH   1   3
ATOM      3  N4  non d ame     -32.146  13.078  24.678  0.00  0.00    -0.346 N 
ATOM      4  C10 non d ame     -31.962  12.022  25.739  0.00  0.00     0.241 C 
ATOM      5  O4  non d ame     -31.000  12.031  26.434  0.00  0.00    -0.271 OA
ATOM      6  H19 non d ame     -32.956  13.087  24.075  0.00  0.00     0.163 HD
BRANCH   4   7
ATOM      7  C9  non d ame     -33.008  10.954  25.915  0.00  0.00     0.092 C 
ATOM      8  H11 non d ame     -33.184  10.795  26.980  0.00  0.00     0.088 H 
BRANCH   7   9
ATOM      9  N3  non d ame     -34.272  11.406  25.329  0.00  0.00    -0.346 N 
ATOM     10  C7  non d ame     -35.283  12.003  26.167  0.00  0.00     0.240 C 
ATOM     11  O3  non d ame     -35.095  12.127  27.315  0.00  0.00    -0.271 OA
ATOM     12  H10 non d ame     -34.450  11.304  24.340  0.00  0.00     0.163 HD
BRANCH  10  13
ATOM     13  C6  non d ame     -36.629  12.480  25.537  0.00  0.00     0.086 C 
ATOM     14  H6  non d ame     -37.490  12.259  26.167  0.00  0.00     0.086 H 
BRANCH  13  15
ATOM     15  N2  non d ame     -36.589  13.924  25.378  0.00  0.00    -0.343 N 
ATOM     16  C5  non d ame     -37.585  14.753  26.062  0.00  0.00     0.273 C 
ATOM     17  O2  non d ame     -38.415  14.248  26.735  0.00  0.00    -0.266 OA
ATOM     18  H5  non d ame     -35.878  14.347  24.798  0.00  0.00     0.163 HD
BRANCH  16  19
ATOM     19  C4  non d ame     -37.554  16.281  25.905  0.00  0.00     0.154 A 
ATOM     20  C1  non d ame     -37.148  17.023  24.751  0.00  0.00    -0.017 A 
ATOM     21  C2  non d ame     -37.303  18.379  25.117  0.00  0.00     0.077 A 
ATOM     22  H1  non d ame     -36.793  16.638  23.795  0.00  0.00     0.091 H 
ATOM     23  O1  non d ame     -37.750  18.401  26.339  0.00  0.00    -0.218 OA
ATOM     24  N1  non d ame     -37.903  17.189  26.820  0.00  0.00    -0.123 NA
BRANCH  21  25
ATOM     25  C3  non d ame     -37.006  19.589  24.242  0.00  0.00    -0.029 C 
ATOM     26  H2  non d ame     -36.663  20.414  24.867  0.00  0.00     0.036 H 
ATOM     27  H3  non d ame     -36.229  19.334  23.521  0.00  0.00     0.036 H 
ATOM     28  H4  non d ame     -37.910  19.886  23.713  0.00  0.00     0.036 H 
ENDBRANCH  21  25
ENDBRANCH  16  19
ENDBRANCH  13  15
BRANCH  13  29
ATOM     29  C8  non d ame     -36.822  11.818  24.196  0.00  0.00    -0.049 C 
ATOM     30  H7  non d ame     -36.793  10.736  24.317  0.00  0.00     0.030 H 
ATOM     31  H8  non d ame     -37.787  12.112  23.782  0.00  0.00     0.030 H 
ATOM     32  H9  non d ame     -36.026  12.131  23.519  0.00  0.00     0.030 H 
ENDBRANCH  13  29
ENDBRANCH  10  13
ENDBRANCH   7   9
BRANCH   7  33
ATOM     33  C11 non d ame     -32.544   9.651  25.200  0.00  0.00    -0.033 C 
ATOM     34  H12 non d ame     -31.488   9.771  24.953  0.00  0.00     0.042 H 
BRANCH  33  35
ATOM     35  C12 non d ame     -32.668   8.411  26.139  0.00  0.00    -0.071 C 
ATOM     36  H13 non d ame     -33.637   8.428  26.637  0.00  0.00     0.028 H 
ATOM     37  H14 non d ame     -32.578   7.499  25.550  0.00  0.00     0.028 H 
ATOM     38  H15 non d ame     -31.875   8.440  26.887  0.00  0.00     0.028 H 
ENDBRANCH  33  35
BRANCH  33  39
ATOM     39  C13 non d ame     -33.330   9.433  23.868  0.00  0.00    -0.071 C 
ATOM     40  H16 non d ame     -32.765   8.765  23.217  0.00  0.00     0.028 H 
ATOM     41  H17 non d ame     -34.302   8.991  24.087  0.00  0.00     0.028 H 
ATOM     42  H18 non d ame     -33.472  10.392  23.369  0.00  0.00     0.028 H 
ENDBRANCH  33  39
ENDBRANCH   7  33
ENDBRANCH   4   7
ENDBRANCH   1   3
BRANCH   1  43
ATOM     43  C15 non d ame     -31.517  15.324  25.413  0.00  0.00     0.240 C 
ATOM     44  O5  non d ame     -31.086  16.405  25.171  0.00  0.00    -0.271 OA
ATOM     45  N6  non d ame     -32.416  15.130  26.586  0.00  0.00    -0.355 N 
ATOM     46  H46 non d ame     -32.792  14.217  26.798  0.00  0.00     0.162 HD
BRANCH  45  47
ATOM     47  C20 non d ame     -32.760  16.283  27.446  0.00  0.00     0.013 C 
ATOM     48  H30 non d ame     -31.985  17.040  27.317  0.00  0.00     0.072 H 
BRANCH  47  49
ATOM     49  C21 non d ame     -32.808  15.834  28.889  0.00  0.00    -0.038 C 
ATOM     50  H31 non d ame     -31.904  16.234  29.352  0.00  0.00     0.036 H 
ATOM     51  H32 non d ame     -33.788  16.134  29.258  0.00  0.00     0.036 H 
BRANCH  49  52
ATOM     52  C22 non d ame     -32.733  14.300  29.042  0.00  0.00     0.018 C 
ATOM     53  H33 non d ame     -33.453  14.046  29.819  0.00  0.00     0.048 H 
ATOM     54  H34 non d ame     -32.854  13.897  28.035  0.00  0.00     0.048 H 
BRANCH  52  55
ATOM     55  C23 non d ame     -31.357  13.786  29.547  0.00  0.00     0.259 C 
ATOM     56  O7  non d ame     -30.370  13.982  28.915  0.00  0.00    -0.265 OA
BRANCH  55  57
ATOM     57  O8  non d ame     -31.289  13.064  30.771  0.00  0.00    -0.317 OA
BRANCH  57  58
ATOM     58  C29 non d ame     -31.123  11.652  30.605  0.00  0.00     0.052 C 
ATOM     59  H47 non d ame     -30.625  11.526  29.644  0.00  0.00     0.082 H 
ATOM     60  H48 non d ame     -30.644  11.302  31.518  0.00  0.00     0.082 H 
BRANCH  58  61
ATOM     61  C35 non d ame     -32.534  11.011  30.514  0.00  0.00    -0.034 A 
ATOM     62  C30 non d ame     -32.846  10.161  29.458  0.00  0.00    -0.075 A 
ATOM     63  C31 non d ame     -34.114   9.586  29.376  0.00  0.00    -0.082 A 
ATOM     64  H49 non d ame     -32.100   9.947  28.694  0.00  0.00     0.084 H 
ATOM     65  C32 non d ame     -35.071   9.865  30.355  0.00  0.00    -0.083 A 
ATOM     66  H50 non d ame     -34.355   8.919  28.547  0.00  0.00     0.083 H 
ATOM     67  C33 non d ame     -34.756  10.716  31.405  0.00  0.00    -0.082 A 
ATOM     68  H51 non d ame     -36.064   9.418  30.299  0.00  0.00     0.083 H 
ATOM     69  C34 non d ame     -33.490  11.292  31.492  0.00  0.00    -0.075 A 
ATOM     70  H52 non d ame     -35.506  10.933  32.167  0.00  0.00     0.083 H 
ATOM     71  H53 non d ame     -33.250  11.958  32.321  0.00  0.00     0.084 H 
ENDBRANCH  58  61
ENDBRANCH  57  58
ENDBRANCH  55  57
ENDBRANCH  52  55
ENDBRANCH  49  52
ENDBRANCH  47  49
BRANCH  47  72
ATOM     72  C24 non d ame     -34.121  16.844  27.040  0.00  0.00    -0.039 C 
ATOM     73  H35 non d ame     -34.359  16.366  26.089  0.00  0.00     0.036 H 
ATOM     74  H36 non d ame     -34.767  16.689  27.904  0.00  0.00     0.036 H 
BRANCH  72  75
ATOM     75  C25 non d ame     -34.057  18.422  26.774  0.00  0.00    -0.001 C 
ATOM     76  C26 non d ame     -32.509  18.952  26.926  0.00  0.00    -0.035 C 
ATOM     77  C27 non d ame     -32.491  20.010  27.772  0.00  0.00     0.085 C 
ATOM     78  H38 non d ame     -31.905  18.204  27.440  0.00  0.00     0.036 H 
ATOM     79  H39 non d ame     -32.165  19.376  25.982  0.00  0.00     0.036 H 
ATOM     80  N5  non d ame     -33.831  20.044  28.465  0.00  0.00    -0.049 N 
ATOM     81  H40 non d ame     -31.716  19.783  28.506  0.00  0.00     0.075 H 
ATOM     82  H41 non d ame     -32.398  20.891  27.136  0.00  0.00     0.075 H 
ATOM     83  C28 non d ame     -34.796  19.068  27.615  0.00  0.00     0.193 C 
ATOM     84  H42 non d ame     -33.691  19.640  29.380  0.00  0.00     0.280 HD
ATOM     85  H43 non d ame     -34.174  20.990  28.379  0.00  0.00     0.280 HD
ATOM     86  H44 non d ame     -35.547  19.480  26.943  0.00  0.00     0.129 H 
ATOM     87  H37 non d ame     -34.595  18.711  25.871  0.00  0.00     0.046 H 
BRANCH  83  88
ATOM     88  O6  non d ame     -35.507  18.192  28.492  0.00  0.00    -0.369 OA
ATOM     89  H45 non d ame     -35.638  17.344  28.061  0.00  0.00     0.212 HD
ENDBRANCH  83  88
ENDBRANCH  72  75
ENDBRANCH  47  72
ENDBRANCH  45  47
ENDBRANCH   1  43
BRANCH   1  90
ATOM     90  C16 non d ame     -31.152  14.566  23.044  0.00  0.00    -0.035 C 
ATOM     91  H21 non d ame     -31.676  13.779  22.503  0.00  0.00     0.037 H 
ATOM     92  H22 non d ame     -31.551  15.580  23.053  0.00  0.00     0.037 H 
BRANCH  90  93
ATOM     93  C17 non d ame     -29.726  14.658  22.413  0.00  0.00    -0.059 C 
ATOM     94  H23 non d ame     -29.041  14.998  23.190  0.00  0.00     0.038 H 
BRANCH  93  95
ATOM     95  C18 non d ame     -29.218  13.273  21.901  0.00  0.00    -0.073 C 
ATOM     96  H24 non d ame     -29.691  13.042  20.947  0.00  0.00     0.028 H 
ATOM     97  H25 non d ame     -28.136  13.309  21.769  0.00  0.00     0.028 H 
ATOM     98  H26 non d ame     -29.469  12.501  22.628  0.00  0.00     0.028 H 
ENDBRANCH  93  95
BRANCH  93  99
ATOM     99  C19 non d ame     -29.692  15.699  21.290  0.00  0.00    -0.073 C 
ATOM    100  H27 non d ame     -29.404  16.667  21.701  0.00  0.00     0.028 H 
ATOM    101  H28 non d ame     -28.967  15.396  20.535  0.00  0.00     0.028 H 
ATOM    102  H29 non d ame     -30.679  15.775  20.835  0.00  0.00     0.028 H 
ENDBRANCH  93  99
ENDBRANCH  90  93
ENDBRANCH   1  90
TORSDOF 26
ENDMDL
MODEL 3
REMARK VINA RESULT:      -7.1      3.385      6.743
REMARK  26 active torsions:
REMARK  status: ('A' for Active; 'I' for Inactive)
REMARK    1  A    between atoms: C2_2  and  C3_3 
REMARK    2  A    between atoms: C4_6  and  C5_7 
REMARK       I    between atoms: C5_7  and  N2_9 
REMARK    3  A    between atoms: N2_9  and  C6_10 
REMARK    4  A    between atoms: C6_10  and  C7_11 
REMARK    5  A    between atoms: C6_10  and  C8_13 
REMARK       I    between atoms: C7_11  and  N3_14 
REMARK    6  A    between atoms: N3_14  and  C9_15 
REMARK    7  A    between atoms: C9_15  and  C10_16 
REMARK    8  A    between atoms: C9_15  and  C11_18 
REMARK       I    between atoms: C10_16  and  N4_21 
REMARK    9  A    between atoms: C11_18  and  C12_19 
REMARK   10  A    between atoms: C11_18  and  C13_20 
REMARK   11  A    between atoms: N4_21  and  C14_22 
REMARK   12  A    between atoms: C14_22  and  C15_23 
REMARK   13  A    between atoms: C14_22  and  C16_25 
REMARK       I    between atoms: C15_23  and  N6_40 
REMARK   14  A    between atoms: C16_25  and  C17_26 
REMARK   15  A    between atoms: C17_26  and  C18_27 
REMARK   16  A    between atoms: C17_26  and  C19_28 
REMARK   17  A    between atoms: C20_29  and  C21_30 
REMARK   18  A    between atoms: C20_29  and  C24_33 
REMARK   19  A    between atoms: C20_29  and  N6_40 
REMARK   20  A    between atoms: C21_30  and  C22_31 
REMARK   21  A    between atoms: C22_31  and  C23_32 
REMARK   22  A    between atoms: C23_32  and  O8_43 
REMARK   23  A    between atoms: C24_33  and  C25_34 
REMARK   24  A    between atoms: C28_38  and  O6_39 
REMARK   25  A    between atoms: C29_42  and  O8_43 
REMARK   26  A    between atoms: C29_42  and  C35_49 
ROOT
ATOM      1  C14 non d ame     -32.622  10.461  25.822  0.00  0.00     0.089 C 
ATOM      2  H20 non d ame     -33.526  10.523  25.216  0.00  0.00     0.087 H 
ENDROOT
BRANCH   1   3
ATOM      3  N4  non d ame     -32.097   9.111  25.689  0.00  0.00    -0.346 N 
ATOM      4  C10 non d ame     -32.910   8.042  25.002  0.00  0.00     0.241 C 
ATOM      5  O4  non d ame     -33.985   8.292  24.568  0.00  0.00    -0.271 OA
ATOM      6  H19 non d ame     -31.180   8.918  26.067  0.00  0.00     0.163 HD
BRANCH   4   7
ATOM      7  C9  non d ame     -32.348   6.651  24.867  0.00  0.00     0.092 C 
ATOM      8  H11 non d ame     -31.288   6.666  25.123  0.00  0.00     0.088 H 
BRANCH   7   9
ATOM      9  N3  non d ame     -33.012   5.761  25.823  0.00  0.00    -0.346 N 
ATOM     10  C7  non d ame     -32.676   5.827  27.224  0.00  0.00     0.240 C 
ATOM     11  O3  non d ame     -31.871   6.590  27.599  0.00  0.00    -0.271 OA
ATOM     12  H10 non d ame     -33.706   5.096  25.514  0.00  0.00     0.163 HD
BRANCH  10  13
ATOM     13  C6  non d ame     -33.384   4.874  28.236  0.00  0.00     0.086 C 
ATOM     14  H6  non d ame     -32.782   4.679  29.123  0.00  0.00     0.086 H 
BRANCH  13  15
ATOM     15  N2  non d ame     -34.610   5.504  28.697  0.00  0.00    -0.343 N 
ATOM     16  C5  non d ame     -34.928   5.503  30.127  0.00  0.00     0.273 C 
ATOM     17  O2  non d ame     -34.193   4.991  30.897  0.00  0.00    -0.266 OA
ATOM     18  H5  non d ame     -35.235   5.936  28.032  0.00  0.00     0.163 HD
BRANCH  16  19
ATOM     19  C4  non d ame     -36.220   6.167  30.628  0.00  0.00     0.154 A 
ATOM     20  C1  non d ame     -36.512   7.567  30.674  0.00  0.00    -0.017 A 
ATOM     21  C2  non d ame     -37.816   7.650  31.212  0.00  0.00     0.077 A 
ATOM     22  H1  non d ame     -35.875   8.396  30.366  0.00  0.00     0.091 H 
ATOM     23  O1  non d ame     -38.218   6.434  31.441  0.00  0.00    -0.218 OA
ATOM     24  N1  non d ame     -37.303   5.552  31.110  0.00  0.00    -0.123 NA
BRANCH  21  25
ATOM     25  C3  non d ame     -38.605   8.926  31.471  0.00  0.00    -0.029 C 
ATOM     26  H2  non d ame     -38.344   9.322  32.453  0.00  0.00     0.036 H 
ATOM     27  H3  non d ame     -38.363   9.665  30.707  0.00  0.00     0.036 H 
ATOM     28  H4  non d ame     -39.671   8.707  31.440  0.00  0.00     0.036 H 
ENDBRANCH  21  25
ENDBRANCH  16  19
ENDBRANCH  13  15
BRANCH  13  29
ATOM     29  C8  non d ame     -33.699   3.563  27.561  0.00  0.00    -0.049 C 
ATOM     30  H7  non d ame     -34.590   3.677  26.945  0.00  0.00     0.030 H 
ATOM     31  H8  non d ame     -32.859   3.267  26.933  0.00  0.00     0.030 H 
ATOM     32  H9  non d ame     -33.875   2.798  28.317  0.00  0.00     0.030 H 
ENDBRANCH  13  29
ENDBRANCH  10  13
ENDBRANCH   7   9
BRANCH   7  33
ATOM     33  C11 non d ame     -32.592   6.131  23.421  0.00  0.00    -0.033 C 
ATOM     34  H12 non d ame     -33.401   6.723  22.991  0.00  0.00     0.042 H 
BRANCH  33  35
ATOM     35  C12 non d ame     -31.333   6.335  22.522  0.00  0.00    -0.071 C 
ATOM     36  H13 non d ame     -31.637   6.386  21.476  0.00  0.00     0.028 H 
ATOM     37  H14 non d ame     -30.834   7.262  22.801  0.00  0.00     0.028 H 
ATOM     38  H15 non d ame     -30.649   5.498  22.660  0.00  0.00     0.028 H 
ENDBRANCH  33  35
BRANCH  33  39
ATOM     39  C13 non d ame     -33.044   4.635  23.433  0.00  0.00    -0.071 C 
ATOM     40  H16 non d ame     -33.333   4.350  24.445  0.00  0.00     0.028 H 
ATOM     41  H17 non d ame     -33.893   4.506  22.762  0.00  0.00     0.028 H 
ATOM     42  H18 non d ame     -32.220   4.004  23.099  0.00  0.00     0.028 H 
ENDBRANCH  33  39
ENDBRANCH   7  33
ENDBRANCH   4   7
ENDBRANCH   1   3
BRANCH   1  43
ATOM     43  C15 non d ame     -31.531  11.466  25.353  0.00  0.00     0.240 C 
ATOM     44  O5  non d ame     -30.432  11.077  25.118  0.00  0.00    -0.271 OA
ATOM     45  N6  non d ame     -31.857  12.910  25.188  0.00  0.00    -0.355 N 
ATOM     46  H46 non d ame     -32.789  13.251  25.380  0.00  0.00     0.162 HD
BRANCH  45  47
ATOM     47  C20 non d ame     -30.809  13.853  24.739  0.00  0.00     0.013 C 
ATOM     48  H30 non d ame     -29.852  13.492  25.115  0.00  0.00     0.072 H 
BRANCH  47  49
ATOM     49  C21 non d ame     -31.100  15.227  25.300  0.00  0.00    -0.038 C 
ATOM     50  H31 non d ame     -30.737  15.208  26.329  0.00  0.00     0.036 H 
ATOM     51  H32 non d ame     -30.676  15.932  24.586  0.00  0.00     0.036 H 
BRANCH  49  52
ATOM     52  C22 non d ame     -32.610  15.537  25.375  0.00  0.00     0.018 C 
ATOM     53  H33 non d ame     -32.820  16.191  24.530  0.00  0.00     0.048 H 
ATOM     54  H34 non d ame     -33.106  14.568  25.451  0.00  0.00     0.048 H 
BRANCH  52  55
ATOM     55  C23 non d ame     -33.025  16.330  26.645  0.00  0.00     0.259 C 
ATOM     56  O7  non d ame     -33.672  17.322  26.553  0.00  0.00    -0.265 OA
BRANCH  55  57
ATOM     57  O8  non d ame     -32.609  15.865  27.924  0.00  0.00    -0.317 OA
BRANCH  57  58
ATOM     58  C29 non d ame     -33.424  14.814  28.454  0.00  0.00     0.052 C 
ATOM     59  H47 non d ame     -34.035  15.278  29.228  0.00  0.00     0.082 H 
ATOM     60  H48 non d ame     -33.899  14.346  27.591  0.00  0.00     0.082 H 
BRANCH  58  61
ATOM     61  C35 non d ame     -32.488  13.773  29.125  0.00  0.00    -0.034 A 
ATOM     62  C30 non d ame     -32.983  12.926  30.111  0.00  0.00    -0.075 A 
ATOM     63  C31 non d ame     -32.142  11.991  30.714  0.00  0.00    -0.082 A 
ATOM     64  H49 non d ame     -34.028  12.994  30.412  0.00  0.00     0.084 H 
ATOM     65  C32 non d ame     -30.802  11.907  30.329  0.00  0.00    -0.083 A 
ATOM     66  H50 non d ame     -32.534  11.327  31.485  0.00  0.00     0.083 H 
ATOM     67  C33 non d ame     -30.312  12.757  29.347  0.00  0.00    -0.082 A 
ATOM     68  H51 non d ame     -30.138  11.179  30.795  0.00  0.00     0.083 H 
ATOM     69  C34 non d ame     -31.149  13.692  28.740  0.00  0.00    -0.075 A 
ATOM     70  H52 non d ame     -29.265  12.692  29.050  0.00  0.00     0.083 H 
ATOM     71  H53 non d ame     -30.757  14.355  27.968  0.00  0.00     0.084 H 
ENDBRANCH  58  61
ENDBRANCH  57  58
ENDBRANCH  55  57
ENDBRANCH  52  55
ENDBRANCH  49  52
ENDBRANCH  47  49
BRANCH  47  72
ATOM     72  C24 non d ame     -30.791  13.918  23.214  0.00  0.00    -0.039 C 
ATOM     73  H35 non d ame     -30.153  13.091  22.897  0.00  0.00     0.036 H 
ATOM     74  H36 non d ame     -31.838  13.944  22.912  0.00  0.00     0.036 H 
BRANCH  72  75
ATOM     75  C25 non d ame     -30.112  15.269  22.686  0.00  0.00    -0.001 C 
ATOM     76  C26 non d ame     -31.229  16.186  21.902  0.00  0.00    -0.035 C 
ATOM     77  C27 non d ame     -30.735  16.535  20.690  0.00  0.00     0.085 C 
ATOM     78  H38 non d ame     -32.104  15.584  21.658  0.00  0.00     0.036 H 
ATOM     79  H39 non d ame     -31.351  17.143  22.412  0.00  0.00     0.036 H 
ATOM     80  N5  non d ame     -29.524  15.669  20.442  0.00  0.00    -0.049 N 
ATOM     81  H40 non d ame     -31.513  16.271  19.972  0.00  0.00     0.075 H 
ATOM     82  H41 non d ame     -30.416  17.572  20.792  0.00  0.00     0.075 H 
ATOM     83  C28 non d ame     -29.143  15.018  21.869  0.00  0.00     0.193 C 
ATOM     84  H42 non d ame     -29.821  14.931  19.820  0.00  0.00     0.280 HD
ATOM     85  H43 non d ame     -28.779  16.293  20.164  0.00  0.00     0.280 HD
ATOM     86  H44 non d ame     -28.298  15.396  22.443  0.00  0.00     0.129 H 
ATOM     87  H37 non d ame     -29.518  15.761  23.455  0.00  0.00     0.046 H 
BRANCH  83  88
ATOM     88  O6  non d ame     -28.910  13.616  21.725  0.00  0.00    -0.369 OA
ATOM     89  H45 non d ame     -28.916  13.199  22.590  0.00  0.00     0.212 HD
ENDBRANCH  83  88
ENDBRANCH  72  75
ENDBRANCH  47  72
ENDBRANCH  45  47
ENDBRANCH   1  43
BRANCH   1  90
ATOM     90  C16 non d ame     -32.961  10.719  27.282  0.00  0.00    -0.035 C 
ATOM     91  H21 non d ame     -32.094  10.377  27.845  0.00  0.00     0.037 H 
ATOM     92  H22 non d ame     -33.262  11.766  27.327  0.00  0.00     0.037 H 
BRANCH  90  93
ATOM     93  C17 non d ame     -34.178   9.887  27.799  0.00  0.00    -0.059 C 
ATOM     94  H23 non d ame     -34.447   9.175  27.020  0.00  0.00     0.038 H 
BRANCH  93  95
ATOM     95  C18 non d ame     -33.831   9.076  29.088  0.00  0.00    -0.073 C 
ATOM     96  H24 non d ame     -32.868   8.583  28.959  0.00  0.00     0.028 H 
ATOM     97  H25 non d ame     -33.780   9.754  29.941  0.00  0.00     0.028 H 
ATOM     98  H26 non d ame     -34.602   8.327  29.265  0.00  0.00     0.028 H 
ENDBRANCH  93  95
BRANCH  93  99
ATOM     99  C19 non d ame     -35.395  10.787  28.033  0.00  0.00    -0.073 C 
ATOM    100  H27 non d ame     -35.062  11.769  28.371  0.00  0.00     0.028 H 
ATOM    101  H28 non d ame     -35.952  10.894  27.102  0.00  0.00     0.028 H 
ATOM    102  H29 non d ame     -36.037  10.339  28.790  0.00  0.00     0.028 H 
ENDBRANCH  93  99
ENDBRANCH  90  93
ENDBRANCH   1  90
TORSDOF 26
ENDMDL
MODEL 4
REMARK VINA RESULT:      -7.1      2.010      5.823
REMARK  26 active torsions:
REMARK  status: ('A' for Active; 'I' for Inactive)
REMARK    1  A    between atoms: C2_2  and  C3_3 
REMARK    2  A    between atoms: C4_6  and  C5_7 
REMARK       I    between atoms: C5_7  and  N2_9 
REMARK    3  A    between atoms: N2_9  and  C6_10 
REMARK    4  A    between atoms: C6_10  and  C7_11 
REMARK    5  A    between atoms: C6_10  and  C8_13 
REMARK       I    between atoms: C7_11  and  N3_14 
REMARK    6  A    between atoms: N3_14  and  C9_15 
REMARK    7  A    between atoms: C9_15  and  C10_16 
REMARK    8  A    between atoms: C9_15  and  C11_18 
REMARK       I    between atoms: C10_16  and  N4_21 
REMARK    9  A    between atoms: C11_18  and  C12_19 
REMARK   10  A    between atoms: C11_18  and  C13_20 
REMARK   11  A    between atoms: N4_21  and  C14_22 
REMARK   12  A    between atoms: C14_22  and  C15_23 
REMARK   13  A    between atoms: C14_22  and  C16_25 
REMARK       I    between atoms: C15_23  and  N6_40 
REMARK   14  A    between atoms: C16_25  and  C17_26 
REMARK   15  A    between atoms: C17_26  and  C18_27 
REMARK   16  A    between atoms: C17_26  and  C19_28 
REMARK   17  A    between atoms: C20_29  and  C21_30 
REMARK   18  A    between atoms: C20_29  and  C24_33 
REMARK   19  A    between atoms: C20_29  and  N6_40 
REMARK   20  A    between atoms: C21_30  and  C22_31 
REMARK   21  A    between atoms: C22_31  and  C23_32 
REMARK   22  A    between atoms: C23_32  and  O8_43 
REMARK   23  A    between atoms: C24_33  and  C25_34 
REMARK   24  A    between atoms: C28_38  and  O6_39 
REMARK   25  A    between atoms: C29_42  and  O8_43 
REMARK   26  A    between atoms: C29_42  and  C35_49 
ROOT
ATOM      1  C14 non d ame     -30.922  13.929  24.717  0.00  0.00     0.089 C 
ATOM      2  H20 non d ame     -29.952  13.763  25.187  0.00  0.00     0.087 H 
ENDROOT
BRANCH   1   3
ATOM      3  N4  non d ame     -31.379  12.651  24.193  0.00  0.00    -0.346 N 
ATOM      4  C10 non d ame     -31.325  11.412  25.052  0.00  0.00     0.241 C 
ATOM      5  O4  non d ame     -30.906  11.468  26.160  0.00  0.00    -0.271 OA
ATOM      6  H19 non d ame     -31.730  12.624  23.246  0.00  0.00     0.163 HD
BRANCH   4   7
ATOM      7  C9  non d ame     -31.808  10.099  24.495  0.00  0.00     0.092 C 
ATOM      8  H11 non d ame     -31.453   9.287  25.130  0.00  0.00     0.088 H 
BRANCH   7   9
ATOM      9  N3  non d ame     -33.273  10.064  24.524  0.00  0.00    -0.346 N 
ATOM     10  C7  non d ame     -33.957   9.444  25.632  0.00  0.00     0.240 C 
ATOM     11  O3  non d ame     -33.344   8.967  26.508  0.00  0.00    -0.271 OA
ATOM     12  H10 non d ame     -33.815  10.470  23.776  0.00  0.00     0.163 HD
BRANCH  10  13
ATOM     13  C6  non d ame     -35.517   9.407  25.657  0.00  0.00     0.086 C 
ATOM     14  H6  non d ame     -35.914   8.973  26.575  0.00  0.00     0.086 H 
BRANCH  13  15
ATOM     15  N2  non d ame     -36.021  10.769  25.589  0.00  0.00    -0.343 N 
ATOM     16  C5  non d ame     -36.385  11.466  26.825  0.00  0.00     0.273 C 
ATOM     17  O2  non d ame     -36.271  10.921  27.868  0.00  0.00    -0.266 OA
ATOM     18  H5  non d ame     -36.119  11.225  24.694  0.00  0.00     0.163 HD
BRANCH  16  19
ATOM     19  C4  non d ame     -36.918  12.905  26.769  0.00  0.00     0.154 A 
ATOM     20  C1  non d ame     -36.155  14.104  26.601  0.00  0.00    -0.017 A 
ATOM     21  C2  non d ame     -37.108  15.147  26.616  0.00  0.00     0.077 A 
ATOM     22  H1  non d ame     -35.076  14.203  26.487  0.00  0.00     0.091 H 
ATOM     23  O1  non d ame     -38.279  14.600  26.772  0.00  0.00    -0.218 OA
ATOM     24  N1  non d ame     -38.193  13.293  26.864  0.00  0.00    -0.123 NA
BRANCH  21  25
ATOM     25  C3  non d ame     -36.818  16.635  26.475  0.00  0.00    -0.029 C 
ATOM     26  H2  non d ame     -36.811  17.100  27.461  0.00  0.00     0.036 H 
ATOM     27  H3  non d ame     -35.846  16.773  26.002  0.00  0.00     0.036 H 
ATOM     28  H4  non d ame     -37.589  17.099  25.861  0.00  0.00     0.036 H 
ENDBRANCH  21  25
ENDBRANCH  16  19
ENDBRANCH  13  15
BRANCH  13  29
ATOM     29  C8  non d ame     -36.022   8.610  24.481  0.00  0.00    -0.049 C 
ATOM     30  H7  non d ame     -36.328   9.289  23.686  0.00  0.00     0.030 H 
ATOM     31  H8  non d ame     -35.227   7.959  24.116  0.00  0.00     0.030 H 
ATOM     32  H9  non d ame     -36.874   8.005  24.791  0.00  0.00     0.030 H 
ENDBRANCH  13  29
ENDBRANCH  10  13
ENDBRANCH   7   9
BRANCH   7  33
ATOM     33  C11 non d ame     -31.317   9.948  23.025  0.00  0.00    -0.033 C 
ATOM     34  H12 non d ame     -31.542  10.881  22.507  0.00  0.00     0.042 H 
BRANCH  33  35
ATOM     35  C12 non d ame     -29.773   9.735  22.960  0.00  0.00    -0.071 C 
ATOM     36  H13 non d ame     -29.350   9.830  23.960  0.00  0.00     0.028 H 
ATOM     37  H14 non d ame     -29.560   8.740  22.569  0.00  0.00     0.028 H 
ATOM     38  H15 non d ame     -29.330  10.485  22.305  0.00  0.00     0.028 H 
ENDBRANCH  33  35
BRANCH  33  39
ATOM     39  C13 non d ame     -32.080   8.795  22.297  0.00  0.00    -0.071 C 
ATOM     40  H16 non d ame     -32.845   9.219  21.646  0.00  0.00     0.028 H 
ATOM     41  H17 non d ame     -31.376   8.214  21.700  0.00  0.00     0.028 H 
ATOM     42  H18 non d ame     -32.550   8.146  23.035  0.00  0.00     0.028 H 
ENDBRANCH  33  39
ENDBRANCH   7  33
ENDBRANCH   4   7
ENDBRANCH   1   3
BRANCH   1  43
ATOM     43  C15 non d ame     -31.981  14.459  25.726  0.00  0.00     0.240 C 
ATOM     44  O5  non d ame     -33.036  14.836  25.330  0.00  0.00    -0.271 OA
ATOM     45  N6  non d ame     -31.683  14.486  27.186  0.00  0.00    -0.355 N 
ATOM     46  H46 non d ame     -30.792  14.163  27.534  0.00  0.00     0.162 HD
BRANCH  45  47
ATOM     47  C20 non d ame     -32.701  14.991  28.133  0.00  0.00     0.013 C 
ATOM     48  H30 non d ame     -33.681  14.856  27.675  0.00  0.00     0.072 H 
BRANCH  47  49
ATOM     49  C21 non d ame     -32.453  16.459  28.398  0.00  0.00    -0.038 C 
ATOM     50  H31 non d ame     -32.592  16.591  29.473  0.00  0.00     0.036 H 
ATOM     51  H32 non d ame     -31.489  16.681  27.942  0.00  0.00     0.036 H 
BRANCH  49  52
ATOM     52  C22 non d ame     -33.486  17.376  27.709  0.00  0.00     0.018 C 
ATOM     53  H33 non d ame     -34.176  16.709  27.194  0.00  0.00     0.048 H 
ATOM     54  H34 non d ame     -33.854  18.044  28.489  0.00  0.00     0.048 H 
BRANCH  52  55
ATOM     55  C23 non d ame     -32.876  18.293  26.613  0.00  0.00     0.259 C 
ATOM     56  O7  non d ame     -31.986  17.905  25.928  0.00  0.00    -0.265 OA
BRANCH  55  57
ATOM     57  O8  non d ame     -33.386  19.611  26.444  0.00  0.00    -0.317 OA
BRANCH  57  58
ATOM     58  C29 non d ame     -34.436  19.949  27.354  0.00  0.00     0.052 C 
ATOM     59  H47 non d ame     -34.613  19.051  27.946  0.00  0.00     0.082 H 
ATOM     60  H48 non d ame     -34.120  20.871  27.842  0.00  0.00     0.082 H 
BRANCH  58  61
ATOM     61  C35 non d ame     -35.713  20.247  26.523  0.00  0.00    -0.034 A 
ATOM     62  C30 non d ame     -36.768  20.951  27.095  0.00  0.00    -0.075 A 
ATOM     63  C31 non d ame     -37.915  21.219  26.348  0.00  0.00    -0.082 A 
ATOM     64  H49 non d ame     -36.698  21.291  28.128  0.00  0.00     0.084 H 
ATOM     65  C32 non d ame     -38.005  20.778  25.025  0.00  0.00    -0.083 A 
ATOM     66  H50 non d ame     -38.740  21.771  26.799  0.00  0.00     0.083 H 
ATOM     67  C33 non d ame     -36.950  20.074  24.459  0.00  0.00    -0.082 A 
ATOM     68  H51 non d ame     -38.897  20.985  24.434  0.00  0.00     0.083 H 
ATOM     69  C34 non d ame     -35.802  19.806  25.201  0.00  0.00    -0.075 A 
ATOM     70  H52 non d ame     -37.024  19.730  23.427  0.00  0.00     0.083 H 
ATOM     71  H53 non d ame     -34.978  19.253  24.749  0.00  0.00     0.084 H 
ENDBRANCH  58  61
ENDBRANCH  57  58
ENDBRANCH  55  57
ENDBRANCH  52  55
ENDBRANCH  49  52
ENDBRANCH  47  49
BRANCH  47  72
ATOM     72  C24 non d ame     -32.618  14.214  29.445  0.00  0.00    -0.039 C 
ATOM     73  H35 non d ame     -31.970  14.807  30.092  0.00  0.00     0.036 H 
ATOM     74  H36 non d ame     -33.650  14.024  29.736  0.00  0.00     0.036 H 
BRANCH  72  75
ATOM     75  C25 non d ame     -31.913  12.789  29.246  0.00  0.00    -0.001 C 
ATOM     76  C26 non d ame     -33.048  11.601  29.230  0.00  0.00    -0.035 C 
ATOM     77  C27 non d ame     -32.688  10.641  30.115  0.00  0.00     0.085 C 
ATOM     78  H38 non d ame     -33.989  11.977  29.631  0.00  0.00     0.036 H 
ATOM     79  H39 non d ame     -33.033  11.082  28.271  0.00  0.00     0.036 H 
ATOM     80  N5  non d ame     -31.586  11.219  30.969  0.00  0.00    -0.049 N 
ATOM     81  H40 non d ame     -33.568  10.472  30.737  0.00  0.00     0.075 H 
ATOM     82  H41 non d ame     -32.282   9.827  29.514  0.00  0.00     0.075 H 
ATOM     83  C28 non d ame     -31.076  12.544  30.200  0.00  0.00     0.193 C 
ATOM     84  H42 non d ame     -32.013  11.497  31.840  0.00  0.00     0.280 HD
ATOM     85  H43 non d ame     -30.838  10.539  30.969  0.00  0.00     0.280 HD
ATOM     86  H44 non d ame     -30.140  12.536  29.644  0.00  0.00     0.129 H 
ATOM     87  H37 non d ame     -31.190  12.796  28.430  0.00  0.00     0.046 H 
BRANCH  83  88
ATOM     88  O6  non d ame     -30.969  13.635  31.116  0.00  0.00    -0.369 OA
ATOM     89  H45 non d ame     -31.640  14.290  30.914  0.00  0.00     0.212 HD
ENDBRANCH  83  88
ENDBRANCH  72  75
ENDBRANCH  47  72
ENDBRANCH  45  47
ENDBRANCH   1  43
BRANCH   1  90
ATOM     90  C16 non d ame     -30.774  14.913  23.567  0.00  0.00    -0.035 C 
ATOM     91  H21 non d ame     -31.760  14.969  23.107  0.00  0.00     0.037 H 
ATOM     92  H22 non d ame     -30.326  15.804  24.005  0.00  0.00     0.037 H 
BRANCH  90  93
ATOM     93  C17 non d ame     -29.795  14.429  22.450  0.00  0.00    -0.059 C 
ATOM     94  H23 non d ame     -29.736  13.343  22.510  0.00  0.00     0.038 H 
BRANCH  93  95
ATOM     95  C18 non d ame     -30.302  14.802  21.021  0.00  0.00    -0.073 C 
ATOM     96  H24 non d ame     -31.185  14.210  20.782  0.00  0.00     0.028 H 
ATOM     97  H25 non d ame     -30.558  15.862  20.991  0.00  0.00     0.028 H 
ATOM     98  H26 non d ame     -29.519  14.597  20.292  0.00  0.00     0.028 H 
ENDBRANCH  93  95
BRANCH  93  99
ATOM     99  C19 non d ame     -28.384  14.975  22.687  0.00  0.00    -0.073 C 
ATOM    100  H27 non d ame     -27.962  14.515  23.582  0.00  0.00     0.028 H 
ATOM    101  H28 non d ame     -27.755  14.740  21.828  0.00  0.00     0.028 H 
ATOM    102  H29 non d ame     -28.430  16.055  22.819  0.00  0.00     0.028 H 
ENDBRANCH  93  99
ENDBRANCH  90  93
ENDBRANCH   1  90
TORSDOF 26
ENDMDL
MODEL 5
REMARK VINA RESULT:      -7.1      2.947      7.940
REMARK  26 active torsions:
REMARK  status: ('A' for Active; 'I' for Inactive)
REMARK    1  A    between atoms: C2_2  and  C3_3 
REMARK    2  A    between atoms: C4_6  and  C5_7 
REMARK       I    between atoms: C5_7  and  N2_9 
REMARK    3  A    between atoms: N2_9  and  C6_10 
REMARK    4  A    between atoms: C6_10  and  C7_11 
REMARK    5  A    between atoms: C6_10  and  C8_13 
REMARK       I    between atoms: C7_11  and  N3_14 
REMARK    6  A    between atoms: N3_14  and  C9_15 
REMARK    7  A    between atoms: C9_15  and  C10_16 
REMARK    8  A    between atoms: C9_15  and  C11_18 
REMARK       I    between atoms: C10_16  and  N4_21 
REMARK    9  A    between atoms: C11_18  and  C12_19 
REMARK   10  A    between atoms: C11_18  and  C13_20 
REMARK   11  A    between atoms: N4_21  and  C14_22 
REMARK   12  A    between atoms: C14_22  and  C15_23 
REMARK   13  A    between atoms: C14_22  and  C16_25 
REMARK       I    between atoms: C15_23  and  N6_40 
REMARK   14  A    between atoms: C16_25  and  C17_26 
REMARK   15  A    between atoms: C17_26  and  C18_27 
REMARK   16  A    between atoms: C17_26  and  C19_28 
REMARK   17  A    between atoms: C20_29  and  C21_30 
REMARK   18  A    between atoms: C20_29  and  C24_33 
REMARK   19  A    between atoms: C20_29  and  N6_40 
REMARK   20  A    between atoms: C21_30  and  C22_31 
REMARK   21  A    between atoms: C22_31  and  C23_32 
REMARK   22  A    between atoms: C23_32  and  O8_43 
REMARK   23  A    between atoms: C24_33  and  C25_34 
REMARK   24  A    between atoms: C28_38  and  O6_39 
REMARK   25  A    between atoms: C29_42  and  O8_43 
REMARK   26  A    between atoms: C29_42  and  C35_49 
ROOT
ATOM      1  C14 non d ame     -35.312   9.120  26.994  0.00  0.00     0.089 C 
ATOM      2  H20 non d ame     -35.500   8.524  27.888  0.00  0.00     0.087 H 
ENDROOT
BRANCH   1   3
ATOM      3  N4  non d ame     -34.256  10.069  27.316  0.00  0.00    -0.346 N 
ATOM      4  C10 non d ame     -33.442   9.905  28.575  0.00  0.00     0.241 C 
ATOM      5  O4  non d ame     -33.657   9.005  29.316  0.00  0.00    -0.271 OA
ATOM      6  H19 non d ame     -34.090  10.830  26.673  0.00  0.00     0.163 HD
BRANCH   4   7
ATOM      7  C9  non d ame     -32.350  10.894  28.888  0.00  0.00     0.092 C 
ATOM      8  H11 non d ame     -31.418  10.555  28.434  0.00  0.00     0.088 H 
BRANCH   7   9
ATOM      9  N3  non d ame     -32.677  12.191  28.290  0.00  0.00    -0.346 N 
ATOM     10  C7  non d ame     -31.885  12.702  27.199  0.00  0.00     0.240 C 
ATOM     11  O3  non d ame     -30.979  12.083  26.791  0.00  0.00    -0.271 OA
ATOM     12  H10 non d ame     -33.454  12.737  28.632  0.00  0.00     0.163 HD
BRANCH  10  13
ATOM     13  C6  non d ame     -32.236  14.085  26.568  0.00  0.00     0.086 C 
ATOM     14  H6  non d ame     -31.795  14.921  27.111  0.00  0.00     0.086 H 
BRANCH  13  15
ATOM     15  N2  non d ame     -31.699  14.137  25.218  0.00  0.00    -0.343 N 
ATOM     16  C5  non d ame     -31.117  15.386  24.721  0.00  0.00     0.273 C 
ATOM     17  O2  non d ame     -31.087  16.343  25.414  0.00  0.00    -0.266 OA
ATOM     18  H5  non d ame     -31.732  13.316  24.632  0.00  0.00     0.163 HD
BRANCH  16  19
ATOM     19  C4  non d ame     -30.544  15.455  23.297  0.00  0.00     0.154 A 
ATOM     20  C1  non d ame     -31.277  15.595  22.076  0.00  0.00    -0.017 A 
ATOM     21  C2  non d ame     -30.295  15.605  21.061  0.00  0.00     0.077 A 
ATOM     22  H1  non d ame     -32.356  15.675  21.946  0.00  0.00     0.091 H 
ATOM     23  O1  non d ame     -29.136  15.488  21.642  0.00  0.00    -0.218 OA
ATOM     24  N1  non d ame     -29.257  15.397  22.946  0.00  0.00    -0.123 NA
BRANCH  21  25
ATOM     25  C3  non d ame     -30.546  15.733  19.564  0.00  0.00    -0.029 C 
ATOM     26  H2  non d ame     -30.874  14.773  19.167  0.00  0.00     0.036 H 
ATOM     27  H3  non d ame     -31.319  16.481  19.388  0.00  0.00     0.036 H 
ATOM     28  H4  non d ame     -29.626  16.037  19.066  0.00  0.00     0.036 H 
ENDBRANCH  21  25
ENDBRANCH  16  19
ENDBRANCH  13  15
BRANCH  13  29
ATOM     29  C8  non d ame     -33.734  14.260  26.535  0.00  0.00    -0.049 C 
ATOM     30  H7  non d ame     -34.040  14.921  27.345  0.00  0.00     0.030 H 
ATOM     31  H8  non d ame     -34.027  14.696  25.580  0.00  0.00     0.030 H 
ATOM     32  H9  non d ame     -34.215  13.290  26.655  0.00  0.00     0.030 H 
ENDBRANCH  13  29
ENDBRANCH  10  13
ENDBRANCH   7   9
BRANCH   7  33
ATOM     33  C11 non d ame     -32.223  11.054  30.431  0.00  0.00    -0.033 C 
ATOM     34  H12 non d ame     -32.141  10.054  30.859  0.00  0.00     0.042 H 
BRANCH  33  35
ATOM     35  C12 non d ame     -30.929  11.837  30.818  0.00  0.00    -0.071 C 
ATOM     36  H13 non d ame     -30.685  11.641  31.862  0.00  0.00     0.028 H 
ATOM     37  H14 non d ame     -30.105  11.510  30.185  0.00  0.00     0.028 H 
ATOM     38  H15 non d ame     -31.095  12.905  30.678  0.00  0.00     0.028 H 
ENDBRANCH  33  35
BRANCH  33  39
ATOM     39  C13 non d ame     -33.496  11.733  31.030  0.00  0.00    -0.071 C 
ATOM     40  H16 non d ame     -34.133  10.974  31.484  0.00  0.00     0.028 H 
ATOM     41  H17 non d ame     -33.199  12.460  31.787  0.00  0.00     0.028 H 
ATOM     42  H18 non d ame     -34.044  12.241  30.237  0.00  0.00     0.028 H 
ENDBRANCH  33  39
ENDBRANCH   7  33
ENDBRANCH   4   7
ENDBRANCH   1   3
BRANCH   1  43
ATOM     43  C15 non d ame     -34.846   8.248  25.794  0.00  0.00     0.240 C 
ATOM     44  O5  non d ame     -35.583   7.440  25.329  0.00  0.00    -0.271 OA
ATOM     45  N6  non d ame     -33.484   8.427  25.216  0.00  0.00    -0.355 N 
ATOM     46  H46 non d ame     -32.850   9.115  25.599  0.00  0.00     0.162 HD
BRANCH  45  47
ATOM     47  C20 non d ame     -33.055   7.592  24.073  0.00  0.00     0.013 C 
ATOM     48  H30 non d ame     -33.927   7.044  23.714  0.00  0.00     0.072 H 
BRANCH  47  49
ATOM     49  C21 non d ame     -31.990   6.623  24.533  0.00  0.00    -0.038 C 
ATOM     50  H31 non d ame     -31.673   6.085  23.638  0.00  0.00     0.036 H 
ATOM     51  H32 non d ame     -31.271   7.220  25.093  0.00  0.00     0.036 H 
BRANCH  49  52
ATOM     52  C22 non d ame     -32.530   5.558  25.513  0.00  0.00     0.018 C 
ATOM     53  H33 non d ame     -33.614   5.587  25.411  0.00  0.00     0.048 H 
ATOM     54  H34 non d ame     -31.985   4.642  25.281  0.00  0.00     0.048 H 
BRANCH  52  55
ATOM     55  C23 non d ame     -32.229   5.869  27.004  0.00  0.00     0.259 C 
ATOM     56  O7  non d ame     -31.829   6.940  27.329  0.00  0.00    -0.265 OA
BRANCH  55  57
ATOM     57  O8  non d ame     -32.424   4.853  27.981  0.00  0.00    -0.317 OA
BRANCH  57  58
ATOM     58  C29 non d ame     -33.723   4.256  27.948  0.00  0.00     0.052 C 
ATOM     59  H47 non d ame     -34.140   4.511  26.974  0.00  0.00     0.082 H 
ATOM     60  H48 non d ame     -33.576   3.212  28.223  0.00  0.00     0.082 H 
BRANCH  58  61
ATOM     61  C35 non d ame     -34.589   4.933  29.045  0.00  0.00    -0.034 A 
ATOM     62  C30 non d ame     -34.148   4.957  30.364  0.00  0.00    -0.075 A 
ATOM     63  C31 non d ame     -34.926   5.565  31.349  0.00  0.00    -0.082 A 
ATOM     64  H49 non d ame     -33.195   4.499  30.627  0.00  0.00     0.084 H 
ATOM     65  C32 non d ame     -36.150   6.148  31.011  0.00  0.00    -0.083 A 
ATOM     66  H50 non d ame     -34.577   5.583  32.382  0.00  0.00     0.083 H 
ATOM     67  C33 non d ame     -36.587   6.119  29.693  0.00  0.00    -0.082 A 
ATOM     68  H51 non d ame     -36.764   6.626  31.774  0.00  0.00     0.083 H 
ATOM     69  C34 non d ame     -35.812   5.514  28.706  0.00  0.00    -0.075 A 
ATOM     70  H52 non d ame     -37.544   6.573  29.432  0.00  0.00     0.083 H 
ATOM     71  H53 non d ame     -36.162   5.497  27.673  0.00  0.00     0.084 H 
ENDBRANCH  58  61
ENDBRANCH  57  58
ENDBRANCH  55  57
ENDBRANCH  52  55
ENDBRANCH  49  52
ENDBRANCH  47  49
BRANCH  47  72
ATOM     72  C24 non d ame     -32.493   8.480  22.965  0.00  0.00    -0.039 C 
ATOM     73  H35 non d ame     -32.378   7.826  22.100  0.00  0.00     0.036 H 
ATOM     74  H36 non d ame     -33.164   9.338  22.914  0.00  0.00     0.036 H 
BRANCH  72  75
ATOM     75  C25 non d ame     -31.038   9.039  23.334  0.00  0.00    -0.001 C 
ATOM     76  C26 non d ame     -31.113  10.659  23.601  0.00  0.00    -0.035 C 
ATOM     77  C27 non d ame     -30.163  11.269  22.852  0.00  0.00     0.085 C 
ATOM     78  H38 non d ame     -32.046  11.061  23.207  0.00  0.00     0.036 H 
ATOM     79  H39 non d ame     -30.811  10.883  24.625  0.00  0.00     0.036 H 
ATOM     80  N5  non d ame     -29.668  10.251  21.853  0.00  0.00    -0.049 N 
ATOM     81  H40 non d ame     -30.681  12.067  22.319  0.00  0.00     0.075 H 
ATOM     82  H41 non d ame     -29.356  11.510  23.543  0.00  0.00     0.075 H 
ATOM     83  C28 non d ame     -30.197   8.819  22.378  0.00  0.00     0.193 C 
ATOM     84  H42 non d ame     -30.126  10.462  20.978  0.00  0.00     0.280 HD
ATOM     85  H43 non d ame     -28.660  10.263  21.910  0.00  0.00     0.280 HD
ATOM     86  H44 non d ame     -29.517   8.124  22.869  0.00  0.00     0.129 H 
ATOM     87  H37 non d ame     -30.543   8.433  24.093  0.00  0.00     0.046 H 
BRANCH  83  88
ATOM     88  O6  non d ame     -30.784   8.085  21.302  0.00  0.00    -0.369 OA
ATOM     89  H45 non d ame     -31.726   7.991  21.455  0.00  0.00     0.212 HD
ENDBRANCH  83  88
ENDBRANCH  72  75
ENDBRANCH  47  72
ENDBRANCH  45  47
ENDBRANCH   1  43
BRANCH   1  90
ATOM     90  C16 non d ame     -36.568   9.886  26.612  0.00  0.00    -0.035 C 
ATOM     91  H21 non d ame     -36.315  10.938  26.740  0.00  0.00     0.037 H 
ATOM     92  H22 non d ame     -36.848   9.510  25.629  0.00  0.00     0.037 H 
BRANCH  90  93
ATOM     93  C17 non d ame     -37.782   9.609  27.555  0.00  0.00    -0.059 C 
ATOM     94  H23 non d ame     -38.522  10.390  27.381  0.00  0.00     0.038 H 
BRANCH  93  95
ATOM     95  C18 non d ame     -38.461   8.235  27.252  0.00  0.00    -0.073 C 
ATOM     96  H24 non d ame     -39.446   8.206  27.716  0.00  0.00     0.028 H 
ATOM     97  H25 non d ame     -38.564   8.110  26.174  0.00  0.00     0.028 H 
ATOM     98  H26 non d ame     -37.846   7.429  27.653  0.00  0.00     0.028 H 
ENDBRANCH  93  95
BRANCH  93  99
ATOM     99  C19 non d ame     -37.365   9.698  29.025  0.00  0.00    -0.073 C 
ATOM    100  H27 non d ame     -36.397  10.195  29.099  0.00  0.00     0.028 H 
ATOM    101  H28 non d ame     -38.109  10.269  29.581  0.00  0.00     0.028 H 
ATOM    102  H29 non d ame     -37.291   8.694  29.443  0.00  0.00     0.028 H 
ENDBRANCH  93  99
ENDBRANCH  90  93
ENDBRANCH   1  90
TORSDOF 26
ENDMDL
MODEL 6
REMARK VINA RESULT:      -7.0      2.651      7.209
REMARK  26 active torsions:
REMARK  status: ('A' for Active; 'I' for Inactive)
REMARK    1  A    between atoms: C2_2  and  C3_3 
REMARK    2  A    between atoms: C4_6  and  C5_7 
REMARK       I    between atoms: C5_7  and  N2_9 
REMARK    3  A    between atoms: N2_9  and  C6_10 
REMARK    4  A    between atoms: C6_10  and  C7_11 
REMARK    5  A    between atoms: C6_10  and  C8_13 
REMARK       I    between atoms: C7_11  and  N3_14 
REMARK    6  A    between atoms: N3_14  and  C9_15 
REMARK    7  A    between atoms: C9_15  and  C10_16 
REMARK    8  A    between atoms: C9_15  and  C11_18 
REMARK       I    between atoms: C10_16  and  N4_21 
REMARK    9  A    between atoms: C11_18  and  C12_19 
REMARK   10  A    between atoms: C11_18  and  C13_20 
REMARK   11  A    between atoms: N4_21  and  C14_22 
REMARK   12  A    between atoms: C14_22  and  C15_23 
REMARK   13  A    between atoms: C14_22  and  C16_25 
REMARK       I    between atoms: C15_23  and  N6_40 
REMARK   14  A    between atoms: C16_25  and  C17_26 
REMARK   15  A    between atoms: C17_26  and  C18_27 
REMARK   16  A    between atoms: C17_26  and  C19_28 
REMARK   17  A    between atoms: C20_29  and  C21_30 
REMARK   18  A    between atoms: C20_29  and  C24_33 
REMARK   19  A    between atoms: C20_29  and  N6_40 
REMARK   20  A    between atoms: C21_30  and  C22_31 
REMARK   21  A    between atoms: C22_31  and  C23_32 
REMARK   22  A    between atoms: C23_32  and  O8_43 
REMARK   23  A    between atoms: C24_33  and  C25_34 
REMARK   24  A    between atoms: C28_38  and  O6_39 
REMARK   25  A    between atoms: C29_42  and  O8_43 
REMARK   26  A    between atoms: C29_42  and  C35_49 
ROOT
ATOM      1  C14 non d ame     -35.365  14.080  26.428  0.00  0.00     0.089 C 
ATOM      2  H20 non d ame     -35.724  14.548  27.345  0.00  0.00     0.087 H 
ENDROOT
BRANCH   1   3
ATOM      3  N4  non d ame     -34.349  14.953  25.859  0.00  0.00    -0.346 N 
ATOM      4  C10 non d ame     -33.608  15.931  26.735  0.00  0.00     0.241 C 
ATOM      5  O4  non d ame     -33.849  16.001  27.895  0.00  0.00    -0.271 OA
ATOM      6  H19 non d ame     -34.160  14.879  24.869  0.00  0.00     0.163 HD
BRANCH   4   7
ATOM      7  C9  non d ame     -32.555  16.822  26.130  0.00  0.00     0.092 C 
ATOM      8  H11 non d ame     -31.691  16.858  26.794  0.00  0.00     0.088 H 
BRANCH   7   9
ATOM      9  N3  non d ame     -32.101  16.250  24.860  0.00  0.00    -0.346 N 
ATOM     10  C7  non d ame     -31.181  15.140  24.856  0.00  0.00     0.240 C 
ATOM     11  O3  non d ame     -30.794  14.695  25.868  0.00  0.00    -0.271 OA
ATOM     12  H10 non d ame     -32.425  16.624  23.979  0.00  0.00     0.163 HD
BRANCH  10  13
ATOM     13  C6  non d ame     -30.699  14.537  23.500  0.00  0.00     0.086 C 
ATOM     14  H6  non d ame     -29.632  14.681  23.330  0.00  0.00     0.086 H 
BRANCH  13  15
ATOM     15  N2  non d ame     -30.929  13.102  23.515  0.00  0.00    -0.343 N 
ATOM     16  C5  non d ame     -30.083  12.228  22.697  0.00  0.00     0.273 C 
ATOM     17  O2  non d ame     -29.224  12.690  22.030  0.00  0.00    -0.266 OA
ATOM     18  H5  non d ame     -31.668  12.716  24.085  0.00  0.00     0.163 HD
BRANCH  16  19
ATOM     19  C4  non d ame     -30.314  10.709  22.704  0.00  0.00     0.154 A 
ATOM     20  C1  non d ame     -31.338   9.993  23.401  0.00  0.00    -0.017 A 
ATOM     21  C2  non d ame     -31.114   8.635  23.082  0.00  0.00     0.077 A 
ATOM     22  H1  non d ame     -32.122  10.396  24.042  0.00  0.00     0.091 H 
ATOM     23  O1  non d ame     -30.082   8.588  22.290  0.00  0.00    -0.218 OA
ATOM     24  N1  non d ame     -29.598   9.786  22.057  0.00  0.00    -0.123 NA
BRANCH  21  25
ATOM     25  C3  non d ame     -31.931   7.447  23.571  0.00  0.00    -0.029 C 
ATOM     26  H2  non d ame     -32.501   7.030  22.741  0.00  0.00     0.036 H 
ATOM     27  H3  non d ame     -31.262   6.685  23.970  0.00  0.00     0.036 H 
ATOM     28  H4  non d ame     -32.616   7.774  24.353  0.00  0.00     0.036 H 
ENDBRANCH  21  25
ENDBRANCH  16  19
ENDBRANCH  13  15
BRANCH  13  29
ATOM     29  C8  non d ame     -31.464  15.171  22.365  0.00  0.00    -0.049 C 
ATOM     30  H7  non d ame     -31.081  16.175  22.185  0.00  0.00     0.030 H 
ATOM     31  H8  non d ame     -31.341  14.569  21.465  0.00  0.00     0.030 H 
ATOM     32  H9  non d ame     -32.521  15.226  22.625  0.00  0.00     0.030 H 
ENDBRANCH  13  29
ENDBRANCH  10  13
ENDBRANCH   7   9
BRANCH   7  33
ATOM     33  C11 non d ame     -33.155  18.235  25.876  0.00  0.00    -0.033 C 
ATOM     34  H12 non d ame     -32.773  18.586  24.917  0.00  0.00     0.042 H 
BRANCH  33  35
ATOM     35  C12 non d ame     -34.712  18.182  25.770  0.00  0.00    -0.071 C 
ATOM     36  H13 non d ame     -35.018  18.482  24.768  0.00  0.00     0.028 H 
ATOM     37  H14 non d ame     -35.054  17.166  25.966  0.00  0.00     0.028 H 
ATOM     38  H15 non d ame     -35.149  18.861  26.501  0.00  0.00     0.028 H 
ENDBRANCH  33  35
BRANCH  33  39
ATOM     39  C13 non d ame     -32.697  19.244  26.977  0.00  0.00    -0.071 C 
ATOM     40  H16 non d ame     -33.397  19.214  27.813  0.00  0.00     0.028 H 
ATOM     41  H17 non d ame     -31.700  18.973  27.327  0.00  0.00     0.028 H 
ATOM     42  H18 non d ame     -32.672  20.251  26.560  0.00  0.00     0.028 H 
ENDBRANCH  33  39
ENDBRANCH   7  33
ENDBRANCH   4   7
ENDBRANCH   1   3
BRANCH   1  43
ATOM     43  C15 non d ame     -34.731  12.685  26.690  0.00  0.00     0.240 C 
ATOM     44  O5  non d ame     -34.119  12.142  25.827  0.00  0.00    -0.271 OA
ATOM     45  N6  non d ame     -34.876  12.028  28.020  0.00  0.00    -0.355 N 
ATOM     46  H46 non d ame     -35.389  12.482  28.762  0.00  0.00     0.162 HD
BRANCH  45  47
ATOM     47  C20 non d ame     -34.265  10.702  28.254  0.00  0.00     0.013 C 
ATOM     48  H30 non d ame     -34.103  10.231  27.284  0.00  0.00     0.072 H 
BRANCH  47  49
ATOM     49  C21 non d ame     -35.205   9.858  29.086  0.00  0.00    -0.038 C 
ATOM     50  H31 non d ame     -35.441  10.460  29.965  0.00  0.00     0.036 H 
ATOM     51  H32 non d ame     -36.000   9.549  28.409  0.00  0.00     0.036 H 
BRANCH  49  52
ATOM     52  C22 non d ame     -34.547   8.563  29.608  0.00  0.00     0.018 C 
ATOM     53  H33 non d ame     -35.025   7.749  29.065  0.00  0.00     0.048 H 
ATOM     54  H34 non d ame     -33.471   8.722  29.515  0.00  0.00     0.048 H 
BRANCH  52  55
ATOM     55  C23 non d ame     -34.811   8.288  31.113  0.00  0.00     0.259 C 
ATOM     56  O7  non d ame     -34.453   9.063  31.940  0.00  0.00    -0.265 OA
BRANCH  55  57
ATOM     57  O8  non d ame     -35.474   7.090  31.497  0.00  0.00    -0.317 OA
BRANCH  57  58
ATOM     58  C29 non d ame     -35.264   5.996  30.599  0.00  0.00     0.052 C 
ATOM     59  H47 non d ame     -36.241   5.531  30.469  0.00  0.00     0.082 H 
ATOM     60  H48 non d ame     -34.741   6.415  29.740  0.00  0.00     0.082 H 
BRANCH  58  61
ATOM     61  C35 non d ame     -34.324   4.976  31.297  0.00  0.00    -0.034 A 
ATOM     62  C30 non d ame     -33.247   4.435  30.602  0.00  0.00    -0.075 A 
ATOM     63  C31 non d ame     -32.402   3.518  31.229  0.00  0.00    -0.082 A 
ATOM     64  H49 non d ame     -33.064   4.727  29.569  0.00  0.00     0.084 H 
ATOM     65  C32 non d ame     -32.641   3.143  32.554  0.00  0.00    -0.083 A 
ATOM     66  H50 non d ame     -31.558   3.097  30.683  0.00  0.00     0.083 H 
ATOM     67  C33 non d ame     -33.719   3.683  33.241  0.00  0.00    -0.082 A 
ATOM     68  H51 non d ame     -31.985   2.428  33.050  0.00  0.00     0.083 H 
ATOM     69  C34 non d ame     -34.564   4.600  32.619  0.00  0.00    -0.075 A 
ATOM     70  H52 non d ame     -33.904   3.386  34.274  0.00  0.00     0.083 H 
ATOM     71  H53 non d ame     -35.408   5.021  33.166  0.00  0.00     0.084 H 
ENDBRANCH  58  61
ENDBRANCH  57  58
ENDBRANCH  55  57
ENDBRANCH  52  55
ENDBRANCH  49  52
ENDBRANCH  47  49
BRANCH  47  72
ATOM     72  C24 non d ame     -32.939  10.867  28.993  0.00  0.00    -0.039 C 
ATOM     73  H35 non d ame     -32.934  10.088  29.757  0.00  0.00     0.036 H 
ATOM     74  H36 non d ame     -32.174  10.872  28.216  0.00  0.00     0.036 H 
BRANCH  72  75
ATOM     75  C25 non d ame     -32.853  12.275  29.751  0.00  0.00    -0.001 C 
ATOM     76  C26 non d ame     -31.806  13.270  28.966  0.00  0.00    -0.035 C 
ATOM     77  C27 non d ame     -30.916  13.760  29.862  0.00  0.00     0.085 C 
ATOM     78  H38 non d ame     -31.186  12.694  28.280  0.00  0.00     0.036 H 
ATOM     79  H39 non d ame     -32.328  14.159  28.614  0.00  0.00     0.036 H 
ATOM     80  N5  non d ame     -31.057  12.938  31.120  0.00  0.00    -0.049 N 
ATOM     81  H40 non d ame     -29.933  13.577  29.426  0.00  0.00     0.075 H 
ATOM     82  H41 non d ame     -31.240  14.780  30.067  0.00  0.00     0.075 H 
ATOM     83  C28 non d ame     -32.445  12.127  30.967  0.00  0.00     0.193 C 
ATOM     84  H42 non d ame     -30.295  12.275  31.116  0.00  0.00     0.280 HD
ATOM     85  H43 non d ame     -31.150  13.595  31.882  0.00  0.00     0.280 HD
ATOM     86  H44 non d ame     -33.333  12.441  31.514  0.00  0.00     0.129 H 
ATOM     87  H37 non d ame     -33.838  12.678  29.987  0.00  0.00     0.046 H 
BRANCH  83  88
ATOM     88  O6  non d ame     -32.253  10.753  31.308  0.00  0.00    -0.369 OA
ATOM     89  H45 non d ame     -32.464  10.620  32.235  0.00  0.00     0.212 HD
ENDBRANCH  83  88
ENDBRANCH  72  75
ENDBRANCH  47  72
ENDBRANCH  45  47
ENDBRANCH   1  43
BRANCH   1  90
ATOM     90  C16 non d ame     -36.511  13.943  25.438  0.00  0.00    -0.035 C 
ATOM     91  H21 non d ame     -36.197  14.496  24.553  0.00  0.00     0.037 H 
ATOM     92  H22 non d ame     -36.708  12.873  25.370  0.00  0.00     0.037 H 
BRANCH  90  93
ATOM     93  C17 non d ame     -37.840  14.606  25.921  0.00  0.00    -0.059 C 
ATOM     94  H23 non d ame     -38.312  13.925  26.629  0.00  0.00     0.038 H 
BRANCH  93  95
ATOM     95  C18 non d ame     -37.589  15.960  26.659  0.00  0.00    -0.073 C 
ATOM     96  H24 non d ame     -36.926  15.795  27.507  0.00  0.00     0.028 H 
ATOM     97  H25 non d ame     -37.126  16.668  25.970  0.00  0.00     0.028 H 
ATOM     98  H26 non d ame     -38.537  16.364  27.011  0.00  0.00     0.028 H 
ENDBRANCH  93  95
BRANCH  93  99
ATOM     99  C19 non d ame     -38.813  14.795  24.754  0.00  0.00    -0.073 C 
ATOM    100  H27 non d ame     -38.647  14.013  24.012  0.00  0.00     0.028 H 
ATOM    101  H28 non d ame     -39.838  14.733  25.121  0.00  0.00     0.028 H 
ATOM    102  H29 non d ame     -38.649  15.770  24.298  0.00  0.00     0.028 H 
ENDBRANCH  93  99
ENDBRANCH  90  93
ENDBRANCH   1  90
TORSDOF 26
ENDMDL
MODEL 7
REMARK VINA RESULT:      -7.0      2.979      9.113
REMARK  26 active torsions:
REMARK  status: ('A' for Active; 'I' for Inactive)
REMARK    1  A    between atoms: C2_2  and  C3_3 
REMARK    2  A    between atoms: C4_6  and  C5_7 
REMARK       I    between atoms: C5_7  and  N2_9 
REMARK    3  A    between atoms: N2_9  and  C6_10 
REMARK    4  A    between atoms: C6_10  and  C7_11 
REMARK    5  A    between atoms: C6_10  and  C8_13 
REMARK       I    between atoms: C7_11  and  N3_14 
REMARK    6  A    between atoms: N3_14  and  C9_15 
REMARK    7  A    between atoms: C9_15  and  C10_16 
REMARK    8  A    between atoms: C9_15  and  C11_18 
REMARK       I    between atoms: C10_16  and  N4_21 
REMARK    9  A    between atoms: C11_18  and  C12_19 
REMARK   10  A    between atoms: C11_18  and  C13_20 
REMARK   11  A    between atoms: N4_21  and  C14_22 
REMARK   12  A    between atoms: C14_22  and  C15_23 
REMARK   13  A    between atoms: C14_22  and  C16_25 
REMARK       I    between atoms: C15_23  and  N6_40 
REMARK   14  A    between atoms: C16_25  and  C17_26 
REMARK   15  A    between atoms: C17_26  and  C18_27 
REMARK   16  A    between atoms: C17_26  and  C19_28 
REMARK   17  A    between atoms: C20_29  and  C21_30 
REMARK   18  A    between atoms: C20_29  and  C24_33 
REMARK   19  A    between atoms: C20_29  and  N6_40 
REMARK   20  A    between atoms: C21_30  and  C22_31 
REMARK   21  A    between atoms: C22_31  and  C23_32 
REMARK   22  A    between atoms: C23_32  and  O8_43 
REMARK   23  A    between atoms: C24_33  and  C25_34 
REMARK   24  A    between atoms: C28_38  and  O6_39 
REMARK   25  A    between atoms: C29_42  and  O8_43 
REMARK   26  A    between atoms: C29_42  and  C35_49 
ROOT
ATOM      1  C14 non d ame     -33.720   6.868  27.721  0.00  0.00     0.089 C 
ATOM      2  H20 non d ame     -33.240   6.557  28.649  0.00  0.00     0.087 H 
ENDROOT
BRANCH   1   3
ATOM      3  N4  non d ame     -34.203   8.227  27.912  0.00  0.00    -0.346 N 
ATOM      4  C10 non d ame     -34.696   8.678  29.264  0.00  0.00     0.241 C 
ATOM      5  O4  non d ame     -34.698   7.927  30.183  0.00  0.00    -0.271 OA
ATOM      6  H19 non d ame     -34.195   8.850  27.117  0.00  0.00     0.163 HD
BRANCH   4   7
ATOM      7  C9  non d ame     -35.186  10.090  29.445  0.00  0.00     0.092 C 
ATOM      8  H11 non d ame     -35.459  10.244  30.489  0.00  0.00     0.088 H 
BRANCH   7   9
ATOM      9  N3  non d ame     -34.103  11.027  29.136  0.00  0.00    -0.346 N 
ATOM     10  C7  non d ame     -33.062  11.270  30.105  0.00  0.00     0.240 C 
ATOM     11  O3  non d ame     -33.081  10.720  31.138  0.00  0.00    -0.271 OA
ATOM     12  H10 non d ame     -34.073  11.510  28.250  0.00  0.00     0.163 HD
BRANCH  10  13
ATOM     13  C6  non d ame     -31.912  12.271  29.772  0.00  0.00     0.086 C 
ATOM     14  H6  non d ame     -31.333  11.972  28.898  0.00  0.00     0.086 H 
BRANCH  13  15
ATOM     15  N2  non d ame     -32.492  13.568  29.462  0.00  0.00    -0.343 N 
ATOM     16  C5  non d ame     -31.727  14.529  28.665  0.00  0.00     0.273 C 
ATOM     17  O2  non d ame     -30.645  14.250  28.279  0.00  0.00    -0.266 OA
ATOM     18  H5  non d ame     -33.416  13.799  29.799  0.00  0.00     0.163 HD
BRANCH  16  19
ATOM     19  C4  non d ame     -32.328  15.902  28.329  0.00  0.00     0.154 A 
ATOM     20  C1  non d ame     -32.872  16.325  27.075  0.00  0.00    -0.017 A 
ATOM     21  C2  non d ame     -33.288  17.658  27.290  0.00  0.00     0.077 A 
ATOM     22  H1  non d ame     -32.952  15.754  26.151  0.00  0.00     0.091 H 
ATOM     23  O1  non d ame     -33.012  17.955  28.527  0.00  0.00    -0.218 OA
ATOM     24  N1  non d ame     -32.451  16.946  29.153  0.00  0.00    -0.123 NA
BRANCH  21  25
ATOM     25  C3  non d ame     -33.939  18.576  26.264  0.00  0.00    -0.029 C 
ATOM     26  H2  non d ame     -33.553  19.589  26.386  0.00  0.00     0.036 H 
ATOM     27  H3  non d ame     -33.709  18.219  25.260  0.00  0.00     0.036 H 
ATOM     28  H4  non d ame     -35.018  18.579  26.411  0.00  0.00     0.036 H 
ENDBRANCH  21  25
ENDBRANCH  16  19
ENDBRANCH  13  15
BRANCH  13  29
ATOM     29  C8  non d ame     -30.986  12.389  30.955  0.00  0.00    -0.049 C 
ATOM     30  H7  non d ame     -30.003  12.001  30.688  0.00  0.00     0.030 H 
ATOM     31  H8  non d ame     -30.897  13.437  31.243  0.00  0.00     0.030 H 
ATOM     32  H9  non d ame     -31.389  11.816  31.790  0.00  0.00     0.030 H 
ENDBRANCH  13  29
ENDBRANCH  10  13
ENDBRANCH   7   9
BRANCH   7  33
ATOM     33  C11 non d ame     -36.383  10.350  28.485  0.00  0.00    -0.033 C 
ATOM     34  H12 non d ame     -36.558   9.432  27.922  0.00  0.00     0.042 H 
BRANCH  33  35
ATOM     35  C12 non d ame     -37.689  10.671  29.276  0.00  0.00    -0.071 C 
ATOM     36  H13 non d ame     -38.012   9.784  29.820  0.00  0.00     0.028 H 
ATOM     37  H14 non d ame     -37.497  11.479  29.981  0.00  0.00     0.028 H 
ATOM     38  H15 non d ame     -38.471  10.975  28.580  0.00  0.00     0.028 H 
ENDBRANCH  33  35
BRANCH  33  39
ATOM     39  C13 non d ame     -36.046  11.484  27.464  0.00  0.00    -0.071 C 
ATOM     40  H16 non d ame     -36.151  11.102  26.448  0.00  0.00     0.028 H 
ATOM     41  H17 non d ame     -36.730  12.321  27.611  0.00  0.00     0.028 H 
ATOM     42  H18 non d ame     -35.022  11.822  27.622  0.00  0.00     0.028 H 
ENDBRANCH  33  39
ENDBRANCH   7  33
ENDBRANCH   4   7
ENDBRANCH   1   3
BRANCH   1  43
ATOM     43  C15 non d ame     -32.735   6.856  26.517  0.00  0.00     0.240 C 
ATOM     44  O5  non d ame     -31.770   6.164  26.550  0.00  0.00    -0.271 OA
ATOM     45  N6  non d ame     -33.001   7.701  25.318  0.00  0.00    -0.355 N 
ATOM     46  H46 non d ame     -33.821   8.289  25.277  0.00  0.00     0.162 HD
BRANCH  45  47
ATOM     47  C20 non d ame     -32.056   7.678  24.180  0.00  0.00     0.013 C 
ATOM     48  H30 non d ame     -31.139   7.194  24.516  0.00  0.00     0.072 H 
BRANCH  47  49
ATOM     49  C21 non d ame     -31.764   9.096  23.745  0.00  0.00    -0.038 C 
ATOM     50  H31 non d ame     -30.716   9.271  23.996  0.00  0.00     0.036 H 
ATOM     51  H32 non d ame     -32.093   9.159  22.708  0.00  0.00     0.036 H 
BRANCH  49  52
ATOM     52  C22 non d ame     -32.581  10.145  24.528  0.00  0.00     0.018 C 
ATOM     53  H33 non d ame     -32.714  10.984  23.847  0.00  0.00     0.048 H 
ATOM     54  H34 non d ame     -33.453   9.612  24.912  0.00  0.00     0.048 H 
BRANCH  52  55
ATOM     55  C23 non d ame     -31.844  10.713  25.772  0.00  0.00     0.259 C 
ATOM     56  O7  non d ame     -32.044  10.258  26.851  0.00  0.00    -0.265 OA
BRANCH  55  57
ATOM     57  O8  non d ame     -30.936  11.796  25.609  0.00  0.00    -0.317 OA
BRANCH  57  58
ATOM     58  C29 non d ame     -31.560  13.025  25.224  0.00  0.00     0.052 C 
ATOM     59  H47 non d ame     -32.561  12.754  24.887  0.00  0.00     0.082 H 
ATOM     60  H48 non d ame     -31.433  13.699  26.071  0.00  0.00     0.082 H 
BRANCH  58  61
ATOM     61  C35 non d ame     -30.775  13.602  24.015  0.00  0.00    -0.034 A 
ATOM     62  C30 non d ame     -30.218  12.743  23.073  0.00  0.00    -0.075 A 
ATOM     63  C31 non d ame     -29.512  13.262  21.987  0.00  0.00    -0.082 A 
ATOM     64  H49 non d ame     -30.332  11.666  23.185  0.00  0.00     0.084 H 
ATOM     65  C32 non d ame     -29.364  14.645  21.848  0.00  0.00    -0.083 A 
ATOM     66  H50 non d ame     -29.078  12.587  21.250  0.00  0.00     0.083 H 
ATOM     67  C33 non d ame     -29.919  15.497  22.793  0.00  0.00    -0.082 A 
ATOM     68  H51 non d ame     -28.815  15.058  21.002  0.00  0.00     0.083 H 
ATOM     69  C34 non d ame     -30.626  14.983  23.878  0.00  0.00    -0.075 A 
ATOM     70  H52 non d ame     -29.800  16.575  22.682  0.00  0.00     0.083 H 
ATOM     71  H53 non d ame     -31.061  15.659  24.615  0.00  0.00     0.084 H 
ENDBRANCH  58  61
ENDBRANCH  57  58
ENDBRANCH  55  57
ENDBRANCH  52  55
ENDBRANCH  49  52
ENDBRANCH  47  49
BRANCH  47  72
ATOM     72  C24 non d ame     -32.668   6.902  23.016  0.00  0.00    -0.039 C 
ATOM     73  H35 non d ame     -31.949   6.116  22.782  0.00  0.00     0.036 H 
ATOM     74  H36 non d ame     -33.675   6.639  23.340  0.00  0.00     0.036 H 
BRANCH  72  75
ATOM     75  C25 non d ame     -32.815   7.814  21.707  0.00  0.00    -0.001 C 
ATOM     76  C26 non d ame     -34.398   8.177  21.454  0.00  0.00    -0.035 C 
ATOM     77  C27 non d ame     -34.716   7.874  20.173  0.00  0.00     0.085 C 
ATOM     78  H38 non d ame     -35.033   7.512  22.039  0.00  0.00     0.036 H 
ATOM     79  H39 non d ame     -34.547   9.256  21.504  0.00  0.00     0.036 H 
ATOM     80  N5  non d ame     -33.588   7.033  19.626  0.00  0.00    -0.049 N 
ATOM     81  H40 non d ame     -35.617   7.262  20.233  0.00  0.00     0.075 H 
ATOM     82  H41 non d ame     -34.738   8.826  19.644  0.00  0.00     0.075 H 
ATOM     83  C28 non d ame     -32.361   7.208  20.661  0.00  0.00     0.193 C 
ATOM     84  H42 non d ame     -33.902   6.074  19.658  0.00  0.00     0.280 HD
ATOM     85  H43 non d ame     -33.325   7.448  18.743  0.00  0.00     0.280 HD
ATOM     86  H44 non d ame     -31.514   7.846  20.414  0.00  0.00     0.129 H 
ATOM     87  H37 non d ame     -32.108   8.644  21.701  0.00  0.00     0.046 H 
BRANCH  83  88
ATOM     88  O6  non d ame     -31.799   5.933  20.978  0.00  0.00    -0.369 OA
ATOM     89  H45 non d ame     -31.075   6.048  21.598  0.00  0.00     0.212 HD
ENDBRANCH  83  88
ENDBRANCH  72  75
ENDBRANCH  47  72
ENDBRANCH  45  47
ENDBRANCH   1  43
BRANCH   1  90
ATOM     90  C16 non d ame     -34.902   5.959  27.423  0.00  0.00    -0.035 C 
ATOM     91  H21 non d ame     -35.764   6.448  27.877  0.00  0.00     0.037 H 
ATOM     92  H22 non d ame     -34.875   5.793  26.347  0.00  0.00     0.037 H 
BRANCH  90  93
ATOM     93  C17 non d ame     -34.794   4.551  28.090  0.00  0.00    -0.059 C 
ATOM     94  H23 non d ame     -35.780   4.287  28.470  0.00  0.00     0.038 H 
BRANCH  93  95
ATOM     95  C18 non d ame     -34.365   3.448  27.070  0.00  0.00    -0.073 C 
ATOM     96  H24 non d ame     -34.072   2.548  27.610  0.00  0.00     0.028 H 
ATOM     97  H25 non d ame     -35.203   3.217  26.411  0.00  0.00     0.028 H 
ATOM     98  H26 non d ame     -33.525   3.807  26.477  0.00  0.00     0.028 H 
ENDBRANCH  93  95
BRANCH  93  99
ATOM     99  C19 non d ame     -33.840   4.585  29.287  0.00  0.00    -0.073 C 
ATOM    100  H27 non d ame     -33.914   5.553  29.784  0.00  0.00     0.028 H 
ATOM    101  H28 non d ame     -34.110   3.796  29.990  0.00  0.00     0.028 H 
ATOM    102  H29 non d ame     -32.818   4.430  28.942  0.00  0.00     0.028 H 
ENDBRANCH  93  99
ENDBRANCH  90  93
ENDBRANCH   1  90
TORSDOF 26
ENDMDL
MODEL 8
REMARK VINA RESULT:      -7.0      2.410      8.099
REMARK  26 active torsions:
REMARK  status: ('A' for Active; 'I' for Inactive)
REMARK    1  A    between atoms: C2_2  and  C3_3 
REMARK    2  A    between atoms: C4_6  and  C5_7 
REMARK       I    between atoms: C5_7  and  N2_9 
REMARK    3  A    between atoms: N2_9  and  C6_10 
REMARK    4  A    between atoms: C6_10  and  C7_11 
REMARK    5  A    between atoms: C6_10  and  C8_13 
REMARK       I    between atoms: C7_11  and  N3_14 
REMARK    6  A    between atoms: N3_14  and  C9_15 
REMARK    7  A    between atoms: C9_15  and  C10_16 
REMARK    8  A    between atoms: C9_15  and  C11_18 
REMARK       I    between atoms: C10_16  and  N4_21 
REMARK    9  A    between atoms: C11_18  and  C12_19 
REMARK   10  A    between atoms: C11_18  and  C13_20 
REMARK   11  A    between atoms: N4_21  and  C14_22 
REMARK   12  A    between atoms: C14_22  and  C15_23 
REMARK   13  A    between atoms: C14_22  and  C16_25 
REMARK       I    between atoms: C15_23  and  N6_40 
REMARK   14  A    between atoms: C16_25  and  C17_26 
REMARK   15  A    between atoms: C17_26  and  C18_27 
REMARK   16  A    between atoms: C17_26  and  C19_28 
REMARK   17  A    between atoms: C20_29  and  C21_30 
REMARK   18  A    between atoms: C20_29  and  C24_33 
REMARK   19  A    between atoms: C20_29  and  N6_40 
REMARK   20  A    between atoms: C21_30  and  C22_31 
REMARK   21  A    between atoms: C22_31  and  C23_32 
REMARK   22  A    between atoms: C23_32  and  O8_43 
REMARK   23  A    between atoms: C24_33  and  C25_34 
REMARK   24  A    between atoms: C28_38  and  O6_39 
REMARK   25  A    between atoms: C29_42  and  O8_43 
REMARK   26  A    between atoms: C29_42  and  C35_49 
ROOT
ATOM      1  C14 non d ame     -36.539  15.987  26.566  0.00  0.00     0.089 C 
ATOM      2  H20 non d ame     -37.120  16.516  27.322  0.00  0.00     0.087 H 
ENDROOT
BRANCH   1   3
ATOM      3  N4  non d ame     -35.132  16.167  26.889  0.00  0.00    -0.346 N 
ATOM      4  C10 non d ame     -34.710  17.192  27.912  0.00  0.00     0.241 C 
ATOM      5  O4  non d ame     -35.522  17.863  28.460  0.00  0.00    -0.271 OA
ATOM      6  H19 non d ame     -34.456  15.588  26.410  0.00  0.00     0.163 HD
BRANCH   4   7
ATOM      7  C9  non d ame     -33.250  17.361  28.239  0.00  0.00     0.092 C 
ATOM      8  H11 non d ame     -33.153  17.903  29.180  0.00  0.00     0.088 H 
BRANCH   7   9
ATOM      9  N3  non d ame     -32.636  16.045  28.431  0.00  0.00    -0.346 N 
ATOM     10  C7  non d ame     -31.732  15.825  29.533  0.00  0.00     0.240 C 
ATOM     11  O3  non d ame     -31.486  16.698  30.273  0.00  0.00    -0.271 OA
ATOM     12  H10 non d ame     -32.837  15.283  27.800  0.00  0.00     0.163 HD
BRANCH  10  13
ATOM     13  C6  non d ame     -31.079  14.422  29.731  0.00  0.00     0.086 C 
ATOM     14  H6  non d ame     -30.452  14.370  30.622  0.00  0.00     0.086 H 
BRANCH  13  15
ATOM     15  N2  non d ame     -32.130  13.433  29.905  0.00  0.00    -0.343 N 
ATOM     16  C5  non d ame     -31.840  12.190  30.623  0.00  0.00     0.273 C 
ATOM     17  O2  non d ame     -30.757  11.994  31.054  0.00  0.00    -0.266 OA
ATOM     18  H5  non d ame     -33.052  13.608  29.530  0.00  0.00     0.163 HD
BRANCH  16  19
ATOM     19  C4  non d ame     -32.942  11.137  30.815  0.00  0.00     0.154 A 
ATOM     20  C1  non d ame     -33.322  10.105  29.900  0.00  0.00    -0.017 A 
ATOM     21  C2  non d ame     -34.373   9.416  30.545  0.00  0.00     0.077 A 
ATOM     22  H1  non d ame     -32.900   9.890  28.918  0.00  0.00     0.091 H 
ATOM     23  O1  non d ame     -34.565   9.991  31.696  0.00  0.00    -0.218 OA
ATOM     24  N1  non d ame     -33.742  10.999  31.876  0.00  0.00    -0.123 NA
BRANCH  21  25
ATOM     25  C3  non d ame     -35.138   8.220  29.994  0.00  0.00    -0.029 C 
ATOM     26  H2  non d ame     -34.852   8.051  28.956  0.00  0.00     0.036 H 
ATOM     27  H3  non d ame     -34.901   7.334  30.584  0.00  0.00     0.036 H 
ATOM     28  H4  non d ame     -36.208   8.416  30.048  0.00  0.00     0.036 H 
ENDBRANCH  21  25
ENDBRANCH  16  19
ENDBRANCH  13  15
BRANCH  13  29
ATOM     29  C8  non d ame     -30.242  14.079  28.524  0.00  0.00    -0.049 C 
ATOM     30  H7  non d ame     -30.801  14.308  27.618  0.00  0.00     0.030 H 
ATOM     31  H8  non d ame     -29.323  14.665  28.542  0.00  0.00     0.030 H 
ATOM     32  H9  non d ame     -29.997  13.017  28.542  0.00  0.00     0.030 H 
ENDBRANCH  13  29
ENDBRANCH  10  13
ENDBRANCH   7   9
BRANCH   7  33
ATOM     33  C11 non d ame     -32.538  18.096  27.065  0.00  0.00    -0.033 C 
ATOM     34  H12 non d ame     -31.489  18.212  27.338  0.00  0.00     0.042 H 
BRANCH  33  35
ATOM     35  C12 non d ame     -32.592  17.256  25.751  0.00  0.00    -0.071 C 
ATOM     36  H13 non d ame     -33.243  16.394  25.897  0.00  0.00     0.028 H 
ATOM     37  H14 non d ame     -32.982  17.873  24.942  0.00  0.00     0.028 H 
ATOM     38  H15 non d ame     -31.589  16.914  25.497  0.00  0.00     0.028 H 
ENDBRANCH  33  35
BRANCH  33  39
ATOM     39  C13 non d ame     -33.141  19.522  26.851  0.00  0.00    -0.071 C 
ATOM     40  H16 non d ame     -33.401  19.653  25.800  0.00  0.00     0.028 H 
ATOM     41  H17 non d ame     -34.036  19.635  27.464  0.00  0.00     0.028 H 
ATOM     42  H18 non d ame     -32.407  20.274  27.141  0.00  0.00     0.028 H 
ENDBRANCH  33  39
ENDBRANCH   7  33
ENDBRANCH   4   7
ENDBRANCH   1   3
BRANCH   1  43
ATOM     43  C15 non d ame     -36.851  14.463  26.544  0.00  0.00     0.240 C 
ATOM     44  O5  non d ame     -37.928  14.076  26.864  0.00  0.00    -0.271 OA
ATOM     45  N6  non d ame     -35.810  13.487  26.114  0.00  0.00    -0.355 N 
ATOM     46  H46 non d ame     -34.893  13.805  25.835  0.00  0.00     0.162 HD
BRANCH  45  47
ATOM     47  C20 non d ame     -36.122  12.041  26.097  0.00  0.00     0.013 C 
ATOM     48  H30 non d ame     -37.034  11.889  26.675  0.00  0.00     0.072 H 
BRANCH  47  49
ATOM     49  C21 non d ame     -34.979  11.275  26.723  0.00  0.00    -0.038 C 
ATOM     50  H31 non d ame     -34.725  11.819  27.635  0.00  0.00     0.036 H 
ATOM     51  H32 non d ame     -35.315  10.241  26.781  0.00  0.00     0.036 H 
BRANCH  49  52
ATOM     52  C22 non d ame     -33.707  11.275  25.849  0.00  0.00     0.018 C 
ATOM     53  H33 non d ame     -33.227  10.313  26.027  0.00  0.00     0.048 H 
ATOM     54  H34 non d ame     -34.040  11.539  24.844  0.00  0.00     0.048 H 
BRANCH  52  55
ATOM     55  C23 non d ame     -32.667  12.355  26.253  0.00  0.00     0.259 C 
ATOM     56  O7  non d ame     -32.978  13.255  26.965  0.00  0.00    -0.265 OA
BRANCH  55  57
ATOM     57  O8  non d ame     -31.339  12.267  25.751  0.00  0.00    -0.317 OA
BRANCH  57  58
ATOM     58  C29 non d ame     -31.263  11.928  24.363  0.00  0.00     0.052 C 
ATOM     59  H47 non d ame     -30.588  11.075  24.305  0.00  0.00     0.082 H 
ATOM     60  H48 non d ame     -32.295  11.831  24.026  0.00  0.00     0.082 H 
BRANCH  58  61
ATOM     61  C35 non d ame     -30.612  13.121  23.613  0.00  0.00    -0.034 A 
ATOM     62  C30 non d ame     -30.777  14.417  24.091  0.00  0.00    -0.075 A 
ATOM     63  C31 non d ame     -30.192  15.489  23.417  0.00  0.00    -0.082 A 
ATOM     64  H49 non d ame     -31.363  14.594  24.993  0.00  0.00     0.084 H 
ATOM     65  C32 non d ame     -29.444  15.261  22.260  0.00  0.00    -0.083 A 
ATOM     66  H50 non d ame     -30.322  16.504  23.796  0.00  0.00     0.083 H 
ATOM     67  C33 non d ame     -29.285  13.967  21.785  0.00  0.00    -0.082 A 
ATOM     68  H51 non d ame     -28.983  16.094  21.728  0.00  0.00     0.083 H 
ATOM     69  C34 non d ame     -29.866  12.892  22.456  0.00  0.00    -0.075 A 
ATOM     70  H52 non d ame     -28.702  13.792  20.880  0.00  0.00     0.083 H 
ATOM     71  H53 non d ame     -29.736  11.878  22.077  0.00  0.00     0.084 H 
ENDBRANCH  58  61
ENDBRANCH  57  58
ENDBRANCH  55  57
ENDBRANCH  52  55
ENDBRANCH  49  52
ENDBRANCH  47  49
BRANCH  47  72
ATOM     72  C24 non d ame     -36.322  11.573  24.657  0.00  0.00    -0.039 C 
ATOM     73  H35 non d ame     -35.727  12.252  24.046  0.00  0.00     0.036 H 
ATOM     74  H36 non d ame     -36.095  10.507  24.665  0.00  0.00     0.036 H 
BRANCH  72  75
ATOM     75  C25 non d ame     -37.846  11.728  24.190  0.00  0.00    -0.001 C 
ATOM     76  C26 non d ame     -38.351  10.345  23.458  0.00  0.00    -0.035 C 
ATOM     77  C27 non d ame     -38.900  10.659  22.260  0.00  0.00     0.085 C 
ATOM     78  H38 non d ame     -37.492   9.728  23.192  0.00  0.00     0.036 H 
ATOM     79  H39 non d ame     -39.183   9.910  24.013  0.00  0.00     0.036 H 
ATOM     80  N5  non d ame     -38.520  12.090  21.963  0.00  0.00    -0.049 N 
ATOM     81  H40 non d ame     -38.413  10.005  21.536  0.00  0.00     0.075 H 
ATOM     82  H41 non d ame     -39.978  10.601  22.409  0.00  0.00     0.075 H 
ATOM     83  C28 non d ame     -37.982  12.705  23.356  0.00  0.00     0.193 C 
ATOM     84  H42 non d ame     -37.752  12.053  21.309  0.00  0.00     0.280 HD
ATOM     85  H43 non d ame     -39.375  12.565  21.710  0.00  0.00     0.280 HD
ATOM     86  H44 non d ame     -38.606  13.379  23.941  0.00  0.00     0.129 H 
ATOM     87  H37 non d ame     -38.481  12.133  24.977  0.00  0.00     0.046 H 
BRANCH  83  88
ATOM     88  O6  non d ame     -36.756  13.407  23.143  0.00  0.00    -0.369 OA
ATOM     89  H45 non d ame     -36.281  13.007  22.411  0.00  0.00     0.212 HD
ENDBRANCH  83  88
ENDBRANCH  72  75
ENDBRANCH  47  72
ENDBRANCH  45  47
ENDBRANCH   1  43
BRANCH   1  90
ATOM     90  C16 non d ame     -36.813  16.585  25.195  0.00  0.00    -0.035 C 
ATOM     91  H21 non d ame     -35.837  16.680  24.720  0.00  0.00     0.037 H 
ATOM     92  H22 non d ame     -37.576  15.946  24.749  0.00  0.00     0.037 H 
BRANCH  90  93
ATOM     93  C17 non d ame     -37.418  18.024  25.248  0.00  0.00    -0.059 C 
ATOM     94  H23 non d ame     -37.833  18.172  26.245  0.00  0.00     0.038 H 
BRANCH  93  95
ATOM     95  C18 non d ame     -36.337  19.126  25.011  0.00  0.00    -0.073 C 
ATOM     96  H24 non d ame     -36.436  19.901  25.771  0.00  0.00     0.028 H 
ATOM     97  H25 non d ame     -35.344  18.681  25.075  0.00  0.00     0.028 H 
ATOM     98  H26 non d ame     -36.476  19.565  24.024  0.00  0.00     0.028 H 
ENDBRANCH  93  95
BRANCH  93  99
ATOM     99  C19 non d ame     -38.571  18.169  24.251  0.00  0.00    -0.073 C 
ATOM    100  H27 non d ame     -38.180  18.126  23.234  0.00  0.00     0.028 H 
ATOM    101  H28 non d ame     -39.285  17.358  24.399  0.00  0.00     0.028 H 
ATOM    102  H29 non d ame     -39.070  19.124  24.409  0.00  0.00     0.028 H 
ENDBRANCH  93  99
ENDBRANCH  90  93
ENDBRANCH   1  90
TORSDOF 26
ENDMDL
MODEL 9
REMARK VINA RESULT:      -7.0      3.196      7.299
REMARK  26 active torsions:
REMARK  status: ('A' for Active; 'I' for Inactive)
REMARK    1  A    between atoms: C2_2  and  C3_3 
REMARK    2  A    between atoms: C4_6  and  C5_7 
REMARK       I    between atoms: C5_7  and  N2_9 
REMARK    3  A    between atoms: N2_9  and  C6_10 
REMARK    4  A    between atoms: C6_10  and  C7_11 
REMARK    5  A    between atoms: C6_10  and  C8_13 
REMARK       I    between atoms: C7_11  and  N3_14 
REMARK    6  A    between atoms: N3_14  and  C9_15 
REMARK    7  A    between atoms: C9_15  and  C10_16 
REMARK    8  A    between atoms: C9_15  and  C11_18 
REMARK       I    between atoms: C10_16  and  N4_21 
REMARK    9  A    between atoms: C11_18  and  C12_19 
REMARK   10  A    between atoms: C11_18  and  C13_20 
REMARK   11  A    between atoms: N4_21  and  C14_22 
REMARK   12  A    between atoms: C14_22  and  C15_23 
REMARK   13  A    between atoms: C14_22  and  C16_25 
REMARK       I    between atoms: C15_23  and  N6_40 
REMARK   14  A    between atoms: C16_25  and  C17_26 
REMARK   15  A    between atoms: C17_26  and  C18_27 
REMARK   16  A    between atoms: C17_26  and  C19_28 
REMARK   17  A    between atoms: C20_29  and  C21_30 
REMARK   18  A    between atoms: C20_29  and  C24_33 
REMARK   19  A    between atoms: C20_29  and  N6_40 
REMARK   20  A    between atoms: C21_30  and  C22_31 
REMARK   21  A    between atoms: C22_31  and  C23_32 
REMARK   22  A    between atoms: C23_32  and  O8_43 
REMARK   23  A    between atoms: C24_33  and  C25_34 
REMARK   24  A    between atoms: C28_38  and  O6_39 
REMARK   25  A    between atoms: C29_42  and  O8_43 
REMARK   26  A    between atoms: C29_42  and  C35_49 
ROOT
ATOM      1  C14 non d ame     -30.826  13.274  24.145  0.00  0.00     0.089 C 
ATOM      2  H20 non d ame     -29.885  13.164  24.685  0.00  0.00     0.087 H 
ENDROOT
BRANCH   1   3
ATOM      3  N4  non d ame     -31.416  11.950  24.019  0.00  0.00    -0.346 N 
ATOM      4  C10 non d ame     -31.413  10.999  25.190  0.00  0.00     0.241 C 
ATOM      5  O4  non d ame     -30.927  11.321  26.223  0.00  0.00    -0.271 OA
ATOM      6  H19 non d ame     -31.823  11.694  23.130  0.00  0.00     0.163 HD
BRANCH   4   7
ATOM      7  C9  non d ame     -32.034   9.635  25.043  0.00  0.00     0.092 C 
ATOM      8  H11 non d ame     -31.314   8.878  25.355  0.00  0.00     0.088 H 
BRANCH   7   9
ATOM      9  N3  non d ame     -33.193   9.526  25.933  0.00  0.00    -0.346 N 
ATOM     10  C7  non d ame     -33.202   8.541  26.986  0.00  0.00     0.240 C 
ATOM     11  O3  non d ame     -32.286   7.827  27.131  0.00  0.00    -0.271 OA
ATOM     12  H10 non d ame     -33.991  10.133  25.819  0.00  0.00     0.163 HD
BRANCH  10  13
ATOM     13  C6  non d ame     -34.440   8.427  27.929  0.00  0.00     0.086 C 
ATOM     14  H6  non d ame     -35.292   7.944  27.450  0.00  0.00     0.086 H 
BRANCH  13  15
ATOM     15  N2  non d ame     -34.086   7.606  29.075  0.00  0.00    -0.343 N 
ATOM     16  C5  non d ame     -34.874   6.408  29.375  0.00  0.00     0.273 C 
ATOM     17  O2  non d ame     -35.791   6.115  28.690  0.00  0.00    -0.266 OA
ATOM     18  H5  non d ame     -33.303   7.866  29.657  0.00  0.00     0.163 HD
BRANCH  16  19
ATOM     19  C4  non d ame     -34.509   5.530  30.582  0.00  0.00     0.154 A 
ATOM     20  C1  non d ame     -33.435   4.590  30.674  0.00  0.00    -0.017 A 
ATOM     21  C2  non d ame     -33.533   4.052  31.977  0.00  0.00     0.077 A 
ATOM     22  H1  non d ame     -32.697   4.335  29.913  0.00  0.00     0.091 H 
ATOM     23  O1  non d ame     -34.547   4.625  32.557  0.00  0.00    -0.218 OA
ATOM     24  N1  non d ame     -35.133   5.490  31.762  0.00  0.00    -0.123 NA
BRANCH  21  25
ATOM     25  C3  non d ame     -32.620   2.998  32.589  0.00  0.00    -0.029 C 
ATOM     26  H2  non d ame     -32.895   2.014  32.209  0.00  0.00     0.036 H 
ATOM     27  H3  non d ame     -31.585   3.214  32.321  0.00  0.00     0.036 H 
ATOM     28  H4  non d ame     -32.724   3.011  33.673  0.00  0.00     0.036 H 
ENDBRANCH  21  25
ENDBRANCH  16  19
ENDBRANCH  13  15
BRANCH  13  29
ATOM     29  C8  non d ame     -34.854   9.803  28.388  0.00  0.00    -0.049 C 
ATOM     30  H7  non d ame     -34.359  10.036  29.330  0.00  0.00     0.030 H 
ATOM     31  H8  non d ame     -34.568  10.538  27.635  0.00  0.00     0.030 H 
ATOM     32  H9  non d ame     -35.935   9.829  28.529  0.00  0.00     0.030 H 
ENDBRANCH  13  29
ENDBRANCH  10  13
ENDBRANCH   7   9
BRANCH   7  33
ATOM     33  C11 non d ame     -32.493   9.431  23.569  0.00  0.00    -0.033 C 
ATOM     34  H12 non d ame     -32.362  10.381  23.050  0.00  0.00     0.042 H 
BRANCH  33  35
ATOM     35  C12 non d ame     -31.610   8.371  22.839  0.00  0.00    -0.071 C 
ATOM     36  H13 non d ame     -32.134   7.415  22.817  0.00  0.00     0.028 H 
ATOM     37  H14 non d ame     -31.415   8.702  21.820  0.00  0.00     0.028 H 
ATOM     38  H15 non d ame     -30.666   8.255  23.372  0.00  0.00     0.028 H 
ENDBRANCH  33  35
BRANCH  33  39
ATOM     39  C13 non d ame     -34.007   9.050  23.503  0.00  0.00    -0.071 C 
ATOM     40  H16 non d ame     -34.423   9.036  24.510  0.00  0.00     0.028 H 
ATOM     41  H17 non d ame     -34.541   9.785  22.899  0.00  0.00     0.028 H 
ATOM     42  H18 non d ame     -34.114   8.065  23.051  0.00  0.00     0.028 H 
ENDBRANCH  33  39
ENDBRANCH   7  33
ENDBRANCH   4   7
ENDBRANCH   1   3
BRANCH   1  43
ATOM     43  C15 non d ame     -31.830  14.194  24.896  0.00  0.00     0.240 C 
ATOM     44  O5  non d ame     -32.678  14.763  24.288  0.00  0.00    -0.271 OA
ATOM     45  N6  non d ame     -31.741  14.359  26.374  0.00  0.00    -0.355 N 
ATOM     46  H46 non d ame     -31.028  13.875  26.902  0.00  0.00     0.162 HD
BRANCH  45  47
ATOM     47  C20 non d ame     -32.704  15.236  27.075  0.00  0.00     0.013 C 
ATOM     48  H30 non d ame     -33.686  15.079  26.628  0.00  0.00     0.072 H 
BRANCH  47  49
ATOM     49  C21 non d ame     -32.283  16.678  26.904  0.00  0.00    -0.038 C 
ATOM     50  H31 non d ame     -31.201  16.688  27.048  0.00  0.00     0.036 H 
ATOM     51  H32 non d ame     -32.709  16.998  25.954  0.00  0.00     0.036 H 
BRANCH  49  52
ATOM     52  C22 non d ame     -32.875  17.608  27.985  0.00  0.00     0.018 C 
ATOM     53  H33 non d ame     -33.902  17.276  28.129  0.00  0.00     0.048 H 
ATOM     54  H34 non d ame     -32.171  17.578  28.818  0.00  0.00     0.048 H 
BRANCH  52  55
ATOM     55  C23 non d ame     -32.962  19.097  27.551  0.00  0.00     0.259 C 
ATOM     56  O7  non d ame     -32.158  19.556  26.806  0.00  0.00    -0.265 OA
BRANCH  55  57
ATOM     57  O8  non d ame     -34.007  19.913  28.066  0.00  0.00    -0.317 OA
BRANCH  57  58
ATOM     58  C29 non d ame     -35.272  19.249  28.159  0.00  0.00     0.052 C 
ATOM     59  H47 non d ame     -35.041  18.187  28.233  0.00  0.00     0.082 H 
ATOM     60  H48 non d ame     -35.809  19.749  28.964  0.00  0.00     0.082 H 
BRANCH  58  61
ATOM     61  C35 non d ame     -36.039  19.493  26.832  0.00  0.00    -0.034 A 
ATOM     62  C30 non d ame     -36.630  20.729  26.586  0.00  0.00    -0.075 A 
ATOM     63  C31 non d ame     -37.320  20.948  25.394  0.00  0.00    -0.082 A 
ATOM     64  H49 non d ame     -36.554  21.524  27.327  0.00  0.00     0.084 H 
ATOM     65  C32 non d ame     -37.420  19.925  24.447  0.00  0.00    -0.083 A 
ATOM     66  H50 non d ame     -37.781  21.918  25.204  0.00  0.00     0.083 H 
ATOM     67  C33 non d ame     -36.831  18.693  24.698  0.00  0.00    -0.082 A 
ATOM     68  H51 non d ame     -37.956  20.089  23.513  0.00  0.00     0.083 H 
ATOM     69  C34 non d ame     -36.139  18.470  25.887  0.00  0.00    -0.075 A 
ATOM     70  H52 non d ame     -36.912  17.896  23.959  0.00  0.00     0.083 H 
ATOM     71  H53 non d ame     -35.679  17.500  26.076  0.00  0.00     0.084 H 
ENDBRANCH  58  61
ENDBRANCH  57  58
ENDBRANCH  55  57
ENDBRANCH  52  55
ENDBRANCH  49  52
ENDBRANCH  47  49
BRANCH  47  72
ATOM     72  C24 non d ame     -32.737  14.886  28.561  0.00  0.00    -0.039 C 
ATOM     73  H35 non d ame     -32.421  15.793  29.079  0.00  0.00     0.036 H 
ATOM     74  H36 non d ame     -33.729  14.474  28.740  0.00  0.00     0.036 H 
BRANCH  72  75
ATOM     75  C25 non d ame     -31.677  13.740  28.924  0.00  0.00    -0.001 C 
ATOM     76  C26 non d ame     -32.466  12.382  29.409  0.00  0.00    -0.035 C 
ATOM     77  C27 non d ame     -31.947  11.975  30.592  0.00  0.00     0.085 C 
ATOM     78  H38 non d ame     -33.502  12.618  29.653  0.00  0.00     0.036 H 
ATOM     79  H39 non d ame     -32.239  11.557  28.734  0.00  0.00     0.036 H 
ATOM     80  N5  non d ame     -31.103  13.111  31.118  0.00  0.00    -0.049 N 
ATOM     81  H40 non d ame     -32.803  11.833  31.253  0.00  0.00     0.075 H 
ATOM     82  H41 non d ame     -31.298  11.133  30.351  0.00  0.00     0.075 H 
ATOM     83  C28 non d ame     -30.888  14.117  29.874  0.00  0.00     0.193 C 
ATOM     84  H42 non d ame     -31.658  13.580  31.819  0.00  0.00     0.280 HD
ATOM     85  H43 non d ame     -30.209  12.711  31.367  0.00  0.00     0.280 HD
ATOM     86  H44 non d ame     -29.938  14.146  29.343  0.00  0.00     0.129 H 
ATOM     87  H37 non d ame     -30.916  13.623  28.153  0.00  0.00     0.046 H 
BRANCH  83  88
ATOM     88  O6  non d ame     -31.138  15.464  30.281  0.00  0.00    -0.369 OA
ATOM     89  H45 non d ame     -30.339  15.984  30.175  0.00  0.00     0.212 HD
ENDBRANCH  83  88
ENDBRANCH  72  75
ENDBRANCH  47  72
ENDBRANCH  45  47
ENDBRANCH   1  43
BRANCH   1  90
ATOM     90  C16 non d ame     -30.561  13.833  22.756  0.00  0.00    -0.035 C 
ATOM     91  H21 non d ame     -29.925  13.096  22.265  0.00  0.00     0.037 H 
ATOM     92  H22 non d ame     -31.543  14.064  22.346  0.00  0.00     0.037 H 
BRANCH  90  93
ATOM     93  C17 non d ame     -29.757  15.172  22.762  0.00  0.00    -0.059 C 
ATOM     94  H23 non d ame     -30.011  15.707  23.677  0.00  0.00     0.038 H 
BRANCH  93  95
ATOM     95  C18 non d ame     -28.213  14.933  22.763  0.00  0.00    -0.073 C 
ATOM     96  H24 non d ame     -27.808  15.174  21.780  0.00  0.00     0.028 H 
ATOM     97  H25 non d ame     -27.747  15.571  23.513  0.00  0.00     0.028 H 
ATOM     98  H26 non d ame     -28.007  13.888  22.995  0.00  0.00     0.028 H 
ENDBRANCH  93  95
BRANCH  93  99
ATOM     99  C19 non d ame     -30.169  16.062  21.586  0.00  0.00    -0.073 C 
ATOM    100  H27 non d ame     -29.372  16.073  20.842  0.00  0.00     0.028 H 
ATOM    101  H28 non d ame     -31.081  15.669  21.135  0.00  0.00     0.028 H 
ATOM    102  H29 non d ame     -30.349  17.075  21.943  0.00  0.00     0.028 H 
ENDBRANCH  93  99
ENDBRANCH  90  93
ENDBRANCH   1  90
TORSDOF 26
ENDMDL
MODEL 10
REMARK VINA RESULT:      -6.9      3.401      7.497
REMARK  26 active torsions:
REMARK  status: ('A' for Active; 'I' for Inactive)
REMARK    1  A    between atoms: C2_2  and  C3_3 
REMARK    2  A    between atoms: C4_6  and  C5_7 
REMARK       I    between atoms: C5_7  and  N2_9 
REMARK    3  A    between atoms: N2_9  and  C6_10 
REMARK    4  A    between atoms: C6_10  and  C7_11 
REMARK    5  A    between atoms: C6_10  and  C8_13 
REMARK       I    between atoms: C7_11  and  N3_14 
REMARK    6  A    between atoms: N3_14  and  C9_15 
REMARK    7  A    between atoms: C9_15  and  C10_16 
REMARK    8  A    between atoms: C9_15  and  C11_18 
REMARK       I    between atoms: C10_16  and  N4_21 
REMARK    9  A    between atoms: C11_18  and  C12_19 
REMARK   10  A    between atoms: C11_18  and  C13_20 
REMARK   11  A    between atoms: N4_21  and  C14_22 
REMARK   12  A    between atoms: C14_22  and  C15_23 
REMARK   13  A    between atoms: C14_22  and  C16_25 
REMARK       I    between atoms: C15_23  and  N6_40 
REMARK   14  A    between atoms: C16_25  and  C17_26 
REMARK   15  A    between atoms: C17_26  and  C18_27 
REMARK   16  A    between atoms: C17_26  and  C19_28 
REMARK   17  A    between atoms: C20_29  and  C21_30 
REMARK   18  A    between atoms: C20_29  and  C24_33 
REMARK   19  A    between atoms: C20_29  and  N6_40 
REMARK   20  A    between atoms: C21_30  and  C22_31 
REMARK   21  A    between atoms: C22_31  and  C23_32 
REMARK   22  A    between atoms: C23_32  and  O8_43 
REMARK   23  A    between atoms: C24_33  and  C25_34 
REMARK   24  A    between atoms: C28_38  and  O6_39 
REMARK   25  A    between atoms: C29_42  and  O8_43 
REMARK   26  A    between atoms: C29_42  and  C35_49 
ROOT
ATOM      1  C14 non d ame     -32.964  10.319  25.715  0.00  0.00     0.089 C 
ATOM      2  H20 non d ame     -33.700  10.390  24.914  0.00  0.00     0.087 H 
ENDROOT
BRANCH   1   3
ATOM      3  N4  non d ame     -32.410   8.974  25.681  0.00  0.00    -0.346 N 
ATOM      4  C10 non d ame     -33.074   7.896  24.861  0.00  0.00     0.241 C 
ATOM      5  O4  non d ame     -34.056   8.134  24.240  0.00  0.00    -0.271 OA
ATOM      6  H19 non d ame     -31.574   8.791  26.219  0.00  0.00     0.163 HD
BRANCH   4   7
ATOM      7  C9  non d ame     -32.482   6.511  24.833  0.00  0.00     0.092 C 
ATOM      8  H11 non d ame     -31.419   6.571  25.066  0.00  0.00     0.088 H 
BRANCH   7   9
ATOM      9  N3  non d ame     -33.109   5.690  25.872  0.00  0.00    -0.346 N 
ATOM     10  C7  non d ame     -32.667   5.798  27.240  0.00  0.00     0.240 C 
ATOM     11  O3  non d ame     -31.807   6.541  27.523  0.00  0.00    -0.271 OA
ATOM     12  H10 non d ame     -33.850   5.044  25.644  0.00  0.00     0.163 HD
BRANCH  10  13
ATOM     13  C6  non d ame     -33.336   4.919  28.342  0.00  0.00     0.086 C 
ATOM     14  H6  non d ame     -32.713   4.808  29.229  0.00  0.00     0.086 H 
BRANCH  13  15
ATOM     15  N2  non d ame     -34.566   5.562  28.776  0.00  0.00    -0.343 N 
ATOM     16  C5  non d ame     -34.937   5.527  30.192  0.00  0.00     0.273 C 
ATOM     17  O2  non d ame     -34.242   4.977  30.974  0.00  0.00    -0.266 OA
ATOM     18  H5  non d ame     -35.156   6.026  28.100  0.00  0.00     0.163 HD
BRANCH  16  19
ATOM     19  C4  non d ame     -36.233   6.204  30.664  0.00  0.00     0.154 A 
ATOM     20  C1  non d ame     -36.489   7.608  30.763  0.00  0.00    -0.017 A 
ATOM     21  C2  non d ame     -37.815   7.704  31.243  0.00  0.00     0.077 A 
ATOM     22  H1  non d ame     -35.817   8.432  30.525  0.00  0.00     0.091 H 
ATOM     23  O1  non d ame     -38.259   6.490  31.396  0.00  0.00    -0.218 OA
ATOM     24  N1  non d ame     -37.354   5.598  31.066  0.00  0.00    -0.123 NA
BRANCH  21  25
ATOM     25  C3  non d ame     -38.580   8.989  31.527  0.00  0.00    -0.029 C 
ATOM     26  H2  non d ame     -38.197   9.788  30.893  0.00  0.00     0.036 H 
ATOM     27  H3  non d ame     -39.639   8.835  31.316  0.00  0.00     0.036 H 
ATOM     28  H4  non d ame     -38.455   9.264  32.573  0.00  0.00     0.036 H 
ENDBRANCH  21  25
ENDBRANCH  16  19
ENDBRANCH  13  15
BRANCH  13  29
ATOM     29  C8  non d ame     -33.638   3.551  27.783  0.00  0.00    -0.049 C 
ATOM     30  H7  non d ame     -32.710   2.993  27.668  0.00  0.00     0.030 H 
ATOM     31  H8  non d ame     -34.300   3.019  28.466  0.00  0.00     0.030 H 
ATOM     32  H9  non d ame     -34.123   3.655  26.813  0.00  0.00     0.030 H 
ENDBRANCH  13  29
ENDBRANCH  10  13
ENDBRANCH   7   9
BRANCH   7  33
ATOM     33  C11 non d ame     -32.739   5.866  23.440  0.00  0.00    -0.033 C 
ATOM     34  H12 non d ame     -33.587   6.383  22.990  0.00  0.00     0.042 H 
BRANCH  33  35
ATOM     35  C12 non d ame     -31.516   6.057  22.489  0.00  0.00    -0.071 C 
ATOM     36  H13 non d ame     -31.060   7.030  22.674  0.00  0.00     0.028 H 
ATOM     37  H14 non d ame     -30.785   5.272  22.677  0.00  0.00     0.028 H 
ATOM     38  H15 non d ame     -31.849   6.004  21.453  0.00  0.00     0.028 H 
ENDBRANCH  33  35
BRANCH  33  39
ATOM     39  C13 non d ame     -33.114   4.357  23.583  0.00  0.00    -0.071 C 
ATOM     40  H16 non d ame     -32.206   3.765  23.699  0.00  0.00     0.028 H 
ATOM     41  H17 non d ame     -33.751   4.221  24.458  0.00  0.00     0.028 H 
ATOM     42  H18 non d ame     -33.650   4.029  22.692  0.00  0.00     0.028 H 
ENDBRANCH  33  39
ENDBRANCH   7  33
ENDBRANCH   4   7
ENDBRANCH   1   3
BRANCH   1  43
ATOM     43  C15 non d ame     -31.803  11.338  25.540  0.00  0.00     0.240 C 
ATOM     44  O5  non d ame     -30.729  11.093  25.987  0.00  0.00    -0.271 OA
ATOM     45  N6  non d ame     -32.027  12.616  24.806  0.00  0.00    -0.355 N 
ATOM     46  H46 non d ame     -32.933  12.832  24.417  0.00  0.00     0.162 HD
BRANCH  45  47
ATOM     47  C20 non d ame     -30.912  13.575  24.646  0.00  0.00     0.013 C 
ATOM     48  H30 non d ame     -30.050  13.179  25.183  0.00  0.00     0.072 H 
BRANCH  47  49
ATOM     49  C21 non d ame     -31.314  14.911  25.227  0.00  0.00    -0.038 C 
ATOM     50  H31 non d ame     -30.478  15.583  25.028  0.00  0.00     0.036 H 
ATOM     51  H32 non d ame     -32.298  15.128  24.813  0.00  0.00     0.036 H 
BRANCH  49  52
ATOM     52  C22 non d ame     -31.485  14.871  26.761  0.00  0.00     0.018 C 
ATOM     53  H33 non d ame     -31.008  13.947  27.087  0.00  0.00     0.048 H 
ATOM     54  H34 non d ame     -31.116  15.831  27.124  0.00  0.00     0.048 H 
BRANCH  52  55
ATOM     55  C23 non d ame     -32.964  14.777  27.225  0.00  0.00     0.259 C 
ATOM     56  O7  non d ame     -33.737  14.088  26.642  0.00  0.00    -0.265 OA
BRANCH  55  57
ATOM     57  O8  non d ame     -33.392  15.537  28.349  0.00  0.00    -0.317 OA
BRANCH  57  58
ATOM     58  C29 non d ame     -34.482  16.422  28.072  0.00  0.00     0.052 C 
ATOM     59  H47 non d ame     -35.108  15.900  27.348  0.00  0.00     0.082 H 
ATOM     60  H48 non d ame     -34.889  16.702  29.044  0.00  0.00     0.082 H 
BRANCH  58  61
ATOM     61  C35 non d ame     -33.906  17.695  27.396  0.00  0.00    -0.034 A 
ATOM     62  C30 non d ame     -32.917  18.436  28.036  0.00  0.00    -0.075 A 
ATOM     63  C31 non d ame     -32.400  19.580  27.429  0.00  0.00    -0.082 A 
ATOM     64  H49 non d ame     -32.548  18.121  29.012  0.00  0.00     0.084 H 
ATOM     65  C32 non d ame     -32.877  19.983  26.179  0.00  0.00    -0.083 A 
ATOM     66  H50 non d ame     -31.624  20.158  27.932  0.00  0.00     0.083 H 
ATOM     67  C33 non d ame     -33.866  19.242  25.546  0.00  0.00    -0.082 A 
ATOM     68  H51 non d ame     -32.478  20.875  25.697  0.00  0.00     0.083 H 
ATOM     69  C34 non d ame     -34.385  18.097  26.148  0.00  0.00    -0.075 A 
ATOM     70  H52 non d ame     -34.239  19.561  24.572  0.00  0.00     0.083 H 
ATOM     71  H53 non d ame     -35.161  17.520  25.644  0.00  0.00     0.084 H 
ENDBRANCH  58  61
ENDBRANCH  57  58
ENDBRANCH  55  57
ENDBRANCH  52  55
ENDBRANCH  49  52
ENDBRANCH  47  49
BRANCH  47  72
ATOM     72  C24 non d ame     -30.582  13.742  23.164  0.00  0.00    -0.039 C 
ATOM     73  H35 non d ame     -29.719  13.099  22.985  0.00  0.00     0.036 H 
ATOM     74  H36 non d ame     -31.517  13.556  22.636  0.00  0.00     0.036 H 
BRANCH  72  75
ATOM     75  C25 non d ame     -30.135  15.241  22.821  0.00  0.00    -0.001 C 
ATOM     76  C26 non d ame     -31.289  15.974  21.908  0.00  0.00    -0.035 C 
ATOM     77  C27 non d ame     -30.702  16.512  20.812  0.00  0.00     0.085 C 
ATOM     78  H38 non d ame     -31.967  15.228  21.493  0.00  0.00     0.036 H 
ATOM     79  H39 non d ame     -31.688  16.841  22.435  0.00  0.00     0.036 H 
ATOM     80  N5  non d ame     -29.311  15.933  20.728  0.00  0.00    -0.049 N 
ATOM     81  H40 non d ame     -31.287  16.156  19.963  0.00  0.00     0.075 H 
ATOM     82  H41 non d ame     -30.631  17.581  21.015  0.00  0.00     0.075 H 
ATOM     83  C28 non d ame     -29.022  15.259  22.166  0.00  0.00     0.193 C 
ATOM     84  H42 non d ame     -29.345  15.203  20.031  0.00  0.00     0.280 HD
ATOM     85  H43 non d ame     -28.683  16.716  20.607  0.00  0.00     0.280 HD
ATOM     86  H44 non d ame     -28.374  15.752  22.889  0.00  0.00     0.129 H 
ATOM     87  H37 non d ame     -29.783  15.779  23.701  0.00  0.00     0.046 H 
BRANCH  83  88
ATOM     88  O6  non d ame     -28.476  13.950  21.995  0.00  0.00    -0.369 OA
ATOM     89  H45 non d ame     -28.803  13.571  21.176  0.00  0.00     0.212 HD
ENDBRANCH  83  88
ENDBRANCH  72  75
ENDBRANCH  47  72
ENDBRANCH  45  47
ENDBRANCH   1  43
BRANCH   1  90
ATOM     90  C16 non d ame     -33.642  10.541  27.058  0.00  0.00    -0.035 C 
ATOM     91  H21 non d ame     -32.888  11.013  27.688  0.00  0.00     0.037 H 
ATOM     92  H22 non d ame     -34.568  11.069  26.829  0.00  0.00     0.037 H 
BRANCH  90  93
ATOM     93  C17 non d ame     -34.053   9.219  27.780  0.00  0.00    -0.059 C 
ATOM     94  H23 non d ame     -33.461   8.410  27.352  0.00  0.00     0.038 H 
BRANCH  93  95
ATOM     95  C18 non d ame     -33.758   9.268  29.313  0.00  0.00    -0.073 C 
ATOM     96  H24 non d ame     -33.761   8.255  29.716  0.00  0.00     0.028 H 
ATOM     97  H25 non d ame     -32.781   9.721  29.480  0.00  0.00     0.028 H 
ATOM     98  H26 non d ame     -34.523   9.861  29.812  0.00  0.00     0.028 H 
ENDBRANCH  93  95
BRANCH  93  99
ATOM     99  C19 non d ame     -35.526   8.890  27.520  0.00  0.00    -0.073 C 
ATOM    100  H27 non d ame     -35.619   8.366  26.567  0.00  0.00     0.028 H 
ATOM    101  H28 non d ame     -35.904   8.254  28.321  0.00  0.00     0.028 H 
ATOM    102  H29 non d ame     -36.104   9.812  27.486  0.00  0.00     0.028 H 
ENDBRANCH  93  99
ENDBRANCH  90  93
ENDBRANCH   1  90
TORSDOF 26
ENDMDL
MODEL 11
REMARK VINA RESULT:      -6.9      2.453      6.987
REMARK  26 active torsions:
REMARK  status: ('A' for Active; 'I' for Inactive)
REMARK    1  A    between atoms: C2_2  and  C3_3 
REMARK    2  A    between atoms: C4_6  and  C5_7 
REMARK       I    between atoms: C5_7  and  N2_9 
REMARK    3  A    between atoms: N2_9  and  C6_10 
REMARK    4  A    between atoms: C6_10  and  C7_11 
REMARK    5  A    between atoms: C6_10  and  C8_13 
REMARK       I    between atoms: C7_11  and  N3_14 
REMARK    6  A    between atoms: N3_14  and  C9_15 
REMARK    7  A    between atoms: C9_15  and  C10_16 
REMARK    8  A    between atoms: C9_15  and  C11_18 
REMARK       I    between atoms: C10_16  and  N4_21 
REMARK    9  A    between atoms: C11_18  and  C12_19 
REMARK   10  A    between atoms: C11_18  and  C13_20 
REMARK   11  A    between atoms: N4_21  and  C14_22 
REMARK   12  A    between atoms: C14_22  and  C15_23 
REMARK   13  A    between atoms: C14_22  and  C16_25 
REMARK       I    between atoms: C15_23  and  N6_40 
REMARK   14  A    between atoms: C16_25  and  C17_26 
REMARK   15  A    between atoms: C17_26  and  C18_27 
REMARK   16  A    between atoms: C17_26  and  C19_28 
REMARK   17  A    between atoms: C20_29  and  C21_30 
REMARK   18  A    between atoms: C20_29  and  C24_33 
REMARK   19  A    between atoms: C20_29  and  N6_40 
REMARK   20  A    between atoms: C21_30  and  C22_31 
REMARK   21  A    between atoms: C22_31  and  C23_32 
REMARK   22  A    between atoms: C23_32  and  O8_43 
REMARK   23  A    between atoms: C24_33  and  C25_34 
REMARK   24  A    between atoms: C28_38  and  O6_39 
REMARK   25  A    between atoms: C29_42  and  O8_43 
REMARK   26  A    between atoms: C29_42  and  C35_49 
ROOT
ATOM      1  C14 non d ame     -32.430   9.462  24.554  0.00  0.00     0.089 C 
ATOM      2  H20 non d ame     -32.029   8.569  25.034  0.00  0.00     0.087 H 
ENDROOT
BRANCH   1   3
ATOM      3  N4  non d ame     -33.752   9.704  25.113  0.00  0.00    -0.346 N 
ATOM      4  C10 non d ame     -34.585   8.554  25.624  0.00  0.00     0.241 C 
ATOM      5  O4  non d ame     -34.171   7.444  25.572  0.00  0.00    -0.271 OA
ATOM      6  H19 non d ame     -34.087  10.656  25.146  0.00  0.00     0.163 HD
BRANCH   4   7
ATOM      7  C9  non d ame     -35.948   8.824  26.205  0.00  0.00     0.092 C 
ATOM      8  H11 non d ame     -36.444   7.875  26.410  0.00  0.00     0.088 H 
BRANCH   7   9
ATOM      9  N3  non d ame     -35.805   9.525  27.484  0.00  0.00    -0.346 N 
ATOM     10  C7  non d ame     -36.293   8.917  28.697  0.00  0.00     0.240 C 
ATOM     11  O3  non d ame     -36.805   7.865  28.662  0.00  0.00    -0.271 OA
ATOM     12  H10 non d ame     -35.368  10.434  27.530  0.00  0.00     0.163 HD
BRANCH  10  13
ATOM     13  C6  non d ame     -36.141   9.670  30.056  0.00  0.00     0.086 C 
ATOM     14  H6  non d ame     -35.874   9.006  30.878  0.00  0.00     0.086 H 
BRANCH  13  15
ATOM     15  N2  non d ame     -35.066  10.641  29.938  0.00  0.00    -0.343 N 
ATOM     16  C5  non d ame     -33.841  10.459  30.721  0.00  0.00     0.273 C 
ATOM     17  O2  non d ame     -33.733   9.530  31.444  0.00  0.00    -0.266 OA
ATOM     18  H5  non d ame     -35.170  11.434  29.321  0.00  0.00     0.163 HD
BRANCH  16  19
ATOM     19  C4  non d ame     -32.696  11.477  30.606  0.00  0.00     0.154 A 
ATOM     20  C1  non d ame     -32.738  12.757  29.969  0.00  0.00    -0.017 A 
ATOM     21  C2  non d ame     -31.442  13.291  30.139  0.00  0.00     0.077 A 
ATOM     22  H1  non d ame     -33.580  13.227  29.459  0.00  0.00     0.091 H 
ATOM     23  O1  non d ame     -30.745  12.413  30.801  0.00  0.00    -0.218 OA
ATOM     24  N1  non d ame     -31.456  11.346  31.084  0.00  0.00    -0.123 NA
BRANCH  21  25
ATOM     25  C3  non d ame     -30.951  14.645  29.642  0.00  0.00    -0.029 C 
ATOM     26  H2  non d ame     -30.296  15.091  30.390  0.00  0.00     0.036 H 
ATOM     27  H3  non d ame     -30.401  14.512  28.711  0.00  0.00     0.036 H 
ATOM     28  H4  non d ame     -31.804  15.300  29.470  0.00  0.00     0.036 H 
ENDBRANCH  21  25
ENDBRANCH  16  19
ENDBRANCH  13  15
BRANCH  13  29
ATOM     29  C8  non d ame     -37.434  10.369  30.393  0.00  0.00    -0.049 C 
ATOM     30  H7  non d ame     -37.259  11.441  30.467  0.00  0.00     0.030 H 
ATOM     31  H8  non d ame     -38.167  10.173  29.610  0.00  0.00     0.030 H 
ATOM     32  H9  non d ame     -37.811   9.995  31.346  0.00  0.00     0.030 H 
ENDBRANCH  13  29
ENDBRANCH  10  13
ENDBRANCH   7   9
BRANCH   7  33
ATOM     33  C11 non d ame     -36.765   9.709  25.219  0.00  0.00    -0.033 C 
ATOM     34  H12 non d ame     -36.172  10.599  25.008  0.00  0.00     0.042 H 
BRANCH  33  35
ATOM     35  C12 non d ame     -37.009   8.975  23.863  0.00  0.00    -0.071 C 
ATOM     36  H13 non d ame     -37.270   9.705  23.097  0.00  0.00     0.028 H 
ATOM     37  H14 non d ame     -36.103   8.447  23.568  0.00  0.00     0.028 H 
ATOM     38  H15 non d ame     -37.825   8.262  23.978  0.00  0.00     0.028 H 
ENDBRANCH  33  35
BRANCH  33  39
ATOM     39  C13 non d ame     -38.112  10.168  25.865  0.00  0.00    -0.071 C 
ATOM     40  H16 non d ame     -38.370  11.162  25.499  0.00  0.00     0.028 H 
ATOM     41  H17 non d ame     -38.902   9.466  25.598  0.00  0.00     0.028 H 
ATOM     42  H18 non d ame     -38.004  10.196  26.948  0.00  0.00     0.028 H 
ENDBRANCH  33  39
ENDBRANCH   7  33
ENDBRANCH   4   7
ENDBRANCH   1   3
BRANCH   1  43
ATOM     43  C15 non d ame     -31.547  10.716  24.812  0.00  0.00     0.240 C 
ATOM     44  O5  non d ame     -30.811  10.738  25.745  0.00  0.00    -0.271 OA
ATOM     45  N6  non d ame     -31.610  11.885  23.890  0.00  0.00    -0.355 N 
ATOM     46  H46 non d ame     -32.228  11.875  23.091  0.00  0.00     0.162 HD
BRANCH  45  47
ATOM     47  C20 non d ame     -30.762  13.070  24.148  0.00  0.00     0.013 C 
ATOM     48  H30 non d ame     -30.030  12.798  24.909  0.00  0.00     0.072 H 
BRANCH  47  49
ATOM     49  C21 non d ame     -31.627  14.206  24.645  0.00  0.00    -0.038 C 
ATOM     50  H31 non d ame     -31.036  15.111  24.501  0.00  0.00     0.036 H 
ATOM     51  H32 non d ame     -32.583  14.093  24.133  0.00  0.00     0.036 H 
BRANCH  49  52
ATOM     52  C22 non d ame     -31.927  14.115  26.156  0.00  0.00     0.018 C 
ATOM     53  H33 non d ame     -31.340  13.274  26.524  0.00  0.00     0.048 H 
ATOM     54  H34 non d ame     -31.751  15.117  26.552  0.00  0.00     0.048 H 
BRANCH  52  55
ATOM     55  C23 non d ame     -33.408  13.780  26.483  0.00  0.00     0.259 C 
ATOM     56  O7  non d ame     -33.905  12.780  26.076  0.00  0.00    -0.265 OA
BRANCH  55  57
ATOM     57  O8  non d ame     -34.173  14.691  27.263  0.00  0.00    -0.317 OA
BRANCH  57  58
ATOM     58  C29 non d ame     -34.797  15.729  26.500  0.00  0.00     0.052 C 
ATOM     59  H47 non d ame     -34.700  15.427  25.458  0.00  0.00     0.082 H 
ATOM     60  H48 non d ame     -35.785  15.865  26.939  0.00  0.00     0.082 H 
BRANCH  58  61
ATOM     61  C35 non d ame     -33.983  17.034  26.711  0.00  0.00    -0.034 A 
ATOM     62  C30 non d ame     -33.907  17.979  25.692  0.00  0.00    -0.075 A 
ATOM     63  C31 non d ame     -33.175  19.151  25.882  0.00  0.00    -0.082 A 
ATOM     64  H49 non d ame     -34.418  17.801  24.747  0.00  0.00     0.084 H 
ATOM     65  C32 non d ame     -32.517  19.375  27.094  0.00  0.00    -0.083 A 
ATOM     66  H50 non d ame     -33.118  19.890  25.082  0.00  0.00     0.083 H 
ATOM     67  C33 non d ame     -32.593  18.428  28.105  0.00  0.00    -0.082 A 
ATOM     68  H51 non d ame     -31.944  20.289  27.249  0.00  0.00     0.083 H 
ATOM     69  C34 non d ame     -33.325  17.256  27.922  0.00  0.00    -0.075 A 
ATOM     70  H52 non d ame     -32.077  18.604  29.050  0.00  0.00     0.083 H 
ATOM     71  H53 non d ame     -33.381  16.517  28.722  0.00  0.00     0.084 H 
ENDBRANCH  58  61
ENDBRANCH  57  58
ENDBRANCH  55  57
ENDBRANCH  52  55
ENDBRANCH  49  52
ENDBRANCH  47  49
BRANCH  47  72
ATOM     72  C24 non d ame     -30.056  13.490  22.861  0.00  0.00    -0.039 C 
ATOM     73  H35 non d ame     -28.998  13.289  23.031  0.00  0.00     0.036 H 
ATOM     74  H36 non d ame     -30.586  12.977  22.059  0.00  0.00     0.036 H 
BRANCH  72  75
ATOM     75  C25 non d ame     -30.202  15.063  22.592  0.00  0.00    -0.001 C 
ATOM     76  C26 non d ame     -31.107  15.318  21.244  0.00  0.00    -0.035 C 
ATOM     77  C27 non d ame     -30.436  16.158  20.420  0.00  0.00     0.085 C 
ATOM     78  H38 non d ame     -31.182  14.398  20.664  0.00  0.00     0.036 H 
ATOM     79  H39 non d ame     -32.008  15.877  21.499  0.00  0.00     0.036 H 
ATOM     80  N5  non d ame     -29.018  16.239  20.931  0.00  0.00    -0.049 N 
ATOM     81  H40 non d ame     -30.435  15.671  19.444  0.00  0.00     0.075 H 
ATOM     82  H41 non d ame     -30.914  17.130  20.543  0.00  0.00     0.075 H 
ATOM     83  C28 non d ame     -29.047  15.616  22.420  0.00  0.00     0.193 C 
ATOM     84  H42 non d ame     -28.465  15.634  20.340  0.00  0.00     0.280 HD
ATOM     85  H43 non d ame     -28.794  17.222  20.997  0.00  0.00     0.280 HD
ATOM     86  H44 non d ame     -29.008  16.266  23.293  0.00  0.00     0.129 H 
ATOM     87  H37 non d ame     -30.483  15.611  23.490  0.00  0.00     0.046 H 
BRANCH  83  88
ATOM     88  O6  non d ame     -27.974  14.687  22.587  0.00  0.00    -0.369 OA
ATOM     89  H45 non d ame     -28.150  13.899  22.069  0.00  0.00     0.212 HD
ENDBRANCH  83  88
ENDBRANCH  72  75
ENDBRANCH  47  72
ENDBRANCH  45  47
ENDBRANCH   1  43
BRANCH   1  90
ATOM     90  C16 non d ame     -32.560   9.228  23.057  0.00  0.00    -0.035 C 
ATOM     91  H21 non d ame     -33.561   8.823  22.914  0.00  0.00     0.037 H 
ATOM     92  H22 non d ame     -32.284  10.173  22.592  0.00  0.00     0.037 H 
BRANCH  90  93
ATOM     93  C17 non d ame     -31.569   8.156  22.503  0.00  0.00    -0.059 C 
ATOM     94  H23 non d ame     -32.033   7.696  21.630  0.00  0.00     0.038 H 
BRANCH  93  95
ATOM     95  C18 non d ame     -30.214   8.786  22.047  0.00  0.00    -0.073 C 
ATOM     96  H24 non d ame     -29.625   8.037  21.517  0.00  0.00     0.028 H 
ATOM     97  H25 non d ame     -30.411   9.628  21.383  0.00  0.00     0.028 H 
ATOM     98  H26 non d ame     -29.662   9.132  22.920  0.00  0.00     0.028 H 
ENDBRANCH  93  95
BRANCH  93  99
ATOM     99  C19 non d ame     -31.334   7.045  23.530  0.00  0.00    -0.073 C 
ATOM    100  H27 non d ame     -30.264   6.944  23.719  0.00  0.00     0.028 H 
ATOM    101  H28 non d ame     -31.843   7.297  24.461  0.00  0.00     0.028 H 
ATOM    102  H29 non d ame     -31.726   6.104  23.145  0.00  0.00     0.028 H 
ENDBRANCH  93  99
ENDBRANCH  90  93
ENDBRANCH   1  90
TORSDOF 26
ENDMDL
MODEL 12
REMARK VINA RESULT:      -6.8      2.868      8.202
REMARK  26 active torsions:
REMARK  status: ('A' for Active; 'I' for Inactive)
REMARK    1  A    between atoms: C2_2  and  C3_3 
REMARK    2  A    between atoms: C4_6  and  C5_7 
REMARK       I    between atoms: C5_7  and  N2_9 
REMARK    3  A    between atoms: N2_9  and  C6_10 
REMARK    4  A    between atoms: C6_10  and  C7_11 
REMARK    5  A    between atoms: C6_10  and  C8_13 
REMARK       I    between atoms: C7_11  and  N3_14 
REMARK    6  A    between atoms: N3_14  and  C9_15 
REMARK    7  A    between atoms: C9_15  and  C10_16 
REMARK    8  A    between atoms: C9_15  and  C11_18 
REMARK       I    between atoms: C10_16  and  N4_21 
REMARK    9  A    between atoms: C11_18  and  C12_19 
REMARK   10  A    between atoms: C11_18  and  C13_20 
REMARK   11  A    between atoms: N4_21  and  C14_22 
REMARK   12  A    between atoms: C14_22  and  C15_23 
REMARK   13  A    between atoms: C14_22  and  C16_25 
REMARK       I    between atoms: C15_23  and  N6_40 
REMARK   14  A    between atoms: C16_25  and  C17_26 
REMARK   15  A    between atoms: C17_26  and  C18_27 
REMARK   16  A    between atoms: C17_26  and  C19_28 
REMARK   17  A    between atoms: C20_29  and  C21_30 
REMARK   18  A    between atoms: C20_29  and  C24_33 
REMARK   19  A    between atoms: C20_29  and  N6_40 
REMARK   20  A    between atoms: C21_30  and  C22_31 
REMARK   21  A    between atoms: C22_31  and  C23_32 
REMARK   22  A    between atoms: C23_32  and  O8_43 
REMARK   23  A    between atoms: C24_33  and  C25_34 
REMARK   24  A    between atoms: C28_38  and  O6_39 
REMARK   25  A    between atoms: C29_42  and  O8_43 
REMARK   26  A    between atoms: C29_42  and  C35_49 
ROOT
ATOM      1  C14 non d ame     -34.542   9.113  30.126  0.00  0.00     0.089 C 
ATOM      2  H20 non d ame     -35.559   9.417  29.876  0.00  0.00     0.087 H 
ENDROOT
BRANCH   1   3
ATOM      3  N4  non d ame     -34.218   7.955  29.306  0.00  0.00    -0.346 N 
ATOM      4  C10 non d ame     -35.044   7.630  28.086  0.00  0.00     0.241 C 
ATOM      5  O4  non d ame     -35.967   8.313  27.787  0.00  0.00    -0.271 OA
ATOM      6  H19 non d ame     -33.430   7.385  29.579  0.00  0.00     0.163 HD
BRANCH   4   7
ATOM      7  C9  non d ame     -34.690   6.431  27.246  0.00  0.00     0.092 C 
ATOM      8  H11 non d ame     -35.527   5.733  27.247  0.00  0.00     0.088 H 
BRANCH   7   9
ATOM      9  N3  non d ame     -34.478   6.852  25.858  0.00  0.00    -0.346 N 
ATOM     10  C7  non d ame     -35.249   6.251  24.797  0.00  0.00     0.240 C 
ATOM     11  O3  non d ame     -36.043   5.427  25.043  0.00  0.00    -0.271 OA
ATOM     12  H10 non d ame     -33.796   7.560  25.631  0.00  0.00     0.163 HD
BRANCH  10  13
ATOM     13  C6  non d ame     -35.017   6.701  23.321  0.00  0.00     0.086 C 
ATOM     14  H6  non d ame     -35.532   7.630  23.078  0.00  0.00     0.086 H 
BRANCH  13  15
ATOM     15  N2  non d ame     -33.598   6.947  23.122  0.00  0.00    -0.343 N 
ATOM     16  C5  non d ame     -33.125   8.319  22.923  0.00  0.00     0.273 C 
ATOM     17  O2  non d ame     -33.894   9.217  22.923  0.00  0.00    -0.266 OA
ATOM     18  H5  non d ame     -32.949   6.173  23.120  0.00  0.00     0.163 HD
BRANCH  16  19
ATOM     19  C4  non d ame     -31.628   8.594  22.713  0.00  0.00     0.154 A 
ATOM     20  C1  non d ame     -30.573   7.630  22.649  0.00  0.00    -0.017 A 
ATOM     21  C2  non d ame     -29.399   8.389  22.444  0.00  0.00     0.077 A 
ATOM     22  H1  non d ame     -30.646   6.547  22.740  0.00  0.00     0.091 H 
ATOM     23  O1  non d ame     -29.751   9.641  22.394  0.00  0.00    -0.218 OA
ATOM     24  N1  non d ame     -31.047   9.785  22.549  0.00  0.00    -0.123 NA
BRANCH  21  25
ATOM     25  C3  non d ame     -27.984   7.843  22.305  0.00  0.00    -0.029 C 
ATOM     26  H2  non d ame     -27.343   8.297  23.061  0.00  0.00     0.036 H 
ATOM     27  H3  non d ame     -27.997   6.762  22.444  0.00  0.00     0.036 H 
ATOM     28  H4  non d ame     -27.599   8.077  21.314  0.00  0.00     0.036 H 
ENDBRANCH  21  25
ENDBRANCH  16  19
ENDBRANCH  13  15
BRANCH  13  29
ATOM     29  C8  non d ame     -35.490   5.619  22.383  0.00  0.00    -0.049 C 
ATOM     30  H7  non d ame     -36.575   5.662  22.297  0.00  0.00     0.030 H 
ATOM     31  H8  non d ame     -35.042   5.770  21.401  0.00  0.00     0.030 H 
ATOM     32  H9  non d ame     -35.194   4.645  22.773  0.00  0.00     0.030 H 
ENDBRANCH  13  29
ENDBRANCH  10  13
ENDBRANCH   7   9
BRANCH   7  33
ATOM     33  C11 non d ame     -33.386   5.781  27.794  0.00  0.00    -0.033 C 
ATOM     34  H12 non d ame     -33.235   6.153  28.808  0.00  0.00     0.042 H 
BRANCH  33  35
ATOM     35  C12 non d ame     -33.516   4.228  27.878  0.00  0.00    -0.071 C 
ATOM     36  H13 non d ame     -33.461   3.804  26.875  0.00  0.00     0.028 H 
ATOM     37  H14 non d ame     -32.705   3.829  28.486  0.00  0.00     0.028 H 
ATOM     38  H15 non d ame     -34.473   3.967  28.330  0.00  0.00     0.028 H 
ENDBRANCH  33  35
BRANCH  33  39
ATOM     39  C13 non d ame     -32.149   6.201  26.936  0.00  0.00    -0.071 C 
ATOM     40  H16 non d ame     -31.367   6.585  27.591  0.00  0.00     0.028 H 
ATOM     41  H17 non d ame     -31.774   5.334  26.391  0.00  0.00     0.028 H 
ATOM     42  H18 non d ame     -32.444   6.974  26.228  0.00  0.00     0.028 H 
ENDBRANCH  33  39
ENDBRANCH   7  33
ENDBRANCH   4   7
ENDBRANCH   1   3
BRANCH   1  43
ATOM     43  C15 non d ame     -33.504  10.233  29.833  0.00  0.00     0.240 C 
ATOM     44  O5  non d ame     -32.619  10.434  30.601  0.00  0.00    -0.271 OA
ATOM     45  N6  non d ame     -33.607  11.050  28.591  0.00  0.00    -0.355 N 
ATOM     46  H46 non d ame     -34.352  10.885  27.929  0.00  0.00     0.162 HD
BRANCH  45  47
ATOM     47  C20 non d ame     -32.611  12.111  28.325  0.00  0.00     0.013 C 
ATOM     48  H30 non d ame     -31.619  11.682  28.466  0.00  0.00     0.072 H 
BRANCH  47  49
ATOM     49  C21 non d ame     -32.824  13.251  29.296  0.00  0.00    -0.038 C 
ATOM     50  H31 non d ame     -33.538  13.920  28.814  0.00  0.00     0.036 H 
ATOM     51  H32 non d ame     -33.072  12.783  30.248  0.00  0.00     0.036 H 
BRANCH  49  52
ATOM     52  C22 non d ame     -31.544  14.080  29.537  0.00  0.00     0.018 C 
ATOM     53  H33 non d ame     -31.150  13.743  30.494  0.00  0.00     0.048 H 
ATOM     54  H34 non d ame     -30.946  13.968  28.632  0.00  0.00     0.048 H 
BRANCH  52  55
ATOM     55  C23 non d ame     -31.805  15.603  29.693  0.00  0.00     0.259 C 
ATOM     56  O7  non d ame     -31.063  16.281  30.328  0.00  0.00    -0.265 OA
BRANCH  55  57
ATOM     57  O8  non d ame     -32.951  16.181  29.079  0.00  0.00    -0.317 OA
BRANCH  57  58
ATOM     58  C29 non d ame     -32.885  16.227  27.651  0.00  0.00     0.052 C 
ATOM     59  H47 non d ame     -31.897  15.849  27.390  0.00  0.00     0.082 H 
ATOM     60  H48 non d ame     -33.778  15.712  27.297  0.00  0.00     0.082 H 
BRANCH  58  61
ATOM     61  C35 non d ame     -32.971  17.715  27.215  0.00  0.00    -0.034 A 
ATOM     62  C30 non d ame     -32.742  18.726  28.143  0.00  0.00    -0.075 A 
ATOM     63  C31 non d ame     -32.820  20.063  27.751  0.00  0.00    -0.082 A 
ATOM     64  H49 non d ame     -32.502  18.473  29.175  0.00  0.00     0.084 H 
ATOM     65  C32 non d ame     -33.131  20.385  26.428  0.00  0.00    -0.083 A 
ATOM     66  H50 non d ame     -32.638  20.853  28.480  0.00  0.00     0.083 H 
ATOM     67  C33 non d ame     -33.363  19.372  25.507  0.00  0.00    -0.082 A 
ATOM     68  H51 non d ame     -33.193  21.427  26.114  0.00  0.00     0.083 H 
ATOM     69  C34 non d ame     -33.284  18.036  25.893  0.00  0.00    -0.075 A 
ATOM     70  H52 non d ame     -33.607  19.627  24.475  0.00  0.00     0.083 H 
ATOM     71  H53 non d ame     -33.466  17.246  25.164  0.00  0.00     0.084 H 
ENDBRANCH  58  61
ENDBRANCH  57  58
ENDBRANCH  55  57
ENDBRANCH  52  55
ENDBRANCH  49  52
ENDBRANCH  47  49
BRANCH  47  72
ATOM     72  C24 non d ame     -32.770  12.623  26.895  0.00  0.00    -0.039 C 
ATOM     73  H35 non d ame     -33.436  11.912  26.406  0.00  0.00     0.036 H 
ATOM     74  H36 non d ame     -33.064  13.668  26.992  0.00  0.00     0.036 H 
BRANCH  72  75
ATOM     75  C25 non d ame     -31.380  12.596  26.098  0.00  0.00    -0.001 C 
ATOM     76  C26 non d ame     -30.981  14.117  25.619  0.00  0.00    -0.035 C 
ATOM     77  C27 non d ame     -30.701  14.098  24.294  0.00  0.00     0.085 C 
ATOM     78  H38 non d ame     -31.850  14.771  25.687  0.00  0.00     0.036 H 
ATOM     79  H39 non d ame     -30.036  14.416  26.075  0.00  0.00     0.036 H 
ATOM     80  N5  non d ame     -31.189  12.774  23.759  0.00  0.00    -0.049 N 
ATOM     81  H40 non d ame     -31.298  14.899  23.858  0.00  0.00     0.075 H 
ATOM     82  H41 non d ame     -29.613  14.129  24.225  0.00  0.00     0.075 H 
ATOM     83  C28 non d ame     -31.456  11.843  25.051  0.00  0.00     0.193 C 
ATOM     84  H42 non d ame     -32.073  12.956  23.306  0.00  0.00     0.280 HD
ATOM     85  H43 non d ame     -30.424  12.379  23.231  0.00  0.00     0.280 HD
ATOM     86  H44 non d ame     -30.754  11.056  25.322  0.00  0.00     0.129 H 
ATOM     87  H37 non d ame     -30.615  12.023  26.622  0.00  0.00     0.046 H 
BRANCH  83  88
ATOM     88  O6  non d ame     -32.728  11.200  24.941  0.00  0.00    -0.369 OA
ATOM     89  H45 non d ame     -33.422  11.863  24.929  0.00  0.00     0.212 HD
ENDBRANCH  83  88
ENDBRANCH  72  75
ENDBRANCH  47  72
ENDBRANCH  45  47
ENDBRANCH   1  43
BRANCH   1  90
ATOM     90  C16 non d ame     -34.468   8.718  31.592  0.00  0.00    -0.035 C 
ATOM     91  H21 non d ame     -34.605   7.637  31.607  0.00  0.00     0.037 H 
ATOM     92  H22 non d ame     -33.541   9.155  31.962  0.00  0.00     0.037 H 
BRANCH  90  93
ATOM     93  C17 non d ame     -35.618   9.319  32.462  0.00  0.00    -0.059 C 
ATOM     94  H23 non d ame     -35.692   8.722  33.371  0.00  0.00     0.038 H 
BRANCH  93  95
ATOM     95  C18 non d ame     -35.329  10.795  32.882  0.00  0.00    -0.073 C 
ATOM     96  H24 non d ame     -36.257  11.366  32.869  0.00  0.00     0.028 H 
ATOM     97  H25 non d ame     -34.909  10.811  33.889  0.00  0.00     0.028 H 
ATOM     98  H26 non d ame     -34.619  11.239  32.186  0.00  0.00     0.028 H 
ENDBRANCH  93  95
BRANCH  93  99
ATOM     99  C19 non d ame     -36.963   9.213  31.738  0.00  0.00    -0.073 C 
ATOM    100  H27 non d ame     -36.791   9.057  30.672  0.00  0.00     0.028 H 
ATOM    101  H28 non d ame     -37.528   8.372  32.140  0.00  0.00     0.028 H 
ATOM    102  H29 non d ame     -37.528  10.133  31.885  0.00  0.00     0.028 H 
ENDBRANCH  93  99
ENDBRANCH  90  93
ENDBRANCH   1  90
TORSDOF 26
ENDMDL
MODEL 13
REMARK VINA RESULT:      -6.8      2.388      8.753
REMARK  26 active torsions:
REMARK  status: ('A' for Active; 'I' for Inactive)
REMARK    1  A    between atoms: C2_2  and  C3_3 
REMARK    2  A    between atoms: C4_6  and  C5_7 
REMARK       I    between atoms: C5_7  and  N2_9 
REMARK    3  A    between atoms: N2_9  and  C6_10 
REMARK    4  A    between atoms: C6_10  and  C7_11 
REMARK    5  A    between atoms: C6_10  and  C8_13 
REMARK       I    between atoms: C7_11  and  N3_14 
REMARK    6  A    between atoms: N3_14  and  C9_15 
REMARK    7  A    between atoms: C9_15  and  C10_16 
REMARK    8  A    between atoms: C9_15  and  C11_18 
REMARK       I    between atoms: C10_16  and  N4_21 
REMARK    9  A    between atoms: C11_18  and  C12_19 
REMARK   10  A    between atoms: C11_18  and  C13_20 
REMARK   11  A    between atoms: N4_21  and  C14_22 
REMARK   12  A    between atoms: C14_22  and  C15_23 
REMARK   13  A    between atoms: C14_22  and  C16_25 
REMARK       I    between atoms: C15_23  and  N6_40 
REMARK   14  A    between atoms: C16_25  and  C17_26 
REMARK   15  A    between atoms: C17_26  and  C18_27 
REMARK   16  A    between atoms: C17_26  and  C19_28 
REMARK   17  A    between atoms: C20_29  and  C21_30 
REMARK   18  A    between atoms: C20_29  and  C24_33 
REMARK   19  A    between atoms: C20_29  and  N6_40 
REMARK   20  A    between atoms: C21_30  and  C22_31 
REMARK   21  A    between atoms: C22_31  and  C23_32 
REMARK   22  A    between atoms: C23_32  and  O8_43 
REMARK   23  A    between atoms: C24_33  and  C25_34 
REMARK   24  A    between atoms: C28_38  and  O6_39 
REMARK   25  A    between atoms: C29_42  and  O8_43 
REMARK   26  A    between atoms: C29_42  and  C35_49 
ROOT
ATOM      1  C14 non d ame     -37.528  13.955  25.045  0.00  0.00     0.089 C 
ATOM      2  H20 non d ame     -38.568  14.018  25.365  0.00  0.00     0.087 H 
ENDROOT
BRANCH   1   3
ATOM      3  N4  non d ame     -36.957  15.290  25.143  0.00  0.00    -0.346 N 
ATOM      4  C10 non d ame     -37.395  16.227  26.242  0.00  0.00     0.241 C 
ATOM      5  O4  non d ame     -38.210  15.884  27.033  0.00  0.00    -0.271 OA
ATOM      6  H19 non d ame     -36.266  15.562  24.459  0.00  0.00     0.163 HD
BRANCH   4   7
ATOM      7  C9  non d ame     -36.789  17.602  26.331  0.00  0.00     0.092 C 
ATOM      8  H11 non d ame     -37.195  18.117  27.203  0.00  0.00     0.088 H 
BRANCH   7   9
ATOM      9  N3  non d ame     -35.342  17.488  26.530  0.00  0.00    -0.346 N 
ATOM     10  C7  non d ame     -34.729  18.049  27.709  0.00  0.00     0.240 C 
ATOM     11  O3  non d ame     -35.387  18.598  28.508  0.00  0.00    -0.271 OA
ATOM     12  H10 non d ame     -34.761  17.019  25.850  0.00  0.00     0.163 HD
BRANCH  10  13
ATOM     13  C6  non d ame     -33.187  17.927  27.914  0.00  0.00     0.086 C 
ATOM     14  H6  non d ame     -32.843  18.416  28.826  0.00  0.00     0.086 H 
BRANCH  13  15
ATOM     15  N2  non d ame     -32.839  16.521  28.041  0.00  0.00    -0.343 N 
ATOM     16  C5  non d ame     -32.069  16.071  29.203  0.00  0.00     0.273 C 
ATOM     17  O2  non d ame     -31.734  16.847  30.028  0.00  0.00    -0.266 OA
ATOM     18  H5  non d ame     -33.127  15.866  27.329  0.00  0.00     0.163 HD
BRANCH  16  19
ATOM     19  C4  non d ame     -31.696  14.588  29.350  0.00  0.00     0.154 A 
ATOM     20  C1  non d ame     -32.496  13.546  29.917  0.00  0.00    -0.017 A 
ATOM     21  C2  non d ame     -31.703  12.381  29.815  0.00  0.00     0.077 A 
ATOM     22  H1  non d ame     -33.498  13.623  30.340  0.00  0.00     0.091 H 
ATOM     23  O1  non d ame     -30.582  12.724  29.250  0.00  0.00    -0.218 OA
ATOM     24  N1  non d ame     -30.554  14.007  28.971  0.00  0.00    -0.123 NA
BRANCH  21  25
ATOM     25  C3  non d ame     -32.091  10.983  30.277  0.00  0.00    -0.029 C 
ATOM     26  H2  non d ame     -32.530  10.433  29.445  0.00  0.00     0.036 H 
ATOM     27  H3  non d ame     -31.204  10.458  30.630  0.00  0.00     0.036 H 
ATOM     28  H4  non d ame     -32.816  11.056  31.087  0.00  0.00     0.036 H 
ENDBRANCH  21  25
ENDBRANCH  16  19
ENDBRANCH  13  15
BRANCH  13  29
ATOM     29  C8  non d ame     -32.471  18.533  26.734  0.00  0.00    -0.049 C 
ATOM     30  H7  non d ame     -33.200  18.835  25.983  0.00  0.00     0.030 H 
ATOM     31  H8  non d ame     -31.904  19.404  27.062  0.00  0.00     0.030 H 
ATOM     32  H9  non d ame     -31.791  17.797  26.305  0.00  0.00     0.030 H 
ENDBRANCH  13  29
ENDBRANCH  10  13
ENDBRANCH   7   9
BRANCH   7  33
ATOM     33  C11 non d ame     -37.069  18.379  25.012  0.00  0.00    -0.033 C 
ATOM     34  H12 non d ame     -36.630  17.806  24.194  0.00  0.00     0.042 H 
BRANCH  33  35
ATOM     35  C12 non d ame     -38.600  18.496  24.734  0.00  0.00    -0.071 C 
ATOM     36  H13 non d ame     -39.154  18.256  25.641  0.00  0.00     0.028 H 
ATOM     37  H14 non d ame     -38.836  19.513  24.422  0.00  0.00     0.028 H 
ATOM     38  H15 non d ame     -38.880  17.799  23.943  0.00  0.00     0.028 H 
ENDBRANCH  33  35
BRANCH  33  39
ATOM     39  C13 non d ame     -36.389  19.785  25.035  0.00  0.00    -0.071 C 
ATOM     40  H16 non d ame     -36.202  20.116  24.013  0.00  0.00     0.028 H 
ATOM     41  H17 non d ame     -37.045  20.499  25.534  0.00  0.00     0.028 H 
ATOM     42  H18 non d ame     -35.445  19.723  25.575  0.00  0.00     0.028 H 
ENDBRANCH  33  39
ENDBRANCH   7  33
ENDBRANCH   4   7
ENDBRANCH   1   3
BRANCH   1  43
ATOM     43  C15 non d ame     -36.695  12.993  25.939  0.00  0.00     0.240 C 
ATOM     44  O5  non d ame     -36.937  12.907  27.100  0.00  0.00    -0.271 OA
ATOM     45  N6  non d ame     -35.601  12.172  25.348  0.00  0.00    -0.355 N 
ATOM     46  H46 non d ame     -35.390  12.233  24.362  0.00  0.00     0.162 HD
BRANCH  45  47
ATOM     47  C20 non d ame     -34.819  11.260  26.211  0.00  0.00     0.013 C 
ATOM     48  H30 non d ame     -35.504  10.809  26.930  0.00  0.00     0.072 H 
BRANCH  47  49
ATOM     49  C21 non d ame     -33.754  12.050  26.938  0.00  0.00    -0.038 C 
ATOM     50  H31 non d ame     -34.285  12.846  27.463  0.00  0.00     0.036 H 
ATOM     51  H32 non d ame     -33.176  11.317  27.500  0.00  0.00     0.036 H 
BRANCH  49  52
ATOM     52  C22 non d ame     -32.764  12.745  25.979  0.00  0.00     0.018 C 
ATOM     53  H33 non d ame     -31.778  12.600  26.417  0.00  0.00     0.048 H 
ATOM     54  H34 non d ame     -32.984  12.345  24.988  0.00  0.00     0.048 H 
BRANCH  52  55
ATOM     55  C23 non d ame     -32.966  14.281  25.875  0.00  0.00     0.259 C 
ATOM     56  O7  non d ame     -34.036  14.764  26.062  0.00  0.00    -0.265 OA
BRANCH  55  57
ATOM     57  O8  non d ame     -31.859  15.109  25.538  0.00  0.00    -0.317 OA
BRANCH  57  58
ATOM     58  C29 non d ame     -30.734  14.393  25.019  0.00  0.00     0.052 C 
ATOM     59  H47 non d ame     -29.867  14.778  25.554  0.00  0.00     0.082 H 
ATOM     60  H48 non d ame     -30.996  13.337  25.094  0.00  0.00     0.082 H 
BRANCH  58  61
ATOM     61  C35 non d ame     -30.586  14.756  23.517  0.00  0.00    -0.034 A 
ATOM     62  C30 non d ame     -31.159  15.924  23.024  0.00  0.00    -0.075 A 
ATOM     63  C31 non d ame     -31.026  16.251  21.675  0.00  0.00    -0.082 A 
ATOM     64  H49 non d ame     -31.712  16.583  23.693  0.00  0.00     0.084 H 
ATOM     65  C32 non d ame     -30.320  15.403  20.818  0.00  0.00    -0.083 A 
ATOM     66  H50 non d ame     -31.476  17.168  21.292  0.00  0.00     0.083 H 
ATOM     67  C33 non d ame     -29.753  14.237  21.314  0.00  0.00    -0.082 A 
ATOM     68  H51 non d ame     -30.211  15.652  19.762  0.00  0.00     0.083 H 
ATOM     69  C34 non d ame     -29.881  13.908  22.662  0.00  0.00    -0.075 A 
ATOM     70  H52 non d ame     -29.204  13.576  20.642  0.00  0.00     0.083 H 
ATOM     71  H53 non d ame     -29.432  12.991  23.044  0.00  0.00     0.084 H 
ENDBRANCH  58  61
ENDBRANCH  57  58
ENDBRANCH  55  57
ENDBRANCH  52  55
ENDBRANCH  49  52
ENDBRANCH  47  49
BRANCH  47  72
ATOM     72  C24 non d ame     -34.159  10.179  25.358  0.00  0.00    -0.039 C 
ATOM     73  H35 non d ame     -34.789  10.085  24.472  0.00  0.00     0.036 H 
ATOM     74  H36 non d ame     -33.118  10.485  25.256  0.00  0.00     0.036 H 
BRANCH  72  75
ATOM     75  C25 non d ame     -34.165   8.756  26.094  0.00  0.00    -0.001 C 
ATOM     76  C26 non d ame     -34.977   8.868  27.519  0.00  0.00    -0.035 C 
ATOM     77  C27 non d ame     -34.200   8.359  28.506  0.00  0.00     0.085 C 
ATOM     78  H38 non d ame     -35.096   9.913  27.801  0.00  0.00     0.036 H 
ATOM     79  H39 non d ame     -35.842   8.204  27.509  0.00  0.00     0.036 H 
ATOM     80  N5  non d ame     -32.808   8.214  27.940  0.00  0.00    -0.049 N 
ATOM     81  H40 non d ame     -34.188   9.119  29.288  0.00  0.00     0.075 H 
ATOM     82  H41 non d ame     -34.604   7.369  28.714  0.00  0.00     0.075 H 
ATOM     83  C28 non d ame     -32.962   8.352  26.339  0.00  0.00     0.193 C 
ATOM     84  H42 non d ame     -32.276   9.001  28.281  0.00  0.00     0.280 HD
ATOM     85  H43 non d ame     -32.510   7.272  28.154  0.00  0.00     0.280 HD
ATOM     86  H44 non d ame     -32.916   7.471  25.700  0.00  0.00     0.129 H 
ATOM     87  H37 non d ame     -34.447   7.945  25.424  0.00  0.00     0.046 H 
BRANCH  83  88
ATOM     88  O6  non d ame     -31.976   9.250  25.825  0.00  0.00    -0.369 OA
ATOM     89  H45 non d ame     -31.521   9.676  26.554  0.00  0.00     0.212 HD
ENDBRANCH  83  88
ENDBRANCH  72  75
ENDBRANCH  47  72
ENDBRANCH  45  47
ENDBRANCH   1  43
BRANCH   1  90
ATOM     90  C16 non d ame     -37.462  13.493  23.598  0.00  0.00    -0.035 C 
ATOM     91  H21 non d ame     -36.991  14.312  23.054  0.00  0.00     0.037 H 
ATOM     92  H22 non d ame     -36.984  12.514  23.629  0.00  0.00     0.037 H 
BRANCH  90  93
ATOM     93  C17 non d ame     -38.864  13.279  22.944  0.00  0.00    -0.059 C 
ATOM     94  H23 non d ame     -39.343  14.254  22.861  0.00  0.00     0.038 H 
BRANCH  93  95
ATOM     95  C18 non d ame     -38.758  12.676  21.506  0.00  0.00    -0.073 C 
ATOM     96  H24 non d ame     -38.752  13.483  20.773  0.00  0.00     0.028 H 
ATOM     97  H25 non d ame     -37.834  12.102  21.421  0.00  0.00     0.028 H 
ATOM     98  H26 non d ame     -39.610  12.023  21.322  0.00  0.00     0.028 H 
ENDBRANCH  93  95
BRANCH  93  99
ATOM     99  C19 non d ame     -39.756  12.409  23.834  0.00  0.00    -0.073 C 
ATOM    100  H27 non d ame     -40.250  11.652  23.224  0.00  0.00     0.028 H 
ATOM    101  H28 non d ame     -39.145  11.921  24.594  0.00  0.00     0.028 H 
ATOM    102  H29 non d ame     -40.506  13.034  24.318  0.00  0.00     0.028 H 
ENDBRANCH  93  99
ENDBRANCH  90  93
ENDBRANCH   1  90
TORSDOF 26
ENDMDL
MODEL 14
REMARK VINA RESULT:      -6.7      2.598      7.333
REMARK  26 active torsions:
REMARK  status: ('A' for Active; 'I' for Inactive)
REMARK    1  A    between atoms: C2_2  and  C3_3 
REMARK    2  A    between atoms: C4_6  and  C5_7 
REMARK       I    between atoms: C5_7  and  N2_9 
REMARK    3  A    between atoms: N2_9  and  C6_10 
REMARK    4  A    between atoms: C6_10  and  C7_11 
REMARK    5  A    between atoms: C6_10  and  C8_13 
REMARK       I    between atoms: C7_11  and  N3_14 
REMARK    6  A    between atoms: N3_14  and  C9_15 
REMARK    7  A    between atoms: C9_15  and  C10_16 
REMARK    8  A    between atoms: C9_15  and  C11_18 
REMARK       I    between atoms: C10_16  and  N4_21 
REMARK    9  A    between atoms: C11_18  and  C12_19 
REMARK   10  A    between atoms: C11_18  and  C13_20 
REMARK   11  A    between atoms: N4_21  and  C14_22 
REMARK   12  A    between atoms: C14_22  and  C15_23 
REMARK   13  A    between atoms: C14_22  and  C16_25 
REMARK       I    between atoms: C15_23  and  N6_40 
REMARK   14  A    between atoms: C16_25  and  C17_26 
REMARK   15  A    between atoms: C17_26  and  C18_27 
REMARK   16  A    between atoms: C17_26  and  C19_28 
REMARK   17  A    between atoms: C20_29  and  C21_30 
REMARK   18  A    between atoms: C20_29  and  C24_33 
REMARK   19  A    between atoms: C20_29  and  N6_40 
REMARK   20  A    between atoms: C21_30  and  C22_31 
REMARK   21  A    between atoms: C22_31  and  C23_32 
REMARK   22  A    between atoms: C23_32  and  O8_43 
REMARK   23  A    between atoms: C24_33  and  C25_34 
REMARK   24  A    between atoms: C28_38  and  O6_39 
REMARK   25  A    between atoms: C29_42  and  O8_43 
REMARK   26  A    between atoms: C29_42  and  C35_49 
ROOT
ATOM      1  C14 non d ame     -34.116   8.867  25.191  0.00  0.00     0.089 C 
ATOM      2  H20 non d ame     -33.812   7.841  25.400  0.00  0.00     0.087 H 
ENDROOT
BRANCH   1   3
ATOM      3  N4  non d ame     -34.113   9.590  26.454  0.00  0.00    -0.346 N 
ATOM      4  C10 non d ame     -34.420   8.871  27.745  0.00  0.00     0.241 C 
ATOM      5  O4  non d ame     -34.670   7.712  27.741  0.00  0.00    -0.271 OA
ATOM      6  H19 non d ame     -33.899  10.577  26.436  0.00  0.00     0.163 HD
BRANCH   4   7
ATOM      7  C9  non d ame     -34.406   9.635  29.043  0.00  0.00     0.092 C 
ATOM      8  H11 non d ame     -33.932   9.025  29.813  0.00  0.00     0.088 H 
BRANCH   7   9
ATOM      9  N3  non d ame     -33.596  10.846  28.889  0.00  0.00    -0.346 N 
ATOM     10  C7  non d ame     -32.754  11.292  29.972  0.00  0.00     0.240 C 
ATOM     11  O3  non d ame     -32.718  10.688  30.975  0.00  0.00    -0.271 OA
ATOM     12  H10 non d ame     -33.618  11.378  28.032  0.00  0.00     0.163 HD
BRANCH  10  13
ATOM     13  C6  non d ame     -31.896  12.584  29.805  0.00  0.00     0.086 C 
ATOM     14  H6  non d ame     -31.263  12.558  28.917  0.00  0.00     0.086 H 
BRANCH  13  15
ATOM     15  N2  non d ame     -32.785  13.723  29.647  0.00  0.00    -0.343 N 
ATOM     16  C5  non d ame     -32.543  14.683  28.568  0.00  0.00     0.273 C 
ATOM     17  O2  non d ame     -31.630  14.532  27.834  0.00  0.00    -0.266 OA
ATOM     18  H5  non d ame     -33.561  13.847  30.282  0.00  0.00     0.163 HD
BRANCH  16  19
ATOM     19  C4  non d ame     -33.476  15.891  28.389  0.00  0.00     0.154 A 
ATOM     20  C1  non d ame     -34.818  15.881  27.892  0.00  0.00    -0.017 A 
ATOM     21  C2  non d ame     -35.229  17.232  27.926  0.00  0.00     0.077 A 
ATOM     22  H1  non d ame     -35.404  15.025  27.556  0.00  0.00     0.091 H 
ATOM     23  O1  non d ame     -34.233  17.928  28.393  0.00  0.00    -0.218 OA
ATOM     24  N1  non d ame     -33.199  17.167  28.669  0.00  0.00    -0.123 NA
BRANCH  21  25
ATOM     25  C3  non d ame     -36.586  17.773  27.497  0.00  0.00    -0.029 C 
ATOM     26  H2  non d ame     -36.641  17.797  26.409  0.00  0.00     0.036 H 
ATOM     27  H3  non d ame     -37.374  17.127  27.886  0.00  0.00     0.036 H 
ATOM     28  H4  non d ame     -36.716  18.781  27.889  0.00  0.00     0.036 H 
ENDBRANCH  21  25
ENDBRANCH  16  19
ENDBRANCH  13  15
BRANCH  13  29
ATOM     29  C8  non d ame     -31.024  12.774  31.021  0.00  0.00    -0.049 C 
ATOM     30  H7  non d ame     -29.982  12.847  30.713  0.00  0.00     0.030 H 
ATOM     31  H8  non d ame     -31.315  13.689  31.536  0.00  0.00     0.030 H 
ATOM     32  H9  non d ame     -31.147  11.923  31.692  0.00  0.00     0.030 H 
ENDBRANCH  13  29
ENDBRANCH  10  13
ENDBRANCH   7   9
BRANCH   7  33
ATOM     33  C11 non d ame     -35.861  10.032  29.426  0.00  0.00    -0.033 C 
ATOM     34  H12 non d ame     -35.812  10.979  29.964  0.00  0.00     0.042 H 
BRANCH  33  35
ATOM     35  C12 non d ame     -36.743  10.258  28.158  0.00  0.00    -0.071 C 
ATOM     36  H13 non d ame     -37.727  10.616  28.459  0.00  0.00     0.028 H 
ATOM     37  H14 non d ame     -36.268  10.998  27.514  0.00  0.00     0.028 H 
ATOM     38  H15 non d ame     -36.848   9.319  27.616  0.00  0.00     0.028 H 
ENDBRANCH  33  35
BRANCH  33  39
ATOM     39  C13 non d ame     -36.500   8.969  30.376  0.00  0.00    -0.071 C 
ATOM     40  H16 non d ame     -37.548   8.828  30.113  0.00  0.00     0.028 H 
ATOM     41  H17 non d ame     -35.968   8.022  30.273  0.00  0.00     0.028 H 
ATOM     42  H18 non d ame     -36.427   9.313  31.407  0.00  0.00     0.028 H 
ENDBRANCH  33  39
ENDBRANCH   7  33
ENDBRANCH   4   7
ENDBRANCH   1   3
BRANCH   1  43
ATOM     43  C15 non d ame     -33.143   9.580  24.210  0.00  0.00     0.240 C 
ATOM     44  O5  non d ame     -33.279   9.439  23.037  0.00  0.00    -0.271 OA
ATOM     45  N6  non d ame     -32.049  10.447  24.730  0.00  0.00    -0.355 N 
ATOM     46  H46 non d ame     -31.927  10.578  25.725  0.00  0.00     0.162 HD
BRANCH  45  47
ATOM     47  C20 non d ame     -31.132  11.120  23.784  0.00  0.00     0.013 C 
ATOM     48  H30 non d ame     -31.662  11.250  22.840  0.00  0.00     0.072 H 
BRANCH  47  49
ATOM     49  C21 non d ame     -29.908  10.258  23.574  0.00  0.00    -0.038 C 
ATOM     50  H31 non d ame     -29.069  10.951  23.501  0.00  0.00     0.036 H 
ATOM     51  H32 non d ame     -29.933   9.514  24.370  0.00  0.00     0.036 H 
BRANCH  49  52
ATOM     52  C22 non d ame     -29.946   9.476  22.244  0.00  0.00     0.018 C 
ATOM     53  H33 non d ame     -30.979   9.154  22.119  0.00  0.00     0.048 H 
ATOM     54  H34 non d ame     -29.487  10.133  21.503  0.00  0.00     0.048 H 
BRANCH  52  55
ATOM     55  C23 non d ame     -29.091   8.179  22.254  0.00  0.00     0.259 C 
ATOM     56  O7  non d ame     -27.951   8.205  21.919  0.00  0.00    -0.265 OA
BRANCH  55  57
ATOM     57  O8  non d ame     -29.689   6.953  22.656  0.00  0.00    -0.317 OA
BRANCH  57  58
ATOM     58  C29 non d ame     -31.037   6.789  22.205  0.00  0.00     0.052 C 
ATOM     59  H47 non d ame     -31.422   7.797  22.054  0.00  0.00     0.082 H 
ATOM     60  H48 non d ame     -30.986   6.093  21.368  0.00  0.00     0.082 H 
BRANCH  58  61
ATOM     61  C35 non d ame     -31.847   6.120  23.349  0.00  0.00    -0.034 A 
ATOM     62  C30 non d ame     -31.530   6.390  24.676  0.00  0.00    -0.075 A 
ATOM     63  C31 non d ame     -32.257   5.790  25.704  0.00  0.00    -0.082 A 
ATOM     64  H49 non d ame     -30.711   7.070  24.912  0.00  0.00     0.084 H 
ATOM     65  C32 non d ame     -33.303   4.915  25.399  0.00  0.00    -0.083 A 
ATOM     66  H50 non d ame     -32.006   6.004  26.743  0.00  0.00     0.083 H 
ATOM     67  C33 non d ame     -33.614   4.647  24.073  0.00  0.00    -0.082 A 
ATOM     68  H51 non d ame     -33.877   4.443  26.196  0.00  0.00     0.083 H 
ATOM     69  C34 non d ame     -32.892   5.246  23.043  0.00  0.00    -0.075 A 
ATOM     70  H52 non d ame     -34.430   3.963  23.838  0.00  0.00     0.083 H 
ATOM     71  H53 non d ame     -33.143   5.031  22.004  0.00  0.00     0.084 H 
ENDBRANCH  58  61
ENDBRANCH  57  58
ENDBRANCH  55  57
ENDBRANCH  52  55
ENDBRANCH  49  52
ENDBRANCH  47  49
BRANCH  47  72
ATOM     72  C24 non d ame     -30.712  12.476  24.347  0.00  0.00    -0.039 C 
ATOM     73  H35 non d ame     -31.475  12.733  25.083  0.00  0.00     0.036 H 
ATOM     74  H36 non d ame     -29.675  12.351  24.659  0.00  0.00     0.036 H 
BRANCH  72  75
ATOM     75  C25 non d ame     -30.733  13.617  23.224  0.00  0.00    -0.001 C 
ATOM     76  C26 non d ame     -29.469  13.411  22.194  0.00  0.00    -0.035 C 
ATOM     77  C27 non d ame     -28.799  14.584  22.085  0.00  0.00     0.085 C 
ATOM     78  H38 non d ame     -28.734  12.737  22.633  0.00  0.00     0.036 H 
ATOM     79  H39 non d ame     -29.836  13.234  21.183  0.00  0.00     0.036 H 
ATOM     80  N5  non d ame     -29.292  15.478  23.197  0.00  0.00    -0.049 N 
ATOM     81  H40 non d ame     -27.751  14.338  22.265  0.00  0.00     0.075 H 
ATOM     82  H41 non d ame     -29.103  15.006  21.128  0.00  0.00     0.075 H 
ATOM     83  C28 non d ame     -30.645  14.794  23.751  0.00  0.00     0.193 C 
ATOM     84  H42 non d ame     -28.592  15.444  23.924  0.00  0.00     0.280 HD
ATOM     85  H43 non d ame     -29.530  16.361  22.768  0.00  0.00     0.280 HD
ATOM     86  H44 non d ame     -31.620  15.202  23.489  0.00  0.00     0.129 H 
ATOM     87  H37 non d ame     -31.720  13.741  22.780  0.00  0.00     0.046 H 
BRANCH  83  88
ATOM     88  O6  non d ame     -30.623  14.744  25.179  0.00  0.00    -0.369 OA
ATOM     89  H45 non d ame     -29.947  15.341  25.509  0.00  0.00     0.212 HD
ENDBRANCH  83  88
ENDBRANCH  72  75
ENDBRANCH  47  72
ENDBRANCH  45  47
ENDBRANCH   1  43
BRANCH   1  90
ATOM     90  C16 non d ame     -35.523   8.880  24.616  0.00  0.00    -0.035 C 
ATOM     91  H21 non d ame     -36.146   9.337  25.385  0.00  0.00     0.037 H 
ATOM     92  H22 non d ame     -35.431   9.352  23.639  0.00  0.00     0.037 H 
BRANCH  90  93
ATOM     93  C17 non d ame     -36.111   7.455  24.365  0.00  0.00    -0.059 C 
ATOM     94  H23 non d ame     -35.418   6.730  24.791  0.00  0.00     0.038 H 
BRANCH  93  95
ATOM     95  C18 non d ame     -37.495   7.257  25.061  0.00  0.00    -0.073 C 
ATOM     96  H24 non d ame     -38.092   6.547  24.488  0.00  0.00     0.028 H 
ATOM     97  H25 non d ame     -37.343   6.871  26.069  0.00  0.00     0.028 H 
ATOM     98  H26 non d ame     -38.016   8.212  25.112  0.00  0.00     0.028 H 
ENDBRANCH  93  95
BRANCH  93  99
ATOM     99  C19 non d ame     -36.209   7.161  22.865  0.00  0.00    -0.073 C 
ATOM    100  H27 non d ame     -35.729   7.965  22.305  0.00  0.00     0.028 H 
ATOM    101  H28 non d ame     -35.708   6.218  22.646  0.00  0.00     0.028 H 
ATOM    102  H29 non d ame     -37.257   7.091  22.576  0.00  0.00     0.028 H 
ENDBRANCH  93  99
ENDBRANCH  90  93
ENDBRANCH   1  90
TORSDOF 26
ENDMDL
MODEL 15
REMARK VINA RESULT:      -6.7      3.938     10.013
REMARK  26 active torsions:
REMARK  status: ('A' for Active; 'I' for Inactive)
REMARK    1  A    between atoms: C2_2  and  C3_3 
REMARK    2  A    between atoms: C4_6  and  C5_7 
REMARK       I    between atoms: C5_7  and  N2_9 
REMARK    3  A    between atoms: N2_9  and  C6_10 
REMARK    4  A    between atoms: C6_10  and  C7_11 
REMARK    5  A    between atoms: C6_10  and  C8_13 
REMARK       I    between atoms: C7_11  and  N3_14 
REMARK    6  A    between atoms: N3_14  and  C9_15 
REMARK    7  A    between atoms: C9_15  and  C10_16 
REMARK    8  A    between atoms: C9_15  and  C11_18 
REMARK       I    between atoms: C10_16  and  N4_21 
REMARK    9  A    between atoms: C11_18  and  C12_19 
REMARK   10  A    between atoms: C11_18  and  C13_20 
REMARK   11  A    between atoms: N4_21  and  C14_22 
REMARK   12  A    between atoms: C14_22  and  C15_23 
REMARK   13  A    between atoms: C14_22  and  C16_25 
REMARK       I    between atoms: C15_23  and  N6_40 
REMARK   14  A    between atoms: C16_25  and  C17_26 
REMARK   15  A    between atoms: C17_26  and  C18_27 
REMARK   16  A    between atoms: C17_26  and  C19_28 
REMARK   17  A    between atoms: C20_29  and  C21_30 
REMARK   18  A    between atoms: C20_29  and  C24_33 
REMARK   19  A    between atoms: C20_29  and  N6_40 
REMARK   20  A    between atoms: C21_30  and  C22_31 
REMARK   21  A    between atoms: C22_31  and  C23_32 
REMARK   22  A    between atoms: C23_32  and  O8_43 
REMARK   23  A    between atoms: C24_33  and  C25_34 
REMARK   24  A    between atoms: C28_38  and  O6_39 
REMARK   25  A    between atoms: C29_42  and  O8_43 
REMARK   26  A    between atoms: C29_42  and  C35_49 
ROOT
ATOM      1  C14 non d ame     -34.998   6.247  30.692  0.00  0.00     0.089 C 
ATOM      2  H20 non d ame     -34.458   6.389  31.628  0.00  0.00     0.087 H 
ENDROOT
BRANCH   1   3
ATOM      3  N4  non d ame     -35.195   7.559  30.095  0.00  0.00    -0.346 N 
ATOM      4  C10 non d ame     -34.843   8.807  30.866  0.00  0.00     0.241 C 
ATOM      5  O4  non d ame     -34.407   8.730  31.967  0.00  0.00    -0.271 OA
ATOM      6  H19 non d ame     -35.569   7.604  29.158  0.00  0.00     0.163 HD
BRANCH   4   7
ATOM      7  C9  non d ame     -35.047  10.157  30.230  0.00  0.00     0.092 C 
ATOM      8  H11 non d ame     -35.418  10.855  30.981  0.00  0.00     0.088 H 
BRANCH   7   9
ATOM      9  N3  non d ame     -33.760  10.674  29.756  0.00  0.00    -0.346 N 
ATOM     10  C7  non d ame     -33.028  11.626  30.555  0.00  0.00     0.240 C 
ATOM     11  O3  non d ame     -33.461  11.988  31.581  0.00  0.00    -0.271 OA
ATOM     12  H10 non d ame     -33.375  10.373  28.873  0.00  0.00     0.163 HD
BRANCH  10  13
ATOM     13  C6  non d ame     -31.660  12.176  30.044  0.00  0.00     0.086 C 
ATOM     14  H6  non d ame     -31.436  11.867  29.023  0.00  0.00     0.086 H 
BRANCH  13  15
ATOM     15  N2  non d ame     -31.709  13.629  30.037  0.00  0.00    -0.343 N 
ATOM     16  C5  non d ame     -32.232  14.327  28.860  0.00  0.00     0.273 C 
ATOM     17  O2  non d ame     -32.608  13.711  27.924  0.00  0.00    -0.266 OA
ATOM     18  H5  non d ame     -31.382  14.147  30.839  0.00  0.00     0.163 HD
BRANCH  16  19
ATOM     19  C4  non d ame     -32.292  15.862  28.840  0.00  0.00     0.154 A 
ATOM     20  C1  non d ame     -32.826  16.693  27.805  0.00  0.00    -0.017 A 
ATOM     21  C2  non d ame     -32.641  18.015  28.268  0.00  0.00     0.077 A 
ATOM     22  H1  non d ame     -33.276  16.386  26.861  0.00  0.00     0.091 H 
ATOM     23  O1  non d ame     -32.070  17.940  29.435  0.00  0.00    -0.218 OA
ATOM     24  N1  non d ame     -31.855  16.694  29.789  0.00  0.00    -0.123 NA
BRANCH  21  25
ATOM     25  C3  non d ame     -33.039  19.291  27.537  0.00  0.00    -0.029 C 
ATOM     26  H2  non d ame     -32.741  20.157  28.129  0.00  0.00     0.036 H 
ATOM     27  H3  non d ame     -32.540  19.325  26.568  0.00  0.00     0.036 H 
ATOM     28  H4  non d ame     -34.118  19.305  27.391  0.00  0.00     0.036 H 
ENDBRANCH  21  25
ENDBRANCH  16  19
ENDBRANCH  13  15
BRANCH  13  29
ATOM     29  C8  non d ame     -30.553  11.701  30.952  0.00  0.00    -0.049 C 
ATOM     30  H7  non d ame     -30.083  12.559  31.431  0.00  0.00     0.030 H 
ATOM     31  H8  non d ame     -30.968  11.042  31.715  0.00  0.00     0.030 H 
ATOM     32  H9  non d ame     -29.811  11.158  30.367  0.00  0.00     0.030 H 
ENDBRANCH  13  29
ENDBRANCH  10  13
ENDBRANCH   7   9
BRANCH   7  33
ATOM     33  C11 non d ame     -36.023  10.020  29.026  0.00  0.00    -0.033 C 
ATOM     34  H12 non d ame     -36.087   8.961  28.773  0.00  0.00     0.042 H 
BRANCH  33  35
ATOM     35  C12 non d ame     -37.460  10.500  29.400  0.00  0.00    -0.071 C 
ATOM     36  H13 non d ame     -38.010   9.678  29.858  0.00  0.00     0.028 H 
ATOM     37  H14 non d ame     -37.393  11.330  30.104  0.00  0.00     0.028 H 
ATOM     38  H15 non d ame     -37.980  10.828  28.500  0.00  0.00     0.028 H 
ENDBRANCH  33  35
BRANCH  33  39
ATOM     39  C13 non d ame     -35.479  10.782  27.775  0.00  0.00    -0.071 C 
ATOM     40  H16 non d ame     -36.168  10.650  26.940  0.00  0.00     0.028 H 
ATOM     41  H17 non d ame     -35.388  11.844  28.007  0.00  0.00     0.028 H 
ATOM     42  H18 non d ame     -34.501  10.386  27.505  0.00  0.00     0.028 H 
ENDBRANCH  33  39
ENDBRANCH   7  33
ENDBRANCH   4   7
ENDBRANCH   1   3
BRANCH   1  43
ATOM     43  C15 non d ame     -34.211   5.358  29.687  0.00  0.00     0.240 C 
ATOM     44  O5  non d ame     -33.532   4.470  30.091  0.00  0.00    -0.271 OA
ATOM     45  N6  non d ame     -34.311   5.608  28.222  0.00  0.00    -0.355 N 
ATOM     46  H46 non d ame     -34.889   6.357  27.867  0.00  0.00     0.162 HD
BRANCH  45  47
ATOM     47  C20 non d ame     -33.557   4.753  27.278  0.00  0.00     0.013 C 
ATOM     48  H30 non d ame     -32.973   4.043  27.863  0.00  0.00     0.072 H 
BRANCH  47  49
ATOM     49  C21 non d ame     -32.636   5.618  26.447  0.00  0.00    -0.038 C 
ATOM     50  H31 non d ame     -31.808   5.883  27.105  0.00  0.00     0.036 H 
ATOM     51  H32 non d ame     -32.448   5.053  25.534  0.00  0.00     0.036 H 
BRANCH  49  52
ATOM     52  C22 non d ame     -33.291   6.946  26.012  0.00  0.00     0.018 C 
ATOM     53  H33 non d ame     -32.953   7.122  24.992  0.00  0.00     0.048 H 
ATOM     54  H34 non d ame     -34.356   6.832  26.221  0.00  0.00     0.048 H 
BRANCH  52  55
ATOM     55  C23 non d ame     -32.822   8.176  26.838  0.00  0.00     0.259 C 
ATOM     56  O7  non d ame     -32.966   8.201  28.017  0.00  0.00    -0.265 OA
BRANCH  55  57
ATOM     57  O8  non d ame     -32.230   9.281  26.166  0.00  0.00    -0.317 OA
BRANCH  57  58
ATOM     58  C29 non d ame     -32.805   9.561  24.886  0.00  0.00     0.052 C 
ATOM     59  H47 non d ame     -33.483   8.732  24.681  0.00  0.00     0.082 H 
ATOM     60  H48 non d ame     -33.190  10.578  24.951  0.00  0.00     0.082 H 
BRANCH  58  61
ATOM     61  C35 non d ame     -31.665   9.534  23.833  0.00  0.00    -0.034 A 
ATOM     62  C30 non d ame     -30.963  10.698  23.537  0.00  0.00    -0.075 A 
ATOM     63  C31 non d ame     -29.940  10.674  22.590  0.00  0.00    -0.082 A 
ATOM     64  H49 non d ame     -31.215  11.629  24.045  0.00  0.00     0.084 H 
ATOM     65  C32 non d ame     -29.621   9.481  21.937  0.00  0.00    -0.083 A 
ATOM     66  H50 non d ame     -29.391  11.588  22.361  0.00  0.00     0.083 H 
ATOM     67  C33 non d ame     -30.326   8.323  22.233  0.00  0.00    -0.082 A 
ATOM     68  H51 non d ame     -28.822   9.454  21.196  0.00  0.00     0.083 H 
ATOM     69  C34 non d ame     -31.349   8.342  23.180  0.00  0.00    -0.075 A 
ATOM     70  H52 non d ame     -30.077   7.393  21.720  0.00  0.00     0.083 H 
ATOM     71  H53 non d ame     -31.897   7.427  23.408  0.00  0.00     0.084 H 
ENDBRANCH  58  61
ENDBRANCH  57  58
ENDBRANCH  55  57
ENDBRANCH  52  55
ENDBRANCH  49  52
ENDBRANCH  47  49
BRANCH  47  72
ATOM     72  C24 non d ame     -34.529   4.014  26.362  0.00  0.00    -0.039 C 
ATOM     73  H35 non d ame     -34.286   4.348  25.352  0.00  0.00     0.036 H 
ATOM     74  H36 non d ame     -34.430   2.961  26.624  0.00  0.00     0.036 H 
BRANCH  72  75
ATOM     75  C25 non d ame     -36.048   4.432  26.647  0.00  0.00    -0.001 C 
ATOM     76  C26 non d ame     -36.890   3.134  27.204  0.00  0.00    -0.035 C 
ATOM     77  C27 non d ame     -38.018   2.997  26.466  0.00  0.00     0.085 C 
ATOM     78  H38 non d ame     -36.340   2.216  27.001  0.00  0.00     0.036 H 
ATOM     79  H39 non d ame     -37.266   3.335  28.207  0.00  0.00     0.036 H 
ATOM     80  N5  non d ame     -37.861   3.878  25.251  0.00  0.00    -0.049 N 
ATOM     81  H40 non d ame     -38.033   1.953  26.149  0.00  0.00     0.075 H 
ATOM     82  H41 non d ame     -38.823   3.389  27.088  0.00  0.00     0.075 H 
ATOM     83  C28 non d ame     -36.624   4.864  25.574  0.00  0.00     0.193 C 
ATOM     84  H42 non d ame     -37.598   3.271  24.488  0.00  0.00     0.280 HD
ATOM     85  H43 non d ame     -38.705   4.431  25.188  0.00  0.00     0.280 HD
ATOM     86  H44 non d ame     -36.800   5.903  25.849  0.00  0.00     0.129 H 
ATOM     87  H37 non d ame     -36.122   5.355  27.222  0.00  0.00     0.046 H 
BRANCH  83  88
ATOM     88  O6  non d ame     -35.727   4.910  24.462  0.00  0.00    -0.369 OA
ATOM     89  H45 non d ame     -36.230   4.906  23.645  0.00  0.00     0.212 HD
ENDBRANCH  83  88
ENDBRANCH  72  75
ENDBRANCH  47  72
ENDBRANCH  45  47
ENDBRANCH   1  43
BRANCH   1  90
ATOM     90  C16 non d ame     -36.356   5.622  30.972  0.00  0.00    -0.035 C 
ATOM     91  H21 non d ame     -36.299   4.612  30.566  0.00  0.00     0.037 H 
ATOM     92  H22 non d ame     -36.527   5.771  32.038  0.00  0.00     0.037 H 
BRANCH  90  93
ATOM     93  C17 non d ame     -37.536   6.328  30.232  0.00  0.00    -0.059 C 
ATOM     94  H23 non d ame     -37.111   6.929  29.428  0.00  0.00     0.038 H 
BRANCH  93  95
ATOM     95  C18 non d ame     -38.526   5.303  29.590  0.00  0.00    -0.073 C 
ATOM     96  H24 non d ame     -38.040   4.331  29.507  0.00  0.00     0.028 H 
ATOM     97  H25 non d ame     -39.412   5.212  30.218  0.00  0.00     0.028 H 
ATOM     98  H26 non d ame     -38.816   5.651  28.599  0.00  0.00     0.028 H 
ENDBRANCH  93  95
BRANCH  93  99
ATOM     99  C19 non d ame     -38.277   7.284  31.171  0.00  0.00    -0.073 C 
ATOM    100  H27 non d ame     -39.037   6.732  31.726  0.00  0.00     0.028 H 
ATOM    101  H28 non d ame     -37.568   7.727  31.871  0.00  0.00     0.028 H 
ATOM    102  H29 non d ame     -38.751   8.072  30.588  0.00  0.00     0.028 H 
ENDBRANCH  93  99
ENDBRANCH  90  93
ENDBRANCH   1  90
TORSDOF 26
ENDMDL
MODEL 16
REMARK VINA RESULT:      -6.7      3.259      7.945
REMARK  26 active torsions:
REMARK  status: ('A' for Active; 'I' for Inactive)
REMARK    1  A    between atoms: C2_2  and  C3_3 
REMARK    2  A    between atoms: C4_6  and  C5_7 
REMARK       I    between atoms: C5_7  and  N2_9 
REMARK    3  A    between atoms: N2_9  and  C6_10 
REMARK    4  A    between atoms: C6_10  and  C7_11 
REMARK    5  A    between atoms: C6_10  and  C8_13 
REMARK       I    between atoms: C7_11  and  N3_14 
REMARK    6  A    between atoms: N3_14  and  C9_15 
REMARK    7  A    between atoms: C9_15  and  C10_16 
REMARK    8  A    between atoms: C9_15  and  C11_18 
REMARK       I    between atoms: C10_16  and  N4_21 
REMARK    9  A    between atoms: C11_18  and  C12_19 
REMARK   10  A    between atoms: C11_18  and  C13_20 
REMARK   11  A    between atoms: N4_21  and  C14_22 
REMARK   12  A    between atoms: C14_22  and  C15_23 
REMARK   13  A    between atoms: C14_22  and  C16_25 
REMARK       I    between atoms: C15_23  and  N6_40 
REMARK   14  A    between atoms: C16_25  and  C17_26 
REMARK   15  A    between atoms: C17_26  and  C18_27 
REMARK   16  A    between atoms: C17_26  and  C19_28 
REMARK   17  A    between atoms: C20_29  and  C21_30 
REMARK   18  A    between atoms: C20_29  and  C24_33 
REMARK   19  A    between atoms: C20_29  and  N6_40 
REMARK   20  A    between atoms: C21_30  and  C22_31 
REMARK   21  A    between atoms: C22_31  and  C23_32 
REMARK   22  A    between atoms: C23_32  and  O8_43 
REMARK   23  A    between atoms: C24_33  and  C25_34 
REMARK   24  A    between atoms: C28_38  and  O6_39 
REMARK   25  A    between atoms: C29_42  and  O8_43 
REMARK   26  A    between atoms: C29_42  and  C35_49 
ROOT
ATOM      1  C14 non d ame     -31.288  14.286  24.244  0.00  0.00     0.089 C 
ATOM      2  H20 non d ame     -30.276  14.235  24.646  0.00  0.00     0.087 H 
ENDROOT
BRANCH   1   3
ATOM      3  N4  non d ame     -31.796  12.925  24.162  0.00  0.00    -0.346 N 
ATOM      4  C10 non d ame     -31.582  11.961  25.302  0.00  0.00     0.241 C 
ATOM      5  O4  non d ame     -30.994  12.303  26.275  0.00  0.00    -0.271 OA
ATOM      6  H19 non d ame     -32.292  12.653  23.325  0.00  0.00     0.163 HD
BRANCH   4   7
ATOM      7  C9  non d ame     -32.120  10.558  25.202  0.00  0.00     0.092 C 
ATOM      8  H11 non d ame     -33.011  10.560  24.575  0.00  0.00     0.088 H 
BRANCH   7   9
ATOM      9  N3  non d ame     -31.129   9.700  24.546  0.00  0.00    -0.346 N 
ATOM     10  C7  non d ame     -31.404   9.149  23.242  0.00  0.00     0.240 C 
ATOM     11  O3  non d ame     -32.418   9.385  22.707  0.00  0.00    -0.271 OA
ATOM     12  H10 non d ame     -30.251   9.486  24.996  0.00  0.00     0.163 HD
BRANCH  10  13
ATOM     13  C6  non d ame     -30.347   8.234  22.549  0.00  0.00     0.086 C 
ATOM     14  H6  non d ame     -29.955   7.465  23.215  0.00  0.00     0.086 H 
BRANCH  13  15
ATOM     15  N2  non d ame     -30.980   7.540  21.440  0.00  0.00    -0.343 N 
ATOM     16  C5  non d ame     -31.654   6.261  21.678  0.00  0.00     0.273 C 
ATOM     17  O2  non d ame     -31.679   5.799  22.765  0.00  0.00    -0.266 OA
ATOM     18  H5  non d ame     -30.950   7.941  20.513  0.00  0.00     0.163 HD
BRANCH  16  19
ATOM     19  C4  non d ame     -32.328   5.518  20.515  0.00  0.00     0.154 A 
ATOM     20  C1  non d ame     -32.374   4.104  20.302  0.00  0.00    -0.017 A 
ATOM     21  C2  non d ame     -33.104   3.939  19.104  0.00  0.00     0.077 A 
ATOM     22  H1  non d ame     -31.942   3.318  20.921  0.00  0.00     0.091 H 
ATOM     23  O1  non d ame     -33.437   5.127  18.687  0.00  0.00    -0.218 OA
ATOM     24  N1  non d ame     -32.994   6.064  19.493  0.00  0.00    -0.123 NA
BRANCH  21  25
ATOM     25  C3  non d ame     -33.441   2.617  18.428  0.00  0.00    -0.029 C 
ATOM     26  H2  non d ame     -34.476   2.637  18.086  0.00  0.00     0.036 H 
ATOM     27  H3  non d ame     -32.780   2.467  17.574  0.00  0.00     0.036 H 
ATOM     28  H4  non d ame     -33.308   1.802  19.138  0.00  0.00     0.036 H 
ENDBRANCH  21  25
ENDBRANCH  16  19
ENDBRANCH  13  15
BRANCH  13  29
ATOM     29  C8  non d ame     -29.201   9.075  22.047  0.00  0.00    -0.049 C 
ATOM     30  H7  non d ame     -28.404   8.426  21.687  0.00  0.00     0.030 H 
ATOM     31  H8  non d ame     -29.548   9.710  21.231  0.00  0.00     0.030 H 
ATOM     32  H9  non d ame     -28.825   9.699  22.858  0.00  0.00     0.030 H 
ENDBRANCH  13  29
ENDBRANCH  10  13
ENDBRANCH   7   9
BRANCH   7  33
ATOM     33  C11 non d ame     -32.411  10.012  26.630  0.00  0.00    -0.033 C 
ATOM     34  H12 non d ame     -31.640  10.403  27.295  0.00  0.00     0.042 H 
BRANCH  33  35
ATOM     35  C12 non d ame     -33.790  10.515  27.162  0.00  0.00    -0.071 C 
ATOM     36  H13 non d ame     -34.591  10.060  26.581  0.00  0.00     0.028 H 
ATOM     37  H14 non d ame     -33.897  10.237  28.210  0.00  0.00     0.028 H 
ATOM     38  H15 non d ame     -33.842  11.600  27.066  0.00  0.00     0.028 H 
ENDBRANCH  33  35
BRANCH  33  39
ATOM     39  C13 non d ame     -32.328   8.452  26.660  0.00  0.00    -0.071 C 
ATOM     40  H16 non d ame     -33.058   8.035  25.965  0.00  0.00     0.028 H 
ATOM     41  H17 non d ame     -31.326   8.135  26.369  0.00  0.00     0.028 H 
ATOM     42  H18 non d ame     -32.542   8.096  27.668  0.00  0.00     0.028 H 
ENDBRANCH  33  39
ENDBRANCH   7  33
ENDBRANCH   4   7
ENDBRANCH   1   3
BRANCH   1  43
ATOM     43  C15 non d ame     -32.240  15.116  25.152  0.00  0.00     0.240 C 
ATOM     44  O5  non d ame     -33.283  15.494  24.726  0.00  0.00    -0.271 OA
ATOM     45  N6  non d ame     -31.855  15.432  26.557  0.00  0.00    -0.355 N 
ATOM     46  H46 non d ame     -30.974  15.111  26.932  0.00  0.00     0.162 HD
BRANCH  45  47
ATOM     47  C20 non d ame     -32.772  16.221  27.409  0.00  0.00     0.013 C 
ATOM     48  H30 non d ame     -33.772  16.149  26.981  0.00  0.00     0.072 H 
BRANCH  47  49
ATOM     49  C21 non d ame     -32.319  17.663  27.428  0.00  0.00    -0.038 C 
ATOM     50  H31 non d ame     -32.500  18.015  28.445  0.00  0.00     0.036 H 
ATOM     51  H32 non d ame     -31.307  17.659  27.024  0.00  0.00     0.036 H 
BRANCH  49  52
ATOM     52  C22 non d ame     -33.158  18.567  26.499  0.00  0.00     0.018 C 
ATOM     53  H33 non d ame     -32.551  19.454  26.324  0.00  0.00     0.048 H 
ATOM     54  H34 non d ame     -33.452  17.934  25.660  0.00  0.00     0.048 H 
BRANCH  52  55
ATOM     55  C23 non d ame     -34.480  19.070  27.140  0.00  0.00     0.259 C 
ATOM     56  O7  non d ame     -34.651  18.988  28.313  0.00  0.00    -0.265 OA
BRANCH  55  57
ATOM     57  O8  non d ame     -35.494  19.619  26.307  0.00  0.00    -0.317 OA
BRANCH  57  58
ATOM     58  C29 non d ame     -36.613  18.751  26.104  0.00  0.00     0.052 C 
ATOM     59  H47 non d ame     -36.274  17.994  25.398  0.00  0.00     0.082 H 
ATOM     60  H48 non d ame     -36.945  18.459  27.101  0.00  0.00     0.082 H 
BRANCH  58  61
ATOM     61  C35 non d ame     -37.744  19.576  25.434  0.00  0.00    -0.034 A 
ATOM     62  C30 non d ame     -39.049  19.485  25.909  0.00  0.00    -0.075 A 
ATOM     63  C31 non d ame     -40.065  20.226  25.306  0.00  0.00    -0.082 A 
ATOM     64  H49 non d ame     -39.275  18.833  26.753  0.00  0.00     0.084 H 
ATOM     65  C32 non d ame     -39.773  21.058  24.223  0.00  0.00    -0.083 A 
ATOM     66  H50 non d ame     -41.086  20.153  25.682  0.00  0.00     0.083 H 
ATOM     67  C33 non d ame     -38.470  21.144  23.750  0.00  0.00    -0.082 A 
ATOM     68  H51 non d ame     -40.561  21.641  23.747  0.00  0.00     0.083 H 
ATOM     69  C34 non d ame     -37.452  20.407  24.350  0.00  0.00    -0.075 A 
ATOM     70  H52 non d ame     -38.246  21.793  22.903  0.00  0.00     0.083 H 
ATOM     71  H53 non d ame     -36.431  20.480  23.974  0.00  0.00     0.084 H 
ENDBRANCH  58  61
ENDBRANCH  57  58
ENDBRANCH  55  57
ENDBRANCH  52  55
ENDBRANCH  49  52
ENDBRANCH  47  49
BRANCH  47  72
ATOM     72  C24 non d ame     -32.763  15.664  28.832  0.00  0.00    -0.039 C 
ATOM     73  H35 non d ame     -32.409  16.482  29.460  0.00  0.00     0.036 H 
ATOM     74  H36 non d ame     -33.759  15.250  28.987  0.00  0.00     0.036 H 
BRANCH  72  75
ATOM     75  C25 non d ame     -31.719  14.459  28.990  0.00  0.00    -0.001 C 
ATOM     76  C26 non d ame     -32.512  13.088  29.432  0.00  0.00    -0.035 C 
ATOM     77  C27 non d ame     -31.900  12.561  30.520  0.00  0.00     0.085 C 
ATOM     78  H38 non d ame     -33.510  13.333  29.794  0.00  0.00     0.036 H 
ATOM     79  H39 non d ame     -32.382  12.320  28.670  0.00  0.00     0.036 H 
ATOM     80  N5  non d ame     -30.967  13.620  31.057  0.00  0.00    -0.049 N 
ATOM     81  H40 non d ame     -32.695  12.387  31.246  0.00  0.00     0.075 H 
ATOM     82  H41 non d ame     -31.310  11.725  30.146  0.00  0.00     0.075 H 
ATOM     83  C28 non d ame     -30.830  14.726  29.889  0.00  0.00     0.193 C 
ATOM     84  H42 non d ame     -31.435  14.042  31.846  0.00  0.00     0.280 HD
ATOM     85  H43 non d ame     -30.070  13.172  31.183  0.00  0.00     0.280 HD
ATOM     86  H44 non d ame     -29.934  14.772  29.272  0.00  0.00     0.129 H 
ATOM     87  H37 non d ame     -31.039  14.388  28.142  0.00  0.00     0.046 H 
BRANCH  83  88
ATOM     88  O6  non d ame     -30.989  16.038  30.431  0.00  0.00    -0.369 OA
ATOM     89  H45 non d ame     -30.153  16.337  30.795  0.00  0.00     0.212 HD
ENDBRANCH  83  88
ENDBRANCH  72  75
ENDBRANCH  47  72
ENDBRANCH  45  47
ENDBRANCH   1  43
BRANCH   1  90
ATOM     90  C16 non d ame     -31.258  14.889  22.849  0.00  0.00    -0.035 C 
ATOM     91  H21 non d ame     -31.781  14.175  22.214  0.00  0.00     0.037 H 
ATOM     92  H22 non d ame     -31.646  15.901  22.963  0.00  0.00     0.037 H 
BRANCH  90  93
ATOM     93  C17 non d ame     -29.819  15.031  22.258  0.00  0.00    -0.059 C 
ATOM     94  H23 non d ame     -29.218  15.584  22.980  0.00  0.00     0.038 H 
BRANCH  93  95
ATOM     95  C18 non d ame     -29.136  13.645  22.031  0.00  0.00    -0.073 C 
ATOM     96  H24 non d ame     -29.613  12.896  22.664  0.00  0.00     0.028 H 
ATOM     97  H25 non d ame     -29.242  13.355  20.985  0.00  0.00     0.028 H 
ATOM     98  H26 non d ame     -28.079  13.714  22.282  0.00  0.00     0.028 H 
ENDBRANCH  93  95
BRANCH  93  99
ATOM     99  C19 non d ame     -29.838  15.847  20.963  0.00  0.00    -0.073 C 
ATOM    100  H27 non d ame     -29.795  15.173  20.107  0.00  0.00     0.028 H 
ATOM    101  H28 non d ame     -30.757  16.433  20.916  0.00  0.00     0.028 H 
ATOM    102  H29 non d ame     -28.980  16.517  20.942  0.00  0.00     0.028 H 
ENDBRANCH  93  99
ENDBRANCH  90  93
ENDBRANCH   1  90
TORSDOF 26
ENDMDL
MODEL 17
REMARK VINA RESULT:      -6.6      3.064      7.507
REMARK  26 active torsions:
REMARK  status: ('A' for Active; 'I' for Inactive)
REMARK    1  A    between atoms: C2_2  and  C3_3 
REMARK    2  A    between atoms: C4_6  and  C5_7 
REMARK       I    between atoms: C5_7  and  N2_9 
REMARK    3  A    between atoms: N2_9  and  C6_10 
REMARK    4  A    between atoms: C6_10  and  C7_11 
REMARK    5  A    between atoms: C6_10  and  C8_13 
REMARK       I    between atoms: C7_11  and  N3_14 
REMARK    6  A    between atoms: N3_14  and  C9_15 
REMARK    7  A    between atoms: C9_15  and  C10_16 
REMARK    8  A    between atoms: C9_15  and  C11_18 
REMARK       I    between atoms: C10_16  and  N4_21 
REMARK    9  A    between atoms: C11_18  and  C12_19 
REMARK   10  A    between atoms: C11_18  and  C13_20 
REMARK   11  A    between atoms: N4_21  and  C14_22 
REMARK   12  A    between atoms: C14_22  and  C15_23 
REMARK   13  A    between atoms: C14_22  and  C16_25 
REMARK       I    between atoms: C15_23  and  N6_40 
REMARK   14  A    between atoms: C16_25  and  C17_26 
REMARK   15  A    between atoms: C17_26  and  C18_27 
REMARK   16  A    between atoms: C17_26  and  C19_28 
REMARK   17  A    between atoms: C20_29  and  C21_30 
REMARK   18  A    between atoms: C20_29  and  C24_33 
REMARK   19  A    between atoms: C20_29  and  N6_40 
REMARK   20  A    between atoms: C21_30  and  C22_31 
REMARK   21  A    between atoms: C22_31  and  C23_32 
REMARK   22  A    between atoms: C23_32  and  O8_43 
REMARK   23  A    between atoms: C24_33  and  C25_34 
REMARK   24  A    between atoms: C28_38  and  O6_39 
REMARK   25  A    between atoms: C29_42  and  O8_43 
REMARK   26  A    between atoms: C29_42  and  C35_49 
ROOT
ATOM      1  C14 non d ame     -36.349  15.962  26.258  0.00  0.00     0.089 C 
ATOM      2  H20 non d ame     -37.041  16.436  26.954  0.00  0.00     0.087 H 
ENDROOT
BRANCH   1   3
ATOM      3  N4  non d ame     -35.005  16.139  26.788  0.00  0.00    -0.346 N 
ATOM      4  C10 non d ame     -34.718  17.233  27.786  0.00  0.00     0.241 C 
ATOM      5  O4  non d ame     -35.583  17.961  28.144  0.00  0.00    -0.271 OA
ATOM      6  H19 non d ame     -34.282  15.510  26.469  0.00  0.00     0.163 HD
BRANCH   4   7
ATOM      7  C9  non d ame     -33.323  17.397  28.329  0.00  0.00     0.092 C 
ATOM      8  H11 non d ame     -33.374  17.841  29.323  0.00  0.00     0.088 H 
BRANCH   7   9
ATOM      9  N3  non d ame     -32.695  16.081  28.473  0.00  0.00    -0.346 N 
ATOM     10  C7  non d ame     -31.774  15.836  29.555  0.00  0.00     0.240 C 
ATOM     11  O3  non d ame     -31.525  16.688  30.318  0.00  0.00    -0.271 OA
ATOM     12  H10 non d ame     -32.899  15.337  27.822  0.00  0.00     0.163 HD
BRANCH  10  13
ATOM     13  C6  non d ame     -31.107  14.433  29.702  0.00  0.00     0.086 C 
ATOM     14  H6  non d ame     -30.477  14.357  30.588  0.00  0.00     0.086 H 
BRANCH  13  15
ATOM     15  N2  non d ame     -32.148  13.429  29.843  0.00  0.00    -0.343 N 
ATOM     16  C5  non d ame     -31.863  12.193  30.577  0.00  0.00     0.273 C 
ATOM     17  O2  non d ame     -30.794  12.016  31.046  0.00  0.00    -0.266 OA
ATOM     18  H5  non d ame     -33.058  13.587  29.435  0.00  0.00     0.163 HD
BRANCH  16  19
ATOM     19  C4  non d ame     -32.955  11.124  30.735  0.00  0.00     0.154 A 
ATOM     20  C1  non d ame     -34.014  11.105  31.697  0.00  0.00    -0.017 A 
ATOM     21  C2  non d ame     -34.735   9.922  31.423  0.00  0.00     0.077 A 
ATOM     22  H1  non d ame     -34.227  11.837  32.476  0.00  0.00     0.091 H 
ATOM     23  O1  non d ame     -34.151   9.338  30.417  0.00  0.00    -0.218 OA
ATOM     24  N1  non d ame     -33.110  10.020  29.999  0.00  0.00    -0.123 NA
BRANCH  21  25
ATOM     25  C3  non d ame     -35.968   9.423  32.165  0.00  0.00    -0.029 C 
ATOM     26  H2  non d ame     -36.695  10.231  32.246  0.00  0.00     0.036 H 
ATOM     27  H3  non d ame     -36.410   8.591  31.617  0.00  0.00     0.036 H 
ATOM     28  H4  non d ame     -35.682   9.091  33.162  0.00  0.00     0.036 H 
ENDBRANCH  21  25
ENDBRANCH  16  19
ENDBRANCH  13  15
BRANCH  13  29
ATOM     29  C8  non d ame     -30.270  14.141  28.482  0.00  0.00    -0.049 C 
ATOM     30  H7  non d ame     -30.157  13.064  28.368  0.00  0.00     0.030 H 
ATOM     31  H8  non d ame     -30.762  14.550  27.599  0.00  0.00     0.030 H 
ATOM     32  H9  non d ame     -29.288  14.600  28.596  0.00  0.00     0.030 H 
ENDBRANCH  13  29
ENDBRANCH  10  13
ENDBRANCH   7   9
BRANCH   7  33
ATOM     33  C11 non d ame     -32.483  18.264  27.346  0.00  0.00    -0.033 C 
ATOM     34  H12 non d ame     -31.434  18.011  27.499  0.00  0.00     0.042 H 
BRANCH  33  35
ATOM     35  C12 non d ame     -32.832  17.940  25.859  0.00  0.00    -0.071 C 
ATOM     36  H13 non d ame     -32.548  16.912  25.636  0.00  0.00     0.028 H 
ATOM     37  H14 non d ame     -33.903  18.063  25.703  0.00  0.00     0.028 H 
ATOM     38  H15 non d ame     -32.288  18.618  25.202  0.00  0.00     0.028 H 
ENDBRANCH  33  35
BRANCH  33  39
ATOM     39  C13 non d ame     -32.662  19.787  27.650  0.00  0.00    -0.071 C 
ATOM     40  H16 non d ame     -33.725  20.024  27.707  0.00  0.00     0.028 H 
ATOM     41  H17 non d ame     -32.184  20.026  28.600  0.00  0.00     0.028 H 
ATOM     42  H18 non d ame     -32.201  20.372  26.855  0.00  0.00     0.028 H 
ENDBRANCH  33  39
ENDBRANCH   7  33
ENDBRANCH   4   7
ENDBRANCH   1   3
BRANCH   1  43
ATOM     43  C15 non d ame     -36.623  14.439  26.101  0.00  0.00     0.240 C 
ATOM     44  O5  non d ame     -37.336  14.054  25.232  0.00  0.00    -0.271 OA
ATOM     45  N6  non d ame     -35.989  13.460  27.028  0.00  0.00    -0.355 N 
ATOM     46  H46 non d ame     -35.376  13.775  27.767  0.00  0.00     0.162 HD
BRANCH  45  47
ATOM     47  C20 non d ame     -36.257  12.014  26.865  0.00  0.00     0.013 C 
ATOM     48  H30 non d ame     -36.315  11.803  25.797  0.00  0.00     0.072 H 
BRANCH  47  49
ATOM     49  C21 non d ame     -37.570  11.672  27.531  0.00  0.00    -0.038 C 
ATOM     50  H31 non d ame     -37.955  12.613  27.927  0.00  0.00     0.036 H 
ATOM     51  H32 non d ame     -38.143  11.119  26.787  0.00  0.00     0.036 H 
BRANCH  49  52
ATOM     52  C22 non d ame     -37.401  10.728  28.741  0.00  0.00     0.018 C 
ATOM     53  H33 non d ame     -37.273   9.731  28.322  0.00  0.00     0.048 H 
ATOM     54  H34 non d ame     -36.609  11.168  29.349  0.00  0.00     0.048 H 
BRANCH  52  55
ATOM     55  C23 non d ame     -38.653  10.651  29.657  0.00  0.00     0.259 C 
ATOM     56  O7  non d ame     -39.276  11.631  29.911  0.00  0.00    -0.265 OA
BRANCH  55  57
ATOM     57  O8  non d ame     -39.041   9.396  30.203  0.00  0.00    -0.317 OA
BRANCH  57  58
ATOM     58  C29 non d ame     -38.991   8.314  29.268  0.00  0.00     0.052 C 
ATOM     59  H47 non d ame     -39.936   7.784  29.380  0.00  0.00     0.082 H 
ATOM     60  H48 non d ame     -38.728   8.764  28.311  0.00  0.00     0.082 H 
BRANCH  58  61
ATOM     61  C35 non d ame     -37.841   7.364  29.696  0.00  0.00    -0.034 A 
ATOM     62  C30 non d ame     -37.942   6.637  30.878  0.00  0.00    -0.075 A 
ATOM     63  C31 non d ame     -36.908   5.783  31.263  0.00  0.00    -0.082 A 
ATOM     64  H49 non d ame     -38.828   6.737  31.504  0.00  0.00     0.084 H 
ATOM     65  C32 non d ame     -35.770   5.660  30.462  0.00  0.00    -0.083 A 
ATOM     66  H50 non d ame     -36.990   5.214  32.190  0.00  0.00     0.083 H 
ATOM     67  C33 non d ame     -35.673   6.389  29.284  0.00  0.00    -0.082 A 
ATOM     68  H51 non d ame     -34.958   4.994  30.755  0.00  0.00     0.083 H 
ATOM     69  C34 non d ame     -36.704   7.242  28.895  0.00  0.00    -0.075 A 
ATOM     70  H52 non d ame     -34.783   6.292  28.662  0.00  0.00     0.083 H 
ATOM     71  H53 non d ame     -36.621   7.810  27.968  0.00  0.00     0.084 H 
ENDBRANCH  58  61
ENDBRANCH  57  58
ENDBRANCH  55  57
ENDBRANCH  52  55
ENDBRANCH  49  52
ENDBRANCH  47  49
BRANCH  47  72
ATOM     72  C24 non d ame     -35.133  11.204  27.505  0.00  0.00    -0.039 C 
ATOM     73  H35 non d ame     -34.480  11.938  27.979  0.00  0.00     0.036 H 
ATOM     74  H36 non d ame     -35.630  10.446  28.111  0.00  0.00     0.036 H 
BRANCH  72  75
ATOM     75  C25 non d ame     -34.258  10.432  26.407  0.00  0.00    -0.001 C 
ATOM     76  C26 non d ame     -34.269   8.818  26.718  0.00  0.00    -0.035 C 
ATOM     77  C27 non d ame     -32.991   8.368  26.734  0.00  0.00     0.085 C 
ATOM     78  H38 non d ame     -34.618   8.634  27.734  0.00  0.00     0.036 H 
ATOM     79  H39 non d ame     -34.717   8.279  25.882  0.00  0.00     0.036 H 
ATOM     80  N5  non d ame     -32.097   9.582  26.791  0.00  0.00    -0.049 N 
ATOM     81  H40 non d ame     -32.891   7.809  27.666  0.00  0.00     0.075 H 
ATOM     82  H41 non d ame     -32.847   7.864  25.779  0.00  0.00     0.075 H 
ATOM     83  C28 non d ame     -33.033  10.842  26.412  0.00  0.00     0.193 C 
ATOM     84  H42 non d ame     -31.802   9.678  27.752  0.00  0.00     0.280 HD
ATOM     85  H43 non d ame     -31.408   9.463  26.061  0.00  0.00     0.280 HD
ATOM     86  H44 non d ame     -32.974  11.300  25.426  0.00  0.00     0.129 H 
ATOM     87  H37 non d ame     -34.502  10.743  25.392  0.00  0.00     0.046 H 
BRANCH  83  88
ATOM     88  O6  non d ame     -32.825  11.907  27.342  0.00  0.00    -0.369 OA
ATOM     89  H45 non d ame     -32.800  12.743  26.870  0.00  0.00     0.212 HD
ENDBRANCH  83  88
ENDBRANCH  72  75
ENDBRANCH  47  72
ENDBRANCH  45  47
ENDBRANCH   1  43
BRANCH   1  90
ATOM     90  C16 non d ame     -36.439  16.641  24.900  0.00  0.00    -0.035 C 
ATOM     91  H21 non d ame     -35.412  16.875  24.625  0.00  0.00     0.037 H 
ATOM     92  H22 non d ame     -37.029  15.966  24.280  0.00  0.00     0.037 H 
BRANCH  90  93
ATOM     93  C17 non d ame     -37.208  18.000  24.929  0.00  0.00    -0.059 C 
ATOM     94  H23 non d ame     -37.840  18.004  25.816  0.00  0.00     0.038 H 
BRANCH  93  95
ATOM     95  C18 non d ame     -36.239  19.222  25.027  0.00  0.00    -0.073 C 
ATOM     96  H24 non d ame     -36.245  19.767  24.083  0.00  0.00     0.028 H 
ATOM     97  H25 non d ame     -36.569  19.883  25.829  0.00  0.00     0.028 H 
ATOM     98  H26 non d ame     -35.230  18.870  25.238  0.00  0.00     0.028 H 
ENDBRANCH  93  95
BRANCH  93  99
ATOM     99  C19 non d ame     -38.130  18.132  23.714  0.00  0.00    -0.073 C 
ATOM    100  H27 non d ame     -38.154  17.187  23.171  0.00  0.00     0.028 H 
ATOM    101  H28 non d ame     -39.136  18.385  24.047  0.00  0.00     0.028 H 
ATOM    102  H29 non d ame     -37.757  18.919  23.058  0.00  0.00     0.028 H 
ENDBRANCH  93  99
ENDBRANCH  90  93
ENDBRANCH   1  90
TORSDOF 26
ENDMDL
MODEL 18
REMARK VINA RESULT:      -6.6      3.458      7.783
REMARK  26 active torsions:
REMARK  status: ('A' for Active; 'I' for Inactive)
REMARK    1  A    between atoms: C2_2  and  C3_3 
REMARK    2  A    between atoms: C4_6  and  C5_7 
REMARK       I    between atoms: C5_7  and  N2_9 
REMARK    3  A    between atoms: N2_9  and  C6_10 
REMARK    4  A    between atoms: C6_10  and  C7_11 
REMARK    5  A    between atoms: C6_10  and  C8_13 
REMARK       I    between atoms: C7_11  and  N3_14 
REMARK    6  A    between atoms: N3_14  and  C9_15 
REMARK    7  A    between atoms: C9_15  and  C10_16 
REMARK    8  A    between atoms: C9_15  and  C11_18 
REMARK       I    between atoms: C10_16  and  N4_21 
REMARK    9  A    between atoms: C11_18  and  C12_19 
REMARK   10  A    between atoms: C11_18  and  C13_20 
REMARK   11  A    between atoms: N4_21  and  C14_22 
REMARK   12  A    between atoms: C14_22  and  C15_23 
REMARK   13  A    between atoms: C14_22  and  C16_25 
REMARK       I    between atoms: C15_23  and  N6_40 
REMARK   14  A    between atoms: C16_25  and  C17_26 
REMARK   15  A    between atoms: C17_26  and  C18_27 
REMARK   16  A    between atoms: C17_26  and  C19_28 
REMARK   17  A    between atoms: C20_29  and  C21_30 
REMARK   18  A    between atoms: C20_29  and  C24_33 
REMARK   19  A    between atoms: C20_29  and  N6_40 
REMARK   20  A    between atoms: C21_30  and  C22_31 
REMARK   21  A    between atoms: C22_31  and  C23_32 
REMARK   22  A    between atoms: C23_32  and  O8_43 
REMARK   23  A    between atoms: C24_33  and  C25_34 
REMARK   24  A    between atoms: C28_38  and  O6_39 
REMARK   25  A    between atoms: C29_42  and  O8_43 
REMARK   26  A    between atoms: C29_42  and  C35_49 
ROOT
ATOM      1  C14 non d ame     -31.324   7.795  23.486  0.00  0.00     0.089 C 
ATOM      2  H20 non d ame     -30.413   7.593  24.050  0.00  0.00     0.087 H 
ENDROOT
BRANCH   1   3
ATOM      3  N4  non d ame     -32.175   6.620  23.596  0.00  0.00    -0.346 N 
ATOM      4  C10 non d ame     -32.371   5.942  24.929  0.00  0.00     0.241 C 
ATOM      5  O4  non d ame     -31.829   6.359  25.899  0.00  0.00    -0.271 OA
ATOM      6  H19 non d ame     -32.625   6.280  22.758  0.00  0.00     0.163 HD
BRANCH   4   7
ATOM      7  C9  non d ame     -33.261   4.731  25.025  0.00  0.00     0.092 C 
ATOM      8  H11 non d ame     -32.680   3.888  25.401  0.00  0.00     0.088 H 
BRANCH   7   9
ATOM      9  N3  non d ame     -34.331   4.985  25.992  0.00  0.00    -0.346 N 
ATOM     10  C7  non d ame     -34.307   4.339  27.282  0.00  0.00     0.240 C 
ATOM     11  O3  non d ame     -33.433   3.609  27.556  0.00  0.00    -0.271 OA
ATOM     12  H10 non d ame     -35.092   5.610  25.770  0.00  0.00     0.163 HD
BRANCH  10  13
ATOM     13  C6  non d ame     -35.451   4.611  28.307  0.00  0.00     0.086 C 
ATOM     14  H6  non d ame     -35.369   3.996  29.203  0.00  0.00     0.086 H 
BRANCH  13  15
ATOM     15  N2  non d ame     -35.372   5.995  28.743  0.00  0.00    -0.343 N 
ATOM     16  C5  non d ame     -35.007   6.295  30.130  0.00  0.00     0.273 C 
ATOM     17  O2  non d ame     -34.781   5.415  30.886  0.00  0.00    -0.266 OA
ATOM     18  H5  non d ame     -35.571   6.741  28.091  0.00  0.00     0.163 HD
BRANCH  16  19
ATOM     19  C4  non d ame     -34.919   7.753  30.605  0.00  0.00     0.154 A 
ATOM     20  C1  non d ame     -35.258   8.264  31.897  0.00  0.00    -0.017 A 
ATOM     21  C2  non d ame     -35.000   9.651  31.820  0.00  0.00     0.077 A 
ATOM     22  H1  non d ame     -35.636   7.714  32.759  0.00  0.00     0.091 H 
ATOM     23  O1  non d ame     -34.561   9.897  30.620  0.00  0.00    -0.218 OA
ATOM     24  N1  non d ame     -34.506   8.805  29.892  0.00  0.00    -0.123 NA
BRANCH  21  25
ATOM     25  C3  non d ame     -35.198  10.669  32.935  0.00  0.00    -0.029 C 
ATOM     26  H2  non d ame     -34.539  10.426  33.769  0.00  0.00     0.036 H 
ATOM     27  H3  non d ame     -34.961  11.666  32.564  0.00  0.00     0.036 H 
ATOM     28  H4  non d ame     -36.233  10.643  33.272  0.00  0.00     0.036 H 
ENDBRANCH  21  25
ENDBRANCH  16  19
ENDBRANCH  13  15
BRANCH  13  29
ATOM     29  C8  non d ame     -36.786   4.350  27.655  0.00  0.00    -0.049 C 
ATOM     30  H7  non d ame     -37.228   5.295  27.340  0.00  0.00     0.030 H 
ATOM     31  H8  non d ame     -36.645   3.707  26.786  0.00  0.00     0.030 H 
ATOM     32  H9  non d ame     -37.448   3.859  28.368  0.00  0.00     0.030 H 
ENDBRANCH  13  29
ENDBRANCH  10  13
ENDBRANCH   7   9
BRANCH   7  33
ATOM     33  C11 non d ame     -33.885   4.435  23.630  0.00  0.00    -0.033 C 
ATOM     34  H12 non d ame     -33.602   5.251  22.964  0.00  0.00     0.042 H 
BRANCH  33  35
ATOM     35  C12 non d ame     -33.318   3.114  23.021  0.00  0.00    -0.071 C 
ATOM     36  H13 non d ame     -32.351   2.892  23.472  0.00  0.00     0.028 H 
ATOM     37  H14 non d ame     -34.010   2.296  23.223  0.00  0.00     0.028 H 
ATOM     38  H15 non d ame     -33.198   3.233  21.944  0.00  0.00     0.028 H 
ENDBRANCH  33  35
BRANCH  33  39
ATOM     39  C13 non d ame     -35.445   4.398  23.712  0.00  0.00    -0.071 C 
ATOM     40  H16 non d ame     -35.829   3.672  22.994  0.00  0.00     0.028 H 
ATOM     41  H17 non d ame     -35.750   4.110  24.718  0.00  0.00     0.028 H 
ATOM     42  H18 non d ame     -35.844   5.385  23.481  0.00  0.00     0.028 H 
ENDBRANCH  33  39
ENDBRANCH   7  33
ENDBRANCH   4   7
ENDBRANCH   1   3
BRANCH   1  43
ATOM     43  C15 non d ame     -32.100   9.023  24.041  0.00  0.00     0.240 C 
ATOM     44  O5  non d ame     -33.019   9.466  23.432  0.00  0.00    -0.271 OA
ATOM     45  N6  non d ame     -31.704   9.641  25.338  0.00  0.00    -0.355 N 
ATOM     46  H46 non d ame     -30.928   9.269  25.868  0.00  0.00     0.162 HD
BRANCH  45  47
ATOM     47  C20 non d ame     -32.452  10.808  25.854  0.00  0.00     0.013 C 
ATOM     48  H30 non d ame     -33.000  11.249  25.021  0.00  0.00     0.072 H 
BRANCH  47  49
ATOM     49  C21 non d ame     -31.479  11.814  26.425  0.00  0.00    -0.038 C 
ATOM     50  H31 non d ame     -30.822  11.246  27.086  0.00  0.00     0.036 H 
ATOM     51  H32 non d ame     -31.065  12.342  25.566  0.00  0.00     0.036 H 
BRANCH  49  52
ATOM     52  C22 non d ame     -32.165  12.881  27.304  0.00  0.00     0.018 C 
ATOM     53  H33 non d ame     -33.198  12.928  26.960  0.00  0.00     0.048 H 
ATOM     54  H34 non d ame     -31.948  12.598  28.335  0.00  0.00     0.048 H 
BRANCH  52  55
ATOM     55  C23 non d ame     -31.586  14.311  27.121  0.00  0.00     0.259 C 
ATOM     56  O7  non d ame     -31.655  15.107  28.001  0.00  0.00    -0.265 OA
BRANCH  55  57
ATOM     57  O8  non d ame     -30.984  14.666  25.882  0.00  0.00    -0.317 OA
BRANCH  57  58
ATOM     58  C29 non d ame     -31.917  15.080  24.880  0.00  0.00     0.052 C 
ATOM     59  H47 non d ame     -32.712  14.335  24.892  0.00  0.00     0.082 H 
ATOM     60  H48 non d ame     -32.144  16.123  25.100  0.00  0.00     0.082 H 
BRANCH  58  61
ATOM     61  C35 non d ame     -31.202  15.013  23.503  0.00  0.00    -0.034 A 
ATOM     62  C30 non d ame     -31.313  16.074  22.609  0.00  0.00    -0.075 A 
ATOM     63  C31 non d ame     -30.671  16.013  21.372  0.00  0.00    -0.082 A 
ATOM     64  H49 non d ame     -31.902  16.951  22.876  0.00  0.00     0.084 H 
ATOM     65  C32 non d ame     -29.919  14.886  21.031  0.00  0.00    -0.083 A 
ATOM     66  H50 non d ame     -30.758  16.847  20.675  0.00  0.00     0.083 H 
ATOM     67  C33 non d ame     -29.815  13.829  21.925  0.00  0.00    -0.082 A 
ATOM     68  H51 non d ame     -29.414  14.832  20.066  0.00  0.00     0.083 H 
ATOM     69  C34 non d ame     -30.453  13.886  23.162  0.00  0.00    -0.075 A 
ATOM     70  H52 non d ame     -29.229  12.950  21.654  0.00  0.00     0.083 H 
ATOM     71  H53 non d ame     -30.365  13.052  23.859  0.00  0.00     0.084 H 
ENDBRANCH  58  61
ENDBRANCH  57  58
ENDBRANCH  55  57
ENDBRANCH  52  55
ENDBRANCH  49  52
ENDBRANCH  47  49
BRANCH  47  72
ATOM     72  C24 non d ame     -33.421  10.358  26.946  0.00  0.00    -0.039 C 
ATOM     73  H35 non d ame     -33.079   9.367  27.246  0.00  0.00     0.036 H 
ATOM     74  H36 non d ame     -33.437  11.171  27.672  0.00  0.00     0.036 H 
BRANCH  72  75
ATOM     75  C25 non d ame     -34.913  10.196  26.386  0.00  0.00    -0.001 C 
ATOM     76  C26 non d ame     -35.955  11.070  27.309  0.00  0.00    -0.035 C 
ATOM     77  C27 non d ame     -36.979  10.270  27.688  0.00  0.00     0.085 C 
ATOM     78  H38 non d ame     -35.481  11.343  28.252  0.00  0.00     0.036 H 
ATOM     79  H39 non d ame     -36.441  11.834  26.701  0.00  0.00     0.036 H 
ATOM     80  N5  non d ame     -36.565   8.850  27.385  0.00  0.00    -0.049 N 
ATOM     81  H40 non d ame     -37.061  10.393  28.769  0.00  0.00     0.075 H 
ATOM     82  H41 non d ame     -37.816  10.541  27.045  0.00  0.00     0.075 H 
ATOM     83  C28 non d ame     -35.287   8.960  26.405  0.00  0.00     0.193 C 
ATOM     84  H42 non d ame     -36.266   8.445  28.260  0.00  0.00     0.280 HD
ATOM     85  H43 non d ame     -37.329   8.433  26.872  0.00  0.00     0.280 HD
ATOM     86  H44 non d ame     -35.389   8.767  25.338  0.00  0.00     0.129 H 
ATOM     87  H37 non d ame     -34.966  10.338  25.307  0.00  0.00     0.046 H 
BRANCH  83  88
ATOM     88  O6  non d ame     -34.247   8.088  26.852  0.00  0.00    -0.369 OA
ATOM     89  H45 non d ame     -34.133   8.186  27.800  0.00  0.00     0.212 HD
ENDBRANCH  83  88
ENDBRANCH  72  75
ENDBRANCH  47  72
ENDBRANCH  45  47
ENDBRANCH   1  43
BRANCH   1  90
ATOM     90  C16 non d ame     -30.982   8.024  22.022  0.00  0.00    -0.035 C 
ATOM     91  H21 non d ame     -30.838   7.030  21.600  0.00  0.00     0.037 H 
ATOM     92  H22 non d ame     -31.773   8.669  21.639  0.00  0.00     0.037 H 
BRANCH  90  93
ATOM     93  C17 non d ame     -29.641   8.794  21.805  0.00  0.00    -0.059 C 
ATOM     94  H23 non d ame     -29.430   8.797  20.736  0.00  0.00     0.038 H 
BRANCH  93  95
ATOM     95  C18 non d ame     -29.731  10.280  22.278  0.00  0.00    -0.073 C 
ATOM     96  H24 non d ame     -30.468  10.363  23.076  0.00  0.00     0.028 H 
ATOM     97  H25 non d ame     -28.757  10.602  22.649  0.00  0.00     0.028 H 
ATOM     98  H26 non d ame     -30.027  10.911  21.441  0.00  0.00     0.028 H 
ENDBRANCH  93  95
BRANCH  93  99
ATOM     99  C19 non d ame     -28.479   8.073  22.494  0.00  0.00    -0.073 C 
ATOM    100  H27 non d ame     -28.806   7.702  23.466  0.00  0.00     0.028 H 
ATOM    101  H28 non d ame     -28.155   7.234  21.878  0.00  0.00     0.028 H 
ATOM    102  H29 non d ame     -27.650   8.766  22.629  0.00  0.00     0.028 H 
ENDBRANCH  93  99
ENDBRANCH  90  93
ENDBRANCH   1  90
TORSDOF 26
ENDMDL
MODEL 19
REMARK VINA RESULT:      -6.6      2.892      7.660
REMARK  26 active torsions:
REMARK  status: ('A' for Active; 'I' for Inactive)
REMARK    1  A    between atoms: C2_2  and  C3_3 
REMARK    2  A    between atoms: C4_6  and  C5_7 
REMARK       I    between atoms: C5_7  and  N2_9 
REMARK    3  A    between atoms: N2_9  and  C6_10 
REMARK    4  A    between atoms: C6_10  and  C7_11 
REMARK    5  A    between atoms: C6_10  and  C8_13 
REMARK       I    between atoms: C7_11  and  N3_14 
REMARK    6  A    between atoms: N3_14  and  C9_15 
REMARK    7  A    between atoms: C9_15  and  C10_16 
REMARK    8  A    between atoms: C9_15  and  C11_18 
REMARK       I    between atoms: C10_16  and  N4_21 
REMARK    9  A    between atoms: C11_18  and  C12_19 
REMARK   10  A    between atoms: C11_18  and  C13_20 
REMARK   11  A    between atoms: N4_21  and  C14_22 
REMARK   12  A    between atoms: C14_22  and  C15_23 
REMARK   13  A    between atoms: C14_22  and  C16_25 
REMARK       I    between atoms: C15_23  and  N6_40 
REMARK   14  A    between atoms: C16_25  and  C17_26 
REMARK   15  A    between atoms: C17_26  and  C18_27 
REMARK   16  A    between atoms: C17_26  and  C19_28 
REMARK   17  A    between atoms: C20_29  and  C21_30 
REMARK   18  A    between atoms: C20_29  and  C24_33 
REMARK   19  A    between atoms: C20_29  and  N6_40 
REMARK   20  A    between atoms: C21_30  and  C22_31 
REMARK   21  A    between atoms: C22_31  and  C23_32 
REMARK   22  A    between atoms: C23_32  and  O8_43 
REMARK   23  A    between atoms: C24_33  and  C25_34 
REMARK   24  A    between atoms: C28_38  and  O6_39 
REMARK   25  A    between atoms: C29_42  and  O8_43 
REMARK   26  A    between atoms: C29_42  and  C35_49 
ROOT
ATOM      1  C14 non d ame     -32.971   9.173  27.423  0.00  0.00     0.089 C 
ATOM      2  H20 non d ame     -31.970   8.741  27.384  0.00  0.00     0.087 H 
ENDROOT
BRANCH   1   3
ATOM      3  N4  non d ame     -32.829  10.572  27.799  0.00  0.00    -0.346 N 
ATOM      4  C10 non d ame     -31.743  11.419  27.185  0.00  0.00     0.241 C 
ATOM      5  O4  non d ame     -30.993  10.953  26.393  0.00  0.00    -0.271 OA
ATOM      6  H19 non d ame     -33.477  10.950  28.476  0.00  0.00     0.163 HD
BRANCH   4   7
ATOM      7  C9  non d ame     -31.616  12.867  27.580  0.00  0.00     0.092 C 
ATOM      8  H11 non d ame     -30.577  13.179  27.470  0.00  0.00     0.088 H 
BRANCH   7   9
ATOM      9  N3  non d ame     -32.416  13.694  26.674  0.00  0.00    -0.346 N 
ATOM     10  C7  non d ame     -31.775  14.416  25.601  0.00  0.00     0.240 C 
ATOM     11  O3  non d ame     -30.616  14.342  25.455  0.00  0.00    -0.271 OA
ATOM     12  H10 non d ame     -33.416  13.769  26.788  0.00  0.00     0.163 HD
BRANCH  10  13
ATOM     13  C6  non d ame     -32.631  15.298  24.641  0.00  0.00     0.086 C 
ATOM     14  H6  non d ame     -33.532  14.792  24.295  0.00  0.00     0.086 H 
BRANCH  13  15
ATOM     15  N2  non d ame     -33.070  16.484  25.357  0.00  0.00    -0.343 N 
ATOM     16  C5  non d ame     -34.324  16.448  26.114  0.00  0.00     0.273 C 
ATOM     17  O2  non d ame     -34.972  15.460  26.139  0.00  0.00    -0.266 OA
ATOM     18  H5  non d ame     -32.511  17.325  25.327  0.00  0.00     0.163 HD
BRANCH  16  19
ATOM     19  C4  non d ame     -34.798  17.694  26.876  0.00  0.00     0.154 A 
ATOM     20  C1  non d ame     -35.622  18.752  26.377  0.00  0.00    -0.017 A 
ATOM     21  C2  non d ame     -35.765  19.645  27.462  0.00  0.00     0.077 A 
ATOM     22  H1  non d ame     -36.050  18.857  25.380  0.00  0.00     0.091 H 
ATOM     23  O1  non d ame     -35.100  19.147  28.463  0.00  0.00    -0.218 OA
ATOM     24  N1  non d ame     -34.527  18.010  28.145  0.00  0.00    -0.123 NA
BRANCH  21  25
ATOM     25  C3  non d ame     -36.553  20.948  27.459  0.00  0.00    -0.029 C 
ATOM     26  H2  non d ame     -36.059  21.671  26.810  0.00  0.00     0.036 H 
ATOM     27  H3  non d ame     -37.563  20.761  27.092  0.00  0.00     0.036 H 
ATOM     28  H4  non d ame     -36.603  21.345  28.472  0.00  0.00     0.036 H 
ENDBRANCH  21  25
ENDBRANCH  16  19
ENDBRANCH  13  15
BRANCH  13  29
ATOM     29  C8  non d ame     -31.803  15.693  23.444  0.00  0.00    -0.049 C 
ATOM     30  H7  non d ame     -30.991  16.346  23.764  0.00  0.00     0.030 H 
ATOM     31  H8  non d ame     -31.388  14.799  22.979  0.00  0.00     0.030 H 
ATOM     32  H9  non d ame     -32.431  16.219  22.725  0.00  0.00     0.030 H 
ENDBRANCH  13  29
ENDBRANCH  10  13
ENDBRANCH   7   9
BRANCH   7  33
ATOM     33  C11 non d ame     -32.130  13.053  29.038  0.00  0.00    -0.033 C 
ATOM     34  H12 non d ame     -32.932  12.331  29.198  0.00  0.00     0.042 H 
BRANCH  33  35
ATOM     35  C12 non d ame     -31.009  12.748  30.080  0.00  0.00    -0.071 C 
ATOM     36  H13 non d ame     -30.523  11.807  29.826  0.00  0.00     0.028 H 
ATOM     37  H14 non d ame     -30.274  13.552  30.068  0.00  0.00     0.028 H 
ATOM     38  H15 non d ame     -31.449  12.673  31.075  0.00  0.00     0.028 H 
ENDBRANCH  33  35
BRANCH  33  39
ATOM     39  C13 non d ame     -32.722  14.484  29.244  0.00  0.00    -0.071 C 
ATOM     40  H16 non d ame     -33.772  14.406  29.526  0.00  0.00     0.028 H 
ATOM     41  H17 non d ame     -32.171  14.996  30.034  0.00  0.00     0.028 H 
ATOM     42  H18 non d ame     -32.635  15.050  28.317  0.00  0.00     0.028 H 
ENDBRANCH  33  39
ENDBRANCH   7  33
ENDBRANCH   4   7
ENDBRANCH   1   3
BRANCH   1  43
ATOM     43  C15 non d ame     -33.697   9.099  26.050  0.00  0.00     0.240 C 
ATOM     44  O5  non d ame     -34.661   9.766  25.855  0.00  0.00    -0.271 OA
ATOM     45  N6  non d ame     -33.186   8.203  24.975  0.00  0.00    -0.355 N 
ATOM     46  H46 non d ame     -32.364   7.636  25.127  0.00  0.00     0.162 HD
BRANCH  45  47
ATOM     47  C20 non d ame     -33.886   8.145  23.673  0.00  0.00     0.013 C 
ATOM     48  H30 non d ame     -34.796   8.740  23.756  0.00  0.00     0.072 H 
BRANCH  47  49
ATOM     49  C21 non d ame     -34.235   6.708  23.357  0.00  0.00    -0.038 C 
ATOM     50  H31 non d ame     -35.294   6.603  23.596  0.00  0.00     0.036 H 
ATOM     51  H32 non d ame     -33.886   6.539  22.338  0.00  0.00     0.036 H 
BRANCH  49  52
ATOM     52  C22 non d ame     -33.483   5.698  24.250  0.00  0.00     0.018 C 
ATOM     53  H33 non d ame     -33.149   4.905  23.582  0.00  0.00     0.048 H 
ATOM     54  H34 non d ame     -32.751   6.285  24.807  0.00  0.00     0.048 H 
BRANCH  52  55
ATOM     55  C23 non d ame     -34.383   5.013  25.315  0.00  0.00     0.259 C 
ATOM     56  O7  non d ame     -34.944   3.996  25.066  0.00  0.00    -0.265 OA
BRANCH  55  57
ATOM     57  O8  non d ame     -34.541   5.624  26.590  0.00  0.00    -0.317 OA
BRANCH  57  58
ATOM     58  C29 non d ame     -34.252   4.755  27.690  0.00  0.00     0.052 C 
ATOM     59  H47 non d ame     -34.563   3.761  27.370  0.00  0.00     0.082 H 
ATOM     60  H48 non d ame     -33.211   4.944  27.950  0.00  0.00     0.082 H 
BRANCH  58  61
ATOM     61  C35 non d ame     -35.143   5.186  28.887  0.00  0.00    -0.034 A 
ATOM     62  C30 non d ame     -34.594   5.286  30.162  0.00  0.00    -0.075 A 
ATOM     63  C31 non d ame     -35.394   5.673  31.237  0.00  0.00    -0.082 A 
ATOM     64  H49 non d ame     -33.540   5.061  30.319  0.00  0.00     0.084 H 
ATOM     65  C32 non d ame     -36.747   5.957  31.034  0.00  0.00    -0.083 A 
ATOM     66  H50 non d ame     -34.961   5.751  32.235  0.00  0.00     0.083 H 
ATOM     67  C33 non d ame     -37.290   5.853  29.761  0.00  0.00    -0.082 A 
ATOM     68  H51 non d ame     -37.378   6.261  31.869  0.00  0.00     0.083 H 
ATOM     69  C34 non d ame     -36.494   5.469  28.683  0.00  0.00    -0.075 A 
ATOM     70  H52 non d ame     -38.346   6.073  29.605  0.00  0.00     0.083 H 
ATOM     71  H53 non d ame     -36.928   5.390  27.686  0.00  0.00     0.084 H 
ENDBRANCH  58  61
ENDBRANCH  57  58
ENDBRANCH  55  57
ENDBRANCH  52  55
ENDBRANCH  49  52
ENDBRANCH  47  49
BRANCH  47  72
ATOM     72  C24 non d ame     -32.985   8.706  22.575  0.00  0.00    -0.039 C 
ATOM     73  H35 non d ame     -33.115   8.036  21.724  0.00  0.00     0.036 H 
ATOM     74  H36 non d ame     -33.255   9.757  22.487  0.00  0.00     0.036 H 
BRANCH  72  75
ATOM     75  C25 non d ame     -31.439   8.648  22.991  0.00  0.00    -0.001 C 
ATOM     76  C26 non d ame     -30.824  10.171  23.067  0.00  0.00    -0.035 C 
ATOM     77  C27 non d ame     -29.688  10.221  22.330  0.00  0.00     0.085 C 
ATOM     78  H38 non d ame     -31.489  10.869  22.560  0.00  0.00     0.036 H 
ATOM     79  H39 non d ame     -30.479  10.384  24.080  0.00  0.00     0.036 H 
ATOM     80  N5  non d ame     -29.650   8.965  21.493  0.00  0.00    -0.049 N 
ATOM     81  H40 non d ame     -29.806  11.083  21.672  0.00  0.00     0.075 H 
ATOM     82  H41 non d ame     -28.871  10.193  23.050  0.00  0.00     0.075 H 
ATOM     83  C28 non d ame     -30.749   7.971  22.134  0.00  0.00     0.193 C 
ATOM     84  H42 non d ame     -29.955   9.228  20.567  0.00  0.00     0.280 HD
ATOM     85  H43 non d ame     -28.734   8.561  21.627  0.00  0.00     0.280 HD
ATOM     86  H44 non d ame     -30.441   7.128  22.751  0.00  0.00     0.129 H 
ATOM     87  H37 non d ame     -31.265   7.999  23.848  0.00  0.00     0.046 H 
BRANCH  83  88
ATOM     88  O6  non d ame     -31.567   7.412  21.104  0.00  0.00    -0.369 OA
ATOM     89  H45 non d ame     -32.241   8.046  20.851  0.00  0.00     0.212 HD
ENDBRANCH  83  88
ENDBRANCH  72  75
ENDBRANCH  47  72
ENDBRANCH  45  47
ENDBRANCH   1  43
BRANCH   1  90
ATOM     90  C16 non d ame     -33.799   8.458  28.479  0.00  0.00    -0.035 C 
ATOM     91  H21 non d ame     -34.521   7.860  27.924  0.00  0.00     0.037 H 
ATOM     92  H22 non d ame     -33.075   7.970  29.132  0.00  0.00     0.037 H 
BRANCH  90  93
ATOM     93  C17 non d ame     -34.629   9.422  29.384  0.00  0.00    -0.059 C 
ATOM     94  H23 non d ame     -34.294  10.439  29.180  0.00  0.00     0.038 H 
BRANCH  93  95
ATOM     95  C18 non d ame     -36.158   9.353  29.072  0.00  0.00    -0.073 C 
ATOM     96  H24 non d ame     -36.381   8.423  28.548  0.00  0.00     0.028 H 
ATOM     97  H25 non d ame     -36.722   9.386  30.005  0.00  0.00     0.028 H 
ATOM     98  H26 non d ame     -36.441  10.199  28.447  0.00  0.00     0.028 H 
ENDBRANCH  93  95
BRANCH  93  99
ATOM     99  C19 non d ame     -34.364   9.145  30.866  0.00  0.00    -0.073 C 
ATOM    100  H27 non d ame     -33.406   8.635  30.975  0.00  0.00     0.028 H 
ATOM    101  H28 non d ame     -34.337  10.087  31.414  0.00  0.00     0.028 H 
ATOM    102  H29 non d ame     -35.158   8.516  31.267  0.00  0.00     0.028 H 
ENDBRANCH  93  99
ENDBRANCH  90  93
ENDBRANCH   1  90
TORSDOF 26
ENDMDL
MODEL 20
REMARK VINA RESULT:      -6.6      1.899      8.007
REMARK  26 active torsions:
REMARK  status: ('A' for Active; 'I' for Inactive)
REMARK    1  A    between atoms: C2_2  and  C3_3 
REMARK    2  A    between atoms: C4_6  and  C5_7 
REMARK       I    between atoms: C5_7  and  N2_9 
REMARK    3  A    between atoms: N2_9  and  C6_10 
REMARK    4  A    between atoms: C6_10  and  C7_11 
REMARK    5  A    between atoms: C6_10  and  C8_13 
REMARK       I    between atoms: C7_11  and  N3_14 
REMARK    6  A    between atoms: N3_14  and  C9_15 
REMARK    7  A    between atoms: C9_15  and  C10_16 
REMARK    8  A    between atoms: C9_15  and  C11_18 
REMARK       I    between atoms: C10_16  and  N4_21 
REMARK    9  A    between atoms: C11_18  and  C12_19 
REMARK   10  A    between atoms: C11_18  and  C13_20 
REMARK   11  A    between atoms: N4_21  and  C14_22 
REMARK   12  A    between atoms: C14_22  and  C15_23 
REMARK   13  A    between atoms: C14_22  and  C16_25 
REMARK       I    between atoms: C15_23  and  N6_40 
REMARK   14  A    between atoms: C16_25  and  C17_26 
REMARK   15  A    between atoms: C17_26  and  C18_27 
REMARK   16  A    between atoms: C17_26  and  C19_28 
REMARK   17  A    between atoms: C20_29  and  C21_30 
REMARK   18  A    between atoms: C20_29  and  C24_33 
REMARK   19  A    between atoms: C20_29  and  N6_40 
REMARK   20  A    between atoms: C21_30  and  C22_31 
REMARK   21  A    between atoms: C22_31  and  C23_32 
REMARK   22  A    between atoms: C23_32  and  O8_43 
REMARK   23  A    between atoms: C24_33  and  C25_34 
REMARK   24  A    between atoms: C28_38  and  O6_39 
REMARK   25  A    between atoms: C29_42  and  O8_43 
REMARK   26  A    between atoms: C29_42  and  C35_49 
ROOT
ATOM      1  C14 non d ame     -36.473  13.741  25.997  0.00  0.00     0.089 C 
ATOM      2  H20 non d ame     -37.194  13.673  26.812  0.00  0.00     0.087 H 
ENDROOT
BRANCH   1   3
ATOM      3  N4  non d ame     -36.147  15.148  25.817  0.00  0.00    -0.346 N 
ATOM      4  C10 non d ame     -36.909  16.209  26.570  0.00  0.00     0.241 C 
ATOM      5  O4  non d ame     -37.784  15.907  27.312  0.00  0.00    -0.271 OA
ATOM      6  H19 non d ame     -35.400  15.384  25.179  0.00  0.00     0.163 HD
BRANCH   4   7
ATOM      7  C9  non d ame     -36.553  17.660  26.376  0.00  0.00     0.092 C 
ATOM      8  H11 non d ame     -36.836  18.221  27.267  0.00  0.00     0.088 H 
BRANCH   7   9
ATOM      9  N3  non d ame     -35.102  17.791  26.222  0.00  0.00    -0.346 N 
ATOM     10  C7  non d ame     -34.258  17.870  27.389  0.00  0.00     0.240 C 
ATOM     11  O3  non d ame     -34.731  17.832  28.460  0.00  0.00    -0.271 OA
ATOM     12  H10 non d ame     -34.680  17.828  25.306  0.00  0.00     0.163 HD
BRANCH  10  13
ATOM     13  C6  non d ame     -32.713  18.013  27.220  0.00  0.00     0.086 C 
ATOM     14  H6  non d ame     -32.154  17.475  27.984  0.00  0.00     0.086 H 
BRANCH  13  15
ATOM     15  N2  non d ame     -32.325  17.442  25.941  0.00  0.00    -0.343 N 
ATOM     16  C5  non d ame     -31.853  16.056  25.884  0.00  0.00     0.273 C 
ATOM     17  O2  non d ame     -31.786  15.412  26.872  0.00  0.00    -0.266 OA
ATOM     18  H5  non d ame     -32.381  18.001  25.102  0.00  0.00     0.163 HD
BRANCH  16  19
ATOM     19  C4  non d ame     -31.441  15.439  24.538  0.00  0.00     0.154 A 
ATOM     20  C1  non d ame     -31.436  16.079  23.258  0.00  0.00    -0.017 A 
ATOM     21  C2  non d ame     -30.979  15.090  22.359  0.00  0.00     0.077 A 
ATOM     22  H1  non d ame     -31.722  17.102  23.018  0.00  0.00     0.091 H 
ATOM     23  O1  non d ame     -30.747  14.013  23.052  0.00  0.00    -0.218 OA
ATOM     24  N1  non d ame     -31.011  14.192  24.326  0.00  0.00    -0.123 NA
BRANCH  21  25
ATOM     25  C3  non d ame     -30.789  15.255  20.857  0.00  0.00    -0.029 C 
ATOM     26  H2  non d ame     -30.999  16.287  20.576  0.00  0.00     0.036 H 
ATOM     27  H3  non d ame     -29.761  15.009  20.591  0.00  0.00     0.036 H 
ATOM     28  H4  non d ame     -31.471  14.589  20.329  0.00  0.00     0.036 H 
ENDBRANCH  21  25
ENDBRANCH  16  19
ENDBRANCH  13  15
BRANCH  13  29
ATOM     29  C8  non d ame     -32.332  19.471  27.271  0.00  0.00    -0.049 C 
ATOM     30  H7  non d ame     -31.333  19.571  27.694  0.00  0.00     0.030 H 
ATOM     31  H8  non d ame     -32.342  19.884  26.262  0.00  0.00     0.030 H 
ATOM     32  H9  non d ame     -33.046  20.012  27.892  0.00  0.00     0.030 H 
ENDBRANCH  13  29
ENDBRANCH  10  13
ENDBRANCH   7   9
BRANCH   7  33
ATOM     33  C11 non d ame     -37.259  18.200  25.098  0.00  0.00    -0.033 C 
ATOM     34  H12 non d ame     -37.115  17.463  24.307  0.00  0.00     0.042 H 
BRANCH  33  35
ATOM     35  C12 non d ame     -38.796  18.358  25.319  0.00  0.00    -0.071 C 
ATOM     36  H13 non d ame     -39.016  18.306  26.385  0.00  0.00     0.028 H 
ATOM     37  H14 non d ame     -39.122  19.320  24.926  0.00  0.00     0.028 H 
ATOM     38  H15 non d ame     -39.322  17.556  24.801  0.00  0.00     0.028 H 
ENDBRANCH  33  35
BRANCH  33  39
ATOM     39  C13 non d ame     -36.614  19.543  24.628  0.00  0.00    -0.071 C 
ATOM     40  H16 non d ame     -36.907  19.747  23.598  0.00  0.00     0.028 H 
ATOM     41  H17 non d ame     -36.955  20.355  25.271  0.00  0.00     0.028 H 
ATOM     42  H18 non d ame     -35.529  19.466  24.689  0.00  0.00     0.028 H 
ENDBRANCH  33  39
ENDBRANCH   7  33
ENDBRANCH   4   7
ENDBRANCH   1   3
BRANCH   1  43
ATOM     43  C15 non d ame     -35.162  12.963  26.304  0.00  0.00     0.240 C 
ATOM     44  O5  non d ame     -34.137  13.318  25.819  0.00  0.00    -0.271 OA
ATOM     45  N6  non d ame     -35.183  11.782  27.212  0.00  0.00    -0.355 N 
ATOM     46  H46 non d ame     -36.047  11.474  27.635  0.00  0.00     0.162 HD
BRANCH  45  47
ATOM     47  C20 non d ame     -33.927  11.053  27.497  0.00  0.00     0.013 C 
ATOM     48  H30 non d ame     -33.095  11.723  27.279  0.00  0.00     0.072 H 
BRANCH  47  49
ATOM     49  C21 non d ame     -33.849   9.828  26.614  0.00  0.00    -0.038 C 
ATOM     50  H31 non d ame     -34.245   9.007  27.214  0.00  0.00     0.036 H 
ATOM     51  H32 non d ame     -34.338  10.106  25.681  0.00  0.00     0.036 H 
BRANCH  49  52
ATOM     52  C22 non d ame     -32.399   9.442  26.251  0.00  0.00     0.018 C 
ATOM     53  H33 non d ame     -31.889   9.281  27.199  0.00  0.00     0.048 H 
ATOM     54  H34 non d ame     -32.483   8.625  25.532  0.00  0.00     0.048 H 
BRANCH  52  55
ATOM     55  C23 non d ame     -31.613  10.570  25.527  0.00  0.00     0.259 C 
ATOM     56  O7  non d ame     -30.779  11.190  26.104  0.00  0.00    -0.265 OA
BRANCH  55  57
ATOM     57  O8  non d ame     -31.911  10.866  24.168  0.00  0.00    -0.317 OA
BRANCH  57  58
ATOM     58  C29 non d ame     -30.928  10.394  23.241  0.00  0.00     0.052 C 
ATOM     59  H47 non d ame     -30.999  11.052  22.376  0.00  0.00     0.082 H 
ATOM     60  H48 non d ame     -29.997  10.331  23.805  0.00  0.00     0.082 H 
BRANCH  58  61
ATOM     61  C35 non d ame     -31.333   8.961  22.802  0.00  0.00    -0.034 A 
ATOM     62  C30 non d ame     -32.639   8.699  22.399  0.00  0.00    -0.075 A 
ATOM     63  C31 non d ame     -33.003   7.412  22.005  0.00  0.00    -0.082 A 
ATOM     64  H49 non d ame     -33.377   9.501  22.393  0.00  0.00     0.084 H 
ATOM     65  C32 non d ame     -32.056   6.384  22.016  0.00  0.00    -0.083 A 
ATOM     66  H50 non d ame     -34.027   7.210  21.688  0.00  0.00     0.083 H 
ATOM     67  C33 non d ame     -30.755   6.650  22.422  0.00  0.00    -0.082 A 
ATOM     68  H51 non d ame     -32.332   5.376  21.709  0.00  0.00     0.083 H 
ATOM     69  C34 non d ame     -30.386   7.935  22.815  0.00  0.00    -0.075 A 
ATOM     70  H52 non d ame     -30.018   5.846  22.432  0.00  0.00     0.083 H 
ATOM     71  H53 non d ame     -29.362   8.136  23.131  0.00  0.00     0.084 H 
ENDBRANCH  58  61
ENDBRANCH  57  58
ENDBRANCH  55  57
ENDBRANCH  52  55
ENDBRANCH  49  52
ENDBRANCH  47  49
BRANCH  47  72
ATOM     72  C24 non d ame     -33.897  10.628  28.963  0.00  0.00    -0.039 C 
ATOM     73  H35 non d ame     -34.943  10.550  29.264  0.00  0.00     0.036 H 
ATOM     74  H36 non d ame     -33.253   9.750  28.997  0.00  0.00     0.036 H 
BRANCH  72  75
ATOM     75  C25 non d ame     -33.221  11.746  29.891  0.00  0.00    -0.001 C 
ATOM     76  C26 non d ame     -31.928  12.405  29.118  0.00  0.00    -0.035 C 
ATOM     77  C27 non d ame     -30.857  12.363  29.947  0.00  0.00     0.085 C 
ATOM     78  H38 non d ame     -31.628  11.773  28.283  0.00  0.00     0.036 H 
ATOM     79  H39 non d ame     -32.088  13.472  28.965  0.00  0.00     0.036 H 
ATOM     80  N5  non d ame     -31.216  11.441  31.087  0.00  0.00    -0.049 N 
ATOM     81  H40 non d ame     -30.054  11.910  29.363  0.00  0.00     0.075 H 
ATOM     82  H41 non d ame     -30.746  13.377  30.332  0.00  0.00     0.075 H 
ATOM     83  C28 non d ame     -32.817  11.243  31.010  0.00  0.00     0.193 C 
ATOM     84  H42 non d ame     -30.772  10.556  30.891  0.00  0.00     0.280 HD
ATOM     85  H43 non d ame     -30.994  11.939  31.938  0.00  0.00     0.280 HD
ATOM     86  H44 non d ame     -33.473  11.761  31.708  0.00  0.00     0.129 H 
ATOM     87  H37 non d ame     -33.954  12.435  30.308  0.00  0.00     0.046 H 
BRANCH  83  88
ATOM     88  O6  non d ame     -33.148   9.858  31.130  0.00  0.00    -0.369 OA
ATOM     89  H45 non d ame     -33.499   9.540  30.295  0.00  0.00     0.212 HD
ENDBRANCH  83  88
ENDBRANCH  72  75
ENDBRANCH  47  72
ENDBRANCH  45  47
ENDBRANCH   1  43
BRANCH   1  90
ATOM     90  C16 non d ame     -37.095  13.209  24.715  0.00  0.00    -0.035 C 
ATOM     91  H21 non d ame     -36.830  13.931  23.944  0.00  0.00     0.037 H 
ATOM     92  H22 non d ame     -36.753  12.177  24.636  0.00  0.00     0.037 H 
BRANCH  90  93
ATOM     93  C17 non d ame     -38.656  13.156  24.750  0.00  0.00    -0.059 C 
ATOM     94  H23 non d ame     -38.974  12.342  24.100  0.00  0.00     0.038 H 
BRANCH  93  95
ATOM     95  C18 non d ame     -39.203  12.864  26.184  0.00  0.00    -0.073 C 
ATOM     96  H24 non d ame     -39.508  13.799  26.654  0.00  0.00     0.028 H 
ATOM     97  H25 non d ame     -40.062  12.196  26.116  0.00  0.00     0.028 H 
ATOM     98  H26 non d ame     -38.424  12.393  26.782  0.00  0.00     0.028 H 
ENDBRANCH  93  95
BRANCH  93  99
ATOM     99  C19 non d ame     -39.259  14.447  24.190  0.00  0.00    -0.073 C 
ATOM    100  H27 non d ame     -38.805  14.671  23.224  0.00  0.00     0.028 H 
ATOM    101  H28 non d ame     -40.334  14.322  24.065  0.00  0.00     0.028 H 
ATOM    102  H29 non d ame     -39.067  15.268  24.881  0.00  0.00     0.028 H 
ENDBRANCH  93  99
ENDBRANCH  90  93
ENDBRANCH   1  90
TORSDOF 26
ENDMDL
