MODEL 1
REMARK VINA RESULT:      -7.3      0.000      0.000
REMARK  26 active torsions:
REMARK  status: ('A' for Active; 'I' for Inactive)
REMARK    1  A    between atoms: C2_2  and  C3_3 
REMARK    2  A    between atoms: C4_6  and  C5_7 
REMARK       I    between atoms: C5_7  and  N2_9 
REMARK    3  A    between atoms: N2_9  and  C6_10 
REMARK    4  A    between atoms: C6_10  and  C7_11 
REMARK    5  A    between atoms: C6_10  and  C8_13 
REMARK       I    between atoms: C7_11  and  N3_14 
REMARK    6  A    between atoms: N3_14  and  C9_15 
REMARK    7  A    between atoms: C9_15  and  C10_16 
REMARK    8  A    between atoms: C9_15  and  C11_18 
REMARK       I    between atoms: C10_16  and  N4_21 
REMARK    9  A    between atoms: C11_18  and  C12_19 
REMARK   10  A    between atoms: C11_18  and  C13_20 
REMARK   11  A    between atoms: N4_21  and  C14_22 
REMARK   12  A    between atoms: C14_22  and  C15_23 
REMARK   13  A    between atoms: C14_22  and  C16_25 
REMARK       I    between atoms: C15_23  and  N6_40 
REMARK   14  A    between atoms: C16_25  and  C17_26 
REMARK   15  A    between atoms: C17_26  and  C18_27 
REMARK   16  A    between atoms: C17_26  and  C19_28 
REMARK   17  A    between atoms: C20_29  and  C21_30 
REMARK   18  A    between atoms: C20_29  and  C24_33 
REMARK   19  A    between atoms: C20_29  and  N6_40 
REMARK   20  A    between atoms: C21_30  and  C22_31 
REMARK   21  A    between atoms: C22_31  and  C23_32 
REMARK   22  A    between atoms: C23_32  and  O8_43 
REMARK   23  A    between atoms: C24_33  and  C25_34 
REMARK   24  A    between atoms: C28_38  and  O6_39 
REMARK   25  A    between atoms: C29_42  and  O8_43 
REMARK   26  A    between atoms: C29_42  and  C35_49 
ROOT
ATOM      1  C14 non d ame     -30.792  14.488  23.573  0.00  0.00     0.089 C 
ATOM      2  H20 non d ame     -29.704  14.544  23.516  0.00  0.00     0.087 H 
ENDROOT
BRANCH   1   3
ATOM      3  N4  non d ame     -31.142  13.111  23.888  0.00  0.00    -0.346 N 
ATOM      4  C10 non d ame     -30.464  11.969  23.173  0.00  0.00     0.241 C 
ATOM      5  O4  non d ame     -29.642  12.183  22.345  0.00  0.00    -0.271 OA
ATOM      6  H19 non d ame     -31.846  12.950  24.595  0.00  0.00     0.163 HD
BRANCH   4   7
ATOM      7  C9  non d ame     -30.835  10.550  23.517  0.00  0.00     0.092 C 
ATOM      8  H11 non d ame     -30.386  10.284  24.475  0.00  0.00     0.088 H 
BRANCH   7   9
ATOM      9  N3  non d ame     -32.288  10.449  23.676  0.00  0.00    -0.346 N 
ATOM     10  C7  non d ame     -32.844   9.905  24.890  0.00  0.00     0.240 C 
ATOM     11  O3  non d ame     -32.136   9.541  25.749  0.00  0.00    -0.271 OA
ATOM     12  H10 non d ame     -32.911  10.757  22.943  0.00  0.00     0.163 HD
BRANCH  10  13
ATOM     13  C6  non d ame     -34.392   9.796  25.052  0.00  0.00     0.086 C 
ATOM     14  H6  non d ame     -34.686   9.337  25.995  0.00  0.00     0.086 H 
BRANCH  13  15
ATOM     15  N2  non d ame     -34.961  11.134  25.047  0.00  0.00    -0.343 N 
ATOM     16  C5  non d ame     -36.062  11.454  25.959  0.00  0.00     0.273 C 
ATOM     17  O2  non d ame     -36.484  10.627  26.690  0.00  0.00    -0.266 OA
ATOM     18  H5  non d ame     -34.596  11.833  24.415  0.00  0.00     0.163 HD
BRANCH  16  19
ATOM     19  C4  non d ame     -36.671  12.864  25.965  0.00  0.00     0.154 A 
ATOM     20  C1  non d ame     -36.712  13.793  24.877  0.00  0.00    -0.017 A 
ATOM     21  C2  non d ame     -37.373  14.930  25.394  0.00  0.00     0.077 A 
ATOM     22  H1  non d ame     -36.321  13.664  23.868  0.00  0.00     0.091 H 
ATOM     23  O1  non d ame     -37.674  14.672  26.634  0.00  0.00    -0.218 OA
ATOM     24  N1  non d ame     -37.275  13.473  26.989  0.00  0.00    -0.123 NA
BRANCH  21  25
ATOM     25  C3  non d ame     -37.677  16.217  24.640  0.00  0.00    -0.029 C 
ATOM     26  H2  non d ame     -38.542  16.065  23.995  0.00  0.00     0.036 H 
ATOM     27  H3  non d ame     -37.891  17.014  25.352  0.00  0.00     0.036 H 
ATOM     28  H4  non d ame     -36.816  16.495  24.033  0.00  0.00     0.036 H 
ENDBRANCH  21  25
ENDBRANCH  16  19
ENDBRANCH  13  15
BRANCH  13  29
ATOM     29  C8  non d ame     -34.964   8.988  23.915  0.00  0.00    -0.049 C 
ATOM     30  H7  non d ame     -34.262   8.202  23.639  0.00  0.00     0.030 H 
ATOM     31  H8  non d ame     -35.907   8.539  24.228  0.00  0.00     0.030 H 
ATOM     32  H9  non d ame     -35.138   9.638  23.058  0.00  0.00     0.030 H 
ENDBRANCH  13  29
ENDBRANCH  10  13
ENDBRANCH   7   9
BRANCH   7  33
ATOM     33  C11 non d ame     -30.373   9.602  22.372  0.00  0.00    -0.033 C 
ATOM     34  H12 non d ame     -30.157  10.221  21.500  0.00  0.00     0.042 H 
BRANCH  33  35
ATOM     35  C12 non d ame     -29.059   8.850  22.751  0.00  0.00    -0.071 C 
ATOM     36  H13 non d ame     -28.393   8.826  21.888  0.00  0.00     0.028 H 
ATOM     37  H14 non d ame     -28.569   9.369  23.574  0.00  0.00     0.028 H 
ATOM     38  H15 non d ame     -29.297   7.831  23.053  0.00  0.00     0.028 H 
ENDBRANCH  33  35
BRANCH  33  39
ATOM     39  C13 non d ame     -31.507   8.600  21.984  0.00  0.00    -0.071 C 
ATOM     40  H16 non d ame     -31.586   8.542  20.898  0.00  0.00     0.028 H 
ATOM     41  H17 non d ame     -31.274   7.613  22.385  0.00  0.00     0.028 H 
ATOM     42  H18 non d ame     -32.454   8.944  22.399  0.00  0.00     0.028 H 
ENDBRANCH  33  39
ENDBRANCH   7  33
ENDBRANCH   4   7
ENDBRANCH   1   3
BRANCH   1  43
ATOM     43  C15 non d ame     -31.372  15.413  24.680  0.00  0.00     0.240 C 
ATOM     44  O5  non d ame     -30.689  16.259  25.160  0.00  0.00    -0.271 OA
ATOM     45  N6  non d ame     -32.781  15.250  25.136  0.00  0.00    -0.355 N 
ATOM     46  H46 non d ame     -33.372  14.537  24.732  0.00  0.00     0.162 HD
BRANCH  45  47
ATOM     47  C20 non d ame     -33.319  16.139  26.189  0.00  0.00     0.013 C 
ATOM     48  H30 non d ame     -32.475  16.616  26.688  0.00  0.00     0.072 H 
BRANCH  47  49
ATOM     49  C21 non d ame     -34.108  15.316  27.183  0.00  0.00    -0.038 C 
ATOM     50  H31 non d ame     -35.155  15.578  27.017  0.00  0.00     0.036 H 
ATOM     51  H32 non d ame     -33.775  14.288  27.044  0.00  0.00     0.036 H 
BRANCH  49  52
ATOM     52  C22 non d ame     -33.794  15.683  28.649  0.00  0.00     0.018 C 
ATOM     53  H33 non d ame     -34.130  16.712  28.774  0.00  0.00     0.048 H 
ATOM     54  H34 non d ame     -34.236  14.889  29.252  0.00  0.00     0.048 H 
BRANCH  52  55
ATOM     55  C23 non d ame     -32.278  15.684  28.984  0.00  0.00     0.259 C 
ATOM     56  O7  non d ame     -31.852  16.370  29.856  0.00  0.00    -0.265 OA
BRANCH  55  57
ATOM     57  O8  non d ame     -31.396  14.863  28.226  0.00  0.00    -0.317 OA
BRANCH  57  58
ATOM     58  C29 non d ame     -30.698  13.886  29.004  0.00  0.00     0.052 C 
ATOM     59  H47 non d ame     -29.919  13.493  28.352  0.00  0.00     0.082 H 
ATOM     60  H48 non d ame     -30.430  14.386  29.934  0.00  0.00     0.082 H 
BRANCH  58  61
ATOM     61  C35 non d ame     -31.689  12.738  29.332  0.00  0.00    -0.034 A 
ATOM     62  C30 non d ame     -32.377  12.096  28.306  0.00  0.00    -0.075 A 
ATOM     63  C31 non d ame     -33.267  11.065  28.602  0.00  0.00    -0.082 A 
ATOM     64  H49 non d ame     -32.219  12.402  27.272  0.00  0.00     0.084 H 
ATOM     65  C32 non d ame     -33.471  10.677  29.929  0.00  0.00    -0.083 A 
ATOM     66  H50 non d ame     -33.804  10.563  27.795  0.00  0.00     0.083 H 
ATOM     67  C33 non d ame     -32.785  11.322  30.949  0.00  0.00    -0.082 A 
ATOM     68  H51 non d ame     -34.165   9.871  30.167  0.00  0.00     0.083 H 
ATOM     69  C34 non d ame     -31.893  12.352  30.658  0.00  0.00    -0.075 A 
ATOM     70  H52 non d ame     -32.948  11.019  31.983  0.00  0.00     0.083 H 
ATOM     71  H53 non d ame     -31.357  12.853  31.465  0.00  0.00     0.084 H 
ENDBRANCH  58  61
ENDBRANCH  57  58
ENDBRANCH  55  57
ENDBRANCH  52  55
ENDBRANCH  49  52
ENDBRANCH  47  49
BRANCH  47  72
ATOM     72  C24 non d ame     -34.229  17.192  25.561  0.00  0.00    -0.039 C 
ATOM     73  H35 non d ame     -34.228  16.976  24.492  0.00  0.00     0.036 H 
ATOM     74  H36 non d ame     -35.161  17.144  26.125  0.00  0.00     0.036 H 
BRANCH  72  75
ATOM     75  C25 non d ame     -33.641  18.670  25.746  0.00  0.00    -0.001 C 
ATOM     76  C26 non d ame     -32.479  18.668  26.909  0.00  0.00    -0.035 C 
ATOM     77  C27 non d ame     -32.757  19.645  27.806  0.00  0.00     0.085 C 
ATOM     78  H38 non d ame     -32.542  17.754  27.500  0.00  0.00     0.036 H 
ATOM     79  H39 non d ame     -31.524  18.978  26.484  0.00  0.00     0.036 H 
ATOM     80  N5  non d ame     -34.174  20.095  27.543  0.00  0.00    -0.049 N 
ATOM     81  H40 non d ame     -32.713  19.164  28.784  0.00  0.00     0.075 H 
ATOM     82  H41 non d ame     -32.076  20.461  27.569  0.00  0.00     0.075 H 
ATOM     83  C28 non d ame     -34.566  19.502  26.094  0.00  0.00     0.193 C 
ATOM     84  H42 non d ame     -34.751  19.648  28.241  0.00  0.00     0.280 HD
ATOM     85  H43 non d ame     -34.146  21.103  27.481  0.00  0.00     0.280 HD
ATOM     86  H44 non d ame     -34.589  20.149  25.218  0.00  0.00     0.129 H 
ATOM     87  H37 non d ame     -33.389  19.137  24.794  0.00  0.00     0.046 H 
BRANCH  83  88
ATOM     88  O6  non d ame     -35.854  18.885  26.146  0.00  0.00    -0.369 OA
ATOM     89  H45 non d ame     -36.031  18.589  27.042  0.00  0.00     0.212 HD
ENDBRANCH  83  88
ENDBRANCH  72  75
ENDBRANCH  47  72
ENDBRANCH  45  47
ENDBRANCH   1  43
BRANCH   1  90
ATOM     90  C16 non d ame     -31.398  14.858  22.228  0.00  0.00    -0.035 C 
ATOM     91  H21 non d ame     -31.517  13.915  21.696  0.00  0.00     0.037 H 
ATOM     92  H22 non d ame     -32.271  15.465  22.463  0.00  0.00     0.037 H 
BRANCH  90  93
ATOM     93  C17 non d ame     -30.466  15.746  21.344  0.00  0.00    -0.059 C 
ATOM     94  H23 non d ame     -30.767  16.784  21.485  0.00  0.00     0.038 H 
BRANCH  93  95
ATOM     95  C18 non d ame     -28.966  15.623  21.760  0.00  0.00    -0.073 C 
ATOM     96  H24 non d ame     -28.901  15.384  22.822  0.00  0.00     0.028 H 
ATOM     97  H25 non d ame     -28.492  14.830  21.181  0.00  0.00     0.028 H 
ATOM     98  H26 non d ame     -28.456  16.567  21.568  0.00  0.00     0.028 H 
ENDBRANCH  93  95
BRANCH  93  99
ATOM     99  C19 non d ame     -30.647  15.419  19.859  0.00  0.00    -0.073 C 
ATOM    100  H27 non d ame     -31.301  14.552  19.755  0.00  0.00     0.028 H 
ATOM    101  H28 non d ame     -31.095  16.273  19.351  0.00  0.00     0.028 H 
ATOM    102  H29 non d ame     -29.678  15.200  19.414  0.00  0.00     0.028 H 
ENDBRANCH  93  99
ENDBRANCH  90  93
ENDBRANCH   1  90
TORSDOF 26
ENDMDL
MODEL 2
REMARK VINA RESULT:      -7.1      2.005      3.470
REMARK  26 active torsions:
REMARK  status: ('A' for Active; 'I' for Inactive)
REMARK    1  A    between atoms: C2_2  and  C3_3 
REMARK    2  A    between atoms: C4_6  and  C5_7 
REMARK       I    between atoms: C5_7  and  N2_9 
REMARK    3  A    between atoms: N2_9  and  C6_10 
REMARK    4  A    between atoms: C6_10  and  C7_11 
REMARK    5  A    between atoms: C6_10  and  C8_13 
REMARK       I    between atoms: C7_11  and  N3_14 
REMARK    6  A    between atoms: N3_14  and  C9_15 
REMARK    7  A    between atoms: C9_15  and  C10_16 
REMARK    8  A    between atoms: C9_15  and  C11_18 
REMARK       I    between atoms: C10_16  and  N4_21 
REMARK    9  A    between atoms: C11_18  and  C12_19 
REMARK   10  A    between atoms: C11_18  and  C13_20 
REMARK   11  A    between atoms: N4_21  and  C14_22 
REMARK   12  A    between atoms: C14_22  and  C15_23 
REMARK   13  A    between atoms: C14_22  and  C16_25 
REMARK       I    between atoms: C15_23  and  N6_40 
REMARK   14  A    between atoms: C16_25  and  C17_26 
REMARK   15  A    between atoms: C17_26  and  C18_27 
REMARK   16  A    between atoms: C17_26  and  C19_28 
REMARK   17  A    between atoms: C20_29  and  C21_30 
REMARK   18  A    between atoms: C20_29  and  C24_33 
REMARK   19  A    between atoms: C20_29  and  N6_40 
REMARK   20  A    between atoms: C21_30  and  C22_31 
REMARK   21  A    between atoms: C22_31  and  C23_32 
REMARK   22  A    between atoms: C23_32  and  O8_43 
REMARK   23  A    between atoms: C24_33  and  C25_34 
REMARK   24  A    between atoms: C28_38  and  O6_39 
REMARK   25  A    between atoms: C29_42  and  O8_43 
REMARK   26  A    between atoms: C29_42  and  C35_49 
ROOT
ATOM      1  C14 non d ame     -30.859  14.516  23.606  0.00  0.00     0.089 C 
ATOM      2  H20 non d ame     -29.771  14.565  23.541  0.00  0.00     0.087 H 
ENDROOT
BRANCH   1   3
ATOM      3  N4  non d ame     -31.217  13.143  23.926  0.00  0.00    -0.346 N 
ATOM      4  C10 non d ame     -30.525  11.994  23.237  0.00  0.00     0.241 C 
ATOM      5  O4  non d ame     -29.685  12.200  22.424  0.00  0.00    -0.271 OA
ATOM      6  H19 non d ame     -31.936  12.989  24.619  0.00  0.00     0.163 HD
BRANCH   4   7
ATOM      7  C9  non d ame     -30.904  10.579  23.585  0.00  0.00     0.092 C 
ATOM      8  H11 non d ame     -30.384  10.282  24.496  0.00  0.00     0.088 H 
BRANCH   7   9
ATOM      9  N3  non d ame     -32.341  10.513  23.865  0.00  0.00    -0.346 N 
ATOM     10  C7  non d ame     -32.810   9.918  25.092  0.00  0.00     0.240 C 
ATOM     11  O3  non d ame     -32.044   9.486  25.865  0.00  0.00    -0.271 OA
ATOM     12  H10 non d ame     -33.014  10.879  23.207  0.00  0.00     0.163 HD
BRANCH  10  13
ATOM     13  C6  non d ame     -34.341   9.847  25.384  0.00  0.00     0.086 C 
ATOM     14  H6  non d ame     -34.905   9.391  24.569  0.00  0.00     0.086 H 
BRANCH  13  15
ATOM     15  N2  non d ame     -34.560   9.016  26.556  0.00  0.00    -0.343 N 
ATOM     16  C5  non d ame     -34.954   7.616  26.385  0.00  0.00     0.273 C 
ATOM     17  O2  non d ame     -35.094   7.168  25.300  0.00  0.00    -0.266 OA
ATOM     18  H5  non d ame     -34.441   9.408  27.479  0.00  0.00     0.163 HD
BRANCH  16  19
ATOM     19  C4  non d ame     -35.186   6.726  27.615  0.00  0.00     0.154 A 
ATOM     20  C1  non d ame     -34.935   7.060  28.984  0.00  0.00    -0.017 A 
ATOM     21  C2  non d ame     -35.313   5.911  29.714  0.00  0.00     0.077 A 
ATOM     22  H1  non d ame     -34.539   7.992  29.386  0.00  0.00     0.091 H 
ATOM     23  O1  non d ame     -35.733   5.027  28.856  0.00  0.00    -0.218 OA
ATOM     24  N1  non d ame     -35.668   5.480  27.625  0.00  0.00    -0.123 NA
BRANCH  21  25
ATOM     25  C3  non d ame     -35.243   5.739  31.226  0.00  0.00    -0.029 C 
ATOM     26  H2  non d ame     -35.133   6.716  31.698  0.00  0.00     0.036 H 
ATOM     27  H3  non d ame     -36.158   5.266  31.581  0.00  0.00     0.036 H 
ATOM     28  H4  non d ame     -34.388   5.114  31.481  0.00  0.00     0.036 H 
ENDBRANCH  21  25
ENDBRANCH  16  19
ENDBRANCH  13  15
BRANCH  13  29
ATOM     29  C8  non d ame     -34.874  11.237  25.628  0.00  0.00    -0.049 C 
ATOM     30  H7  non d ame     -34.064  11.959  25.529  0.00  0.00     0.030 H 
ATOM     31  H8  non d ame     -35.652  11.461  24.898  0.00  0.00     0.030 H 
ATOM     32  H9  non d ame     -35.292  11.294  26.634  0.00  0.00     0.030 H 
ENDBRANCH  13  29
ENDBRANCH  10  13
ENDBRANCH   7   9
BRANCH   7  33
ATOM     33  C11 non d ame     -30.568   9.642  22.389  0.00  0.00    -0.033 C 
ATOM     34  H12 non d ame     -30.413  10.272  21.512  0.00  0.00     0.042 H 
BRANCH  33  35
ATOM     35  C12 non d ame     -29.245   8.853  22.638  0.00  0.00    -0.071 C 
ATOM     36  H13 non d ame     -28.657   8.830  21.720  0.00  0.00     0.028 H 
ATOM     37  H14 non d ame     -28.672   9.344  23.424  0.00  0.00     0.028 H 
ATOM     38  H15 non d ame     -29.481   7.833  22.942  0.00  0.00     0.028 H 
ENDBRANCH  33  35
BRANCH  33  39
ATOM     39  C13 non d ame     -31.756   8.674  22.084  0.00  0.00    -0.071 C 
ATOM     40  H16 non d ame     -32.045   8.155  22.998  0.00  0.00     0.028 H 
ATOM     41  H17 non d ame     -32.604   9.247  21.707  0.00  0.00     0.028 H 
ATOM     42  H18 non d ame     -31.449   7.947  21.334  0.00  0.00     0.028 H 
ENDBRANCH  33  39
ENDBRANCH   7  33
ENDBRANCH   4   7
ENDBRANCH   1   3
BRANCH   1  43
ATOM     43  C15 non d ame     -31.423  15.448  24.716  0.00  0.00     0.240 C 
ATOM     44  O5  non d ame     -30.707  16.232  25.250  0.00  0.00    -0.271 OA
ATOM     45  N6  non d ame     -32.859  15.368  25.108  0.00  0.00    -0.355 N 
ATOM     46  H46 non d ame     -33.478  14.709  24.658  0.00  0.00     0.162 HD
BRANCH  45  47
ATOM     47  C20 non d ame     -33.382  16.262  26.164  0.00  0.00     0.013 C 
ATOM     48  H30 non d ame     -32.540  16.813  26.584  0.00  0.00     0.072 H 
BRANCH  47  49
ATOM     49  C21 non d ame     -34.043  15.431  27.240  0.00  0.00    -0.038 C 
ATOM     50  H31 non d ame     -35.117  15.556  27.092  0.00  0.00     0.036 H 
ATOM     51  H32 non d ame     -33.594  14.441  27.165  0.00  0.00     0.036 H 
BRANCH  49  52
ATOM     52  C22 non d ame     -33.738  15.941  28.665  0.00  0.00     0.018 C 
ATOM     53  H33 non d ame     -34.028  16.991  28.671  0.00  0.00     0.048 H 
ATOM     54  H34 non d ame     -34.226  15.237  29.341  0.00  0.00     0.048 H 
BRANCH  52  55
ATOM     55  C23 non d ame     -32.229  15.911  29.032  0.00  0.00     0.259 C 
ATOM     56  O7  non d ame     -31.802  16.614  29.890  0.00  0.00    -0.265 OA
BRANCH  55  57
ATOM     57  O8  non d ame     -31.356  15.042  28.319  0.00  0.00    -0.317 OA
BRANCH  57  58
ATOM     58  C29 non d ame     -30.586  14.176  29.159  0.00  0.00     0.052 C 
ATOM     59  H47 non d ame     -29.727  13.873  28.561  0.00  0.00     0.082 H 
ATOM     60  H48 non d ame     -30.438  14.722  30.090  0.00  0.00     0.082 H 
BRANCH  58  61
ATOM     61  C35 non d ame     -31.442  12.916  29.460  0.00  0.00    -0.034 A 
ATOM     62  C30 non d ame     -32.056  12.227  28.419  0.00  0.00    -0.075 A 
ATOM     63  C31 non d ame     -32.825  11.095  28.690  0.00  0.00    -0.082 A 
ATOM     64  H49 non d ame     -31.936  12.572  27.393  0.00  0.00     0.084 H 
ATOM     65  C32 non d ame     -32.980  10.655  30.007  0.00  0.00    -0.083 A 
ATOM     66  H50 non d ame     -33.305  10.556  27.872  0.00  0.00     0.083 H 
ATOM     67  C33 non d ame     -32.368  11.348  31.042  0.00  0.00    -0.082 A 
ATOM     68  H51 non d ame     -33.579   9.771  30.226  0.00  0.00     0.083 H 
ATOM     69  C34 non d ame     -31.597  12.478  30.776  0.00  0.00    -0.075 A 
ATOM     70  H52 non d ame     -32.492  11.004  32.069  0.00  0.00     0.083 H 
ATOM     71  H53 non d ame     -31.118  13.016  31.595  0.00  0.00     0.084 H 
ENDBRANCH  58  61
ENDBRANCH  57  58
ENDBRANCH  55  57
ENDBRANCH  52  55
ENDBRANCH  49  52
ENDBRANCH  47  49
BRANCH  47  72
ATOM     72  C24 non d ame     -34.402  17.228  25.566  0.00  0.00    -0.039 C 
ATOM     73  H35 non d ame     -34.354  17.069  24.488  0.00  0.00     0.036 H 
ATOM     74  H36 non d ame     -35.331  17.037  26.103  0.00  0.00     0.036 H 
BRANCH  72  75
ATOM     75  C25 non d ame     -34.004  18.755  25.838  0.00  0.00    -0.001 C 
ATOM     76  C26 non d ame     -32.582  18.824  26.660  0.00  0.00    -0.035 C 
ATOM     77  C27 non d ame     -32.742  19.619  27.744  0.00  0.00     0.085 C 
ATOM     78  H38 non d ame     -32.350  17.850  27.090  0.00  0.00     0.036 H 
ATOM     79  H39 non d ame     -31.833  19.350  26.067  0.00  0.00     0.036 H 
ATOM     80  N5  non d ame     -34.226  19.834  27.919  0.00  0.00    -0.049 N 
ATOM     81  H40 non d ame     -32.365  19.041  28.588  0.00  0.00     0.075 H 
ATOM     82  H41 non d ame     -32.275  20.568  27.482  0.00  0.00     0.075 H 
ATOM     83  C28 non d ame     -34.909  19.358  26.535  0.00  0.00     0.193 C 
ATOM     84  H42 non d ame     -34.522  19.209  28.655  0.00  0.00     0.280 HD
ATOM     85  H43 non d ame     -34.361  20.830  28.018  0.00  0.00     0.280 HD
ATOM     86  H44 non d ame     -35.262  20.090  25.811  0.00  0.00     0.129 H 
ATOM     87  H37 non d ame     -34.090  19.371  24.943  0.00  0.00     0.046 H 
BRANCH  83  88
ATOM     88  O6  non d ame     -36.032  18.515  26.804  0.00  0.00    -0.369 OA
ATOM     89  H45 non d ame     -35.914  18.088  27.655  0.00  0.00     0.212 HD
ENDBRANCH  83  88
ENDBRANCH  72  75
ENDBRANCH  47  72
ENDBRANCH  45  47
ENDBRANCH   1  43
BRANCH   1  90
ATOM     90  C16 non d ame     -31.471  14.889  22.265  0.00  0.00    -0.035 C 
ATOM     91  H21 non d ame     -31.622  13.944  21.744  0.00  0.00     0.037 H 
ATOM     92  H22 non d ame     -32.326  15.521  22.505  0.00  0.00     0.037 H 
BRANCH  90  93
ATOM     93  C17 non d ame     -30.528  15.745  21.361  0.00  0.00    -0.059 C 
ATOM     94  H23 non d ame     -30.834  16.786  21.456  0.00  0.00     0.038 H 
BRANCH  93  95
ATOM     95  C18 non d ame     -29.034  15.643  21.806  0.00  0.00    -0.073 C 
ATOM     96  H24 non d ame     -28.967  15.771  22.886  0.00  0.00     0.028 H 
ATOM     97  H25 non d ame     -28.639  14.665  21.532  0.00  0.00     0.028 H 
ATOM     98  H26 non d ame     -28.454  16.421  21.310  0.00  0.00     0.028 H 
ENDBRANCH  93  95
BRANCH  93  99
ATOM     99  C19 non d ame     -30.685  15.358  19.888  0.00  0.00    -0.073 C 
ATOM    100  H27 non d ame     -31.681  14.944  19.724  0.00  0.00     0.028 H 
ATOM    101  H28 non d ame     -30.554  16.242  19.264  0.00  0.00     0.028 H 
ATOM    102  H29 non d ame     -29.934  14.614  19.625  0.00  0.00     0.028 H 
ENDBRANCH  93  99
ENDBRANCH  90  93
ENDBRANCH   1  90
TORSDOF 26
ENDMDL
MODEL 3
REMARK VINA RESULT:      -7.1      1.741      2.757
REMARK  26 active torsions:
REMARK  status: ('A' for Active; 'I' for Inactive)
REMARK    1  A    between atoms: C2_2  and  C3_3 
REMARK    2  A    between atoms: C4_6  and  C5_7 
REMARK       I    between atoms: C5_7  and  N2_9 
REMARK    3  A    between atoms: N2_9  and  C6_10 
REMARK    4  A    between atoms: C6_10  and  C7_11 
REMARK    5  A    between atoms: C6_10  and  C8_13 
REMARK       I    between atoms: C7_11  and  N3_14 
REMARK    6  A    between atoms: N3_14  and  C9_15 
REMARK    7  A    between atoms: C9_15  and  C10_16 
REMARK    8  A    between atoms: C9_15  and  C11_18 
REMARK       I    between atoms: C10_16  and  N4_21 
REMARK    9  A    between atoms: C11_18  and  C12_19 
REMARK   10  A    between atoms: C11_18  and  C13_20 
REMARK   11  A    between atoms: N4_21  and  C14_22 
REMARK   12  A    between atoms: C14_22  and  C15_23 
REMARK   13  A    between atoms: C14_22  and  C16_25 
REMARK       I    between atoms: C15_23  and  N6_40 
REMARK   14  A    between atoms: C16_25  and  C17_26 
REMARK   15  A    between atoms: C17_26  and  C18_27 
REMARK   16  A    between atoms: C17_26  and  C19_28 
REMARK   17  A    between atoms: C20_29  and  C21_30 
REMARK   18  A    between atoms: C20_29  and  C24_33 
REMARK   19  A    between atoms: C20_29  and  N6_40 
REMARK   20  A    between atoms: C21_30  and  C22_31 
REMARK   21  A    between atoms: C22_31  and  C23_32 
REMARK   22  A    between atoms: C23_32  and  O8_43 
REMARK   23  A    between atoms: C24_33  and  C25_34 
REMARK   24  A    between atoms: C28_38  and  O6_39 
REMARK   25  A    between atoms: C29_42  and  O8_43 
REMARK   26  A    between atoms: C29_42  and  C35_49 
ROOT
ATOM      1  C14 non d ame     -31.126  14.082  24.392  0.00  0.00     0.089 C 
ATOM      2  H20 non d ame     -30.142  13.659  24.595  0.00  0.00     0.087 H 
ENDROOT
BRANCH   1   3
ATOM      3  N4  non d ame     -32.107  13.029  24.608  0.00  0.00    -0.346 N 
ATOM      4  C10 non d ame     -31.863  11.960  25.644  0.00  0.00     0.241 C 
ATOM      5  O4  non d ame     -30.867  11.966  26.288  0.00  0.00    -0.271 OA
ATOM      6  H19 non d ame     -32.948  13.041  24.047  0.00  0.00     0.163 HD
BRANCH   4   7
ATOM      7  C9  non d ame     -32.892  10.882  25.858  0.00  0.00     0.092 C 
ATOM      8  H11 non d ame     -33.039  10.734  26.928  0.00  0.00     0.088 H 
BRANCH   7   9
ATOM      9  N3  non d ame     -34.176  11.313  25.299  0.00  0.00    -0.346 N 
ATOM     10  C7  non d ame     -35.187  11.873  26.162  0.00  0.00     0.240 C 
ATOM     11  O3  non d ame     -34.983  11.983  27.309  0.00  0.00    -0.271 OA
ATOM     12  H10 non d ame     -34.366  11.223  24.311  0.00  0.00     0.163 HD
BRANCH  10  13
ATOM     13  C6  non d ame     -36.553  12.328  25.561  0.00  0.00     0.086 C 
ATOM     14  H6  non d ame     -37.397  12.092  26.209  0.00  0.00     0.086 H 
BRANCH  13  15
ATOM     15  N2  non d ame     -36.541  13.773  25.403  0.00  0.00    -0.343 N 
ATOM     16  C5  non d ame     -37.527  14.585  26.120  0.00  0.00     0.273 C 
ATOM     17  O2  non d ame     -38.326  14.067  26.818  0.00  0.00    -0.266 OA
ATOM     18  H5  non d ame     -35.856  14.207  24.801  0.00  0.00     0.163 HD
BRANCH  16  19
ATOM     19  C4  non d ame     -37.524  16.113  25.963  0.00  0.00     0.154 A 
ATOM     20  C1  non d ame     -37.116  16.865  24.815  0.00  0.00    -0.017 A 
ATOM     21  C2  non d ame     -37.305  18.217  25.179  0.00  0.00     0.077 A 
ATOM     22  H1  non d ame     -36.740  16.487  23.865  0.00  0.00     0.091 H 
ATOM     23  O1  non d ame     -37.770  18.229  26.395  0.00  0.00    -0.218 OA
ATOM     24  N1  non d ame     -37.905  17.014  26.873  0.00  0.00    -0.123 NA
BRANCH  21  25
ATOM     25  C3  non d ame     -37.019  19.433  24.309  0.00  0.00    -0.029 C 
ATOM     26  H2  non d ame     -37.959  19.853  23.951  0.00  0.00     0.036 H 
ATOM     27  H3  non d ame     -36.487  20.182  24.895  0.00  0.00     0.036 H 
ATOM     28  H4  non d ame     -36.407  19.136  23.458  0.00  0.00     0.036 H 
ENDBRANCH  21  25
ENDBRANCH  16  19
ENDBRANCH  13  15
BRANCH  13  29
ATOM     29  C8  non d ame     -36.763  11.664  24.224  0.00  0.00    -0.049 C 
ATOM     30  H7  non d ame     -37.109  10.642  24.375  0.00  0.00     0.030 H 
ATOM     31  H8  non d ame     -37.510  12.219  23.656  0.00  0.00     0.030 H 
ATOM     32  H9  non d ame     -35.823  11.652  23.672  0.00  0.00     0.030 H 
ENDBRANCH  13  29
ENDBRANCH  10  13
ENDBRANCH   7   9
BRANCH   7  33
ATOM     33  C11 non d ame     -32.431   9.577  25.146  0.00  0.00    -0.033 C 
ATOM     34  H12 non d ame     -31.352   9.646  25.001  0.00  0.00     0.042 H 
BRANCH  33  35
ATOM     35  C12 non d ame     -32.706   8.319  26.029  0.00  0.00    -0.071 C 
ATOM     36  H13 non d ame     -33.440   8.567  26.796  0.00  0.00     0.028 H 
ATOM     37  H14 non d ame     -33.092   7.515  25.403  0.00  0.00     0.028 H 
ATOM     38  H15 non d ame     -31.779   7.998  26.503  0.00  0.00     0.028 H 
ENDBRANCH  33  35
BRANCH  33  39
ATOM     39  C13 non d ame     -33.099   9.440  23.741  0.00  0.00    -0.071 C 
ATOM     40  H16 non d ame     -32.350   9.598  22.965  0.00  0.00     0.028 H 
ATOM     41  H17 non d ame     -33.526   8.442  23.636  0.00  0.00     0.028 H 
ATOM     42  H18 non d ame     -33.889  10.183  23.640  0.00  0.00     0.028 H 
ENDBRANCH  33  39
ENDBRANCH   7  33
ENDBRANCH   4   7
ENDBRANCH   1   3
BRANCH   1  43
ATOM     43  C15 non d ame     -31.461  15.272  25.334  0.00  0.00     0.240 C 
ATOM     44  O5  non d ame     -31.055  16.360  25.079  0.00  0.00    -0.271 OA
ATOM     45  N6  non d ame     -32.296  15.059  26.550  0.00  0.00    -0.355 N 
ATOM     46  H46 non d ame     -32.651  14.140  26.774  0.00  0.00     0.162 HD
BRANCH  45  47
ATOM     47  C20 non d ame     -32.607  16.202  27.437  0.00  0.00     0.013 C 
ATOM     48  H30 non d ame     -31.884  16.992  27.232  0.00  0.00     0.072 H 
BRANCH  47  49
ATOM     49  C21 non d ame     -32.496  15.761  28.879  0.00  0.00    -0.038 C 
ATOM     50  H31 non d ame     -31.497  16.060  29.202  0.00  0.00     0.036 H 
ATOM     51  H32 non d ame     -33.375  16.166  29.379  0.00  0.00     0.036 H 
BRANCH  49  52
ATOM     52  C22 non d ame     -32.566  14.228  29.044  0.00  0.00     0.018 C 
ATOM     53  H33 non d ame     -33.063  14.056  29.998  0.00  0.00     0.048 H 
ATOM     54  H34 non d ame     -33.013  13.852  28.122  0.00  0.00     0.048 H 
BRANCH  52  55
ATOM     55  C23 non d ame     -31.175  13.545  29.156  0.00  0.00     0.259 C 
ATOM     56  O7  non d ame     -30.200  14.094  28.757  0.00  0.00    -0.265 OA
BRANCH  55  57
ATOM     57  O8  non d ame     -31.080  12.246  29.728  0.00  0.00    -0.317 OA
BRANCH  57  58
ATOM     58  C29 non d ame     -31.801  12.097  30.955  0.00  0.00     0.052 C 
ATOM     59  H47 non d ame     -31.097  11.653  31.658  0.00  0.00     0.082 H 
ATOM     60  H48 non d ame     -32.237  13.074  31.162  0.00  0.00     0.082 H 
BRANCH  58  61
ATOM     61  C35 non d ame     -32.956  11.087  30.713  0.00  0.00    -0.034 A 
ATOM     62  C30 non d ame     -34.005  10.998  31.623  0.00  0.00    -0.075 A 
ATOM     63  C31 non d ame     -35.041  10.090  31.405  0.00  0.00    -0.082 A 
ATOM     64  H49 non d ame     -34.014  11.637  32.505  0.00  0.00     0.084 H 
ATOM     65  C32 non d ame     -35.025   9.270  30.275  0.00  0.00    -0.083 A 
ATOM     66  H50 non d ame     -35.863  10.024  32.120  0.00  0.00     0.083 H 
ATOM     67  C33 non d ame     -33.974   9.361  29.372  0.00  0.00    -0.082 A 
ATOM     68  H51 non d ame     -35.832   8.559  30.097  0.00  0.00     0.083 H 
ATOM     69  C34 non d ame     -32.937  10.267  29.584  0.00  0.00    -0.075 A 
ATOM     70  H52 non d ame     -33.963   8.717  28.491  0.00  0.00     0.083 H 
ATOM     71  H53 non d ame     -32.117  10.333  28.869  0.00  0.00     0.084 H 
ENDBRANCH  58  61
ENDBRANCH  57  58
ENDBRANCH  55  57
ENDBRANCH  52  55
ENDBRANCH  49  52
ENDBRANCH  47  49
BRANCH  47  72
ATOM     72  C24 non d ame     -34.026  16.697  27.162  0.00  0.00    -0.039 C 
ATOM     73  H35 non d ame     -34.355  16.156  26.275  0.00  0.00     0.036 H 
ATOM     74  H36 non d ame     -34.562  16.577  28.104  0.00  0.00     0.036 H 
BRANCH  72  75
ATOM     75  C25 non d ame     -34.049  18.258  26.801  0.00  0.00    -0.001 C 
ATOM     76  C26 non d ame     -32.532  18.880  26.913  0.00  0.00    -0.035 C 
ATOM     77  C27 non d ame     -32.570  19.987  27.693  0.00  0.00     0.085 C 
ATOM     78  H38 non d ame     -31.888  18.199  27.468  0.00  0.00     0.036 H 
ATOM     79  H39 non d ame     -32.213  19.264  25.943  0.00  0.00     0.036 H 
ATOM     80  N5  non d ame     -33.909  19.989  28.390  0.00  0.00    -0.049 N 
ATOM     81  H40 non d ame     -31.784  19.847  28.436  0.00  0.00     0.075 H 
ATOM     82  H41 non d ame     -32.527  20.831  27.005  0.00  0.00     0.075 H 
ATOM     83  C28 non d ame     -34.821  18.912  27.605  0.00  0.00     0.193 C 
ATOM     84  H42 non d ame     -33.746  19.650  29.327  0.00  0.00     0.280 HD
ATOM     85  H43 non d ame     -34.304  20.908  28.248  0.00  0.00     0.280 HD
ATOM     86  H44 non d ame     -35.594  19.241  26.913  0.00  0.00     0.129 H 
ATOM     87  H37 non d ame     -34.603  18.461  25.885  0.00  0.00     0.046 H 
BRANCH  83  88
ATOM     88  O6  non d ame     -35.481  18.053  28.537  0.00  0.00    -0.369 OA
ATOM     89  H45 non d ame     -35.866  18.580  29.240  0.00  0.00     0.212 HD
ENDBRANCH  83  88
ENDBRANCH  72  75
ENDBRANCH  47  72
ENDBRANCH  45  47
ENDBRANCH   1  43
BRANCH   1  90
ATOM     90  C16 non d ame     -31.201  14.539  22.944  0.00  0.00    -0.035 C 
ATOM     91  H21 non d ame     -31.970  13.919  22.484  0.00  0.00     0.037 H 
ATOM     92  H22 non d ame     -31.330  15.620  22.989  0.00  0.00     0.037 H 
BRANCH  90  93
ATOM     93  C17 non d ame     -29.889  14.283  22.136  0.00  0.00    -0.059 C 
ATOM     94  H23 non d ame     -30.059  14.619  21.114  0.00  0.00     0.038 H 
BRANCH  93  95
ATOM     95  C18 non d ame     -28.679  15.089  22.708  0.00  0.00    -0.073 C 
ATOM     96  H24 non d ame     -28.382  15.856  21.994  0.00  0.00     0.028 H 
ATOM     97  H25 non d ame     -28.969  15.562  23.647  0.00  0.00     0.028 H 
ATOM     98  H26 non d ame     -27.843  14.413  22.885  0.00  0.00     0.028 H 
ENDBRANCH  93  95
BRANCH  93  99
ATOM     99  C19 non d ame     -29.568  12.788  22.076  0.00  0.00    -0.073 C 
ATOM    100  H27 non d ame     -28.716  12.572  22.723  0.00  0.00     0.028 H 
ATOM    101  H28 non d ame     -30.432  12.216  22.414  0.00  0.00     0.028 H 
ATOM    102  H29 non d ame     -29.326  12.509  21.051  0.00  0.00     0.028 H 
ENDBRANCH  93  99
ENDBRANCH  90  93
ENDBRANCH   1  90
TORSDOF 26
ENDMDL
MODEL 4
REMARK VINA RESULT:      -7.1      1.375      2.045
REMARK  26 active torsions:
REMARK  status: ('A' for Active; 'I' for Inactive)
REMARK    1  A    between atoms: C2_2  and  C3_3 
REMARK    2  A    between atoms: C4_6  and  C5_7 
REMARK       I    between atoms: C5_7  and  N2_9 
REMARK    3  A    between atoms: N2_9  and  C6_10 
REMARK    4  A    between atoms: C6_10  and  C7_11 
REMARK    5  A    between atoms: C6_10  and  C8_13 
REMARK       I    between atoms: C7_11  and  N3_14 
REMARK    6  A    between atoms: N3_14  and  C9_15 
REMARK    7  A    between atoms: C9_15  and  C10_16 
REMARK    8  A    between atoms: C9_15  and  C11_18 
REMARK       I    between atoms: C10_16  and  N4_21 
REMARK    9  A    between atoms: C11_18  and  C12_19 
REMARK   10  A    between atoms: C11_18  and  C13_20 
REMARK   11  A    between atoms: N4_21  and  C14_22 
REMARK   12  A    between atoms: C14_22  and  C15_23 
REMARK   13  A    between atoms: C14_22  and  C16_25 
REMARK       I    between atoms: C15_23  and  N6_40 
REMARK   14  A    between atoms: C16_25  and  C17_26 
REMARK   15  A    between atoms: C17_26  and  C18_27 
REMARK   16  A    between atoms: C17_26  and  C19_28 
REMARK   17  A    between atoms: C20_29  and  C21_30 
REMARK   18  A    between atoms: C20_29  and  C24_33 
REMARK   19  A    between atoms: C20_29  and  N6_40 
REMARK   20  A    between atoms: C21_30  and  C22_31 
REMARK   21  A    between atoms: C22_31  and  C23_32 
REMARK   22  A    between atoms: C23_32  and  O8_43 
REMARK   23  A    between atoms: C24_33  and  C25_34 
REMARK   24  A    between atoms: C28_38  and  O6_39 
REMARK   25  A    between atoms: C29_42  and  O8_43 
REMARK   26  A    between atoms: C29_42  and  C35_49 
ROOT
ATOM      1  C14 non d ame     -30.675  14.290  23.715  0.00  0.00     0.089 C 
ATOM      2  H20 non d ame     -29.598  14.274  23.549  0.00  0.00     0.087 H 
ENDROOT
BRANCH   1   3
ATOM      3  N4  non d ame     -31.095  12.924  23.992  0.00  0.00    -0.346 N 
ATOM      4  C10 non d ame     -30.489  11.772  23.230  0.00  0.00     0.241 C 
ATOM      5  O4  non d ame     -29.668  11.968  22.397  0.00  0.00    -0.271 OA
ATOM      6  H19 non d ame     -31.796  12.778  24.704  0.00  0.00     0.163 HD
BRANCH   4   7
ATOM      7  C9  non d ame     -30.931  10.364  23.535  0.00  0.00     0.092 C 
ATOM      8  H11 non d ame     -30.498  10.050  24.485  0.00  0.00     0.088 H 
BRANCH   7   9
ATOM      9  N3  non d ame     -32.388  10.332  23.690  0.00  0.00    -0.346 N 
ATOM     10  C7  non d ame     -32.970   9.965  24.957  0.00  0.00     0.240 C 
ATOM     11  O3  non d ame     -32.280   9.692  25.863  0.00  0.00    -0.271 OA
ATOM     12  H10 non d ame     -32.996  10.563  22.918  0.00  0.00     0.163 HD
BRANCH  10  13
ATOM     13  C6  non d ame     -34.522   9.929  25.116  0.00  0.00     0.086 C 
ATOM     14  H6  non d ame     -34.838   9.536  26.081  0.00  0.00     0.086 H 
BRANCH  13  15
ATOM     15  N2  non d ame     -35.035  11.287  25.032  0.00  0.00    -0.343 N 
ATOM     16  C5  non d ame     -35.880  11.806  26.110  0.00  0.00     0.273 C 
ATOM     17  O2  non d ame     -36.143  11.124  27.038  0.00  0.00    -0.266 OA
ATOM     18  H5  non d ame     -34.809  11.862  24.233  0.00  0.00     0.163 HD
BRANCH  16  19
ATOM     19  C4  non d ame     -36.428  13.240  26.035  0.00  0.00     0.154 A 
ATOM     20  C1  non d ame     -36.316  14.153  24.939  0.00  0.00    -0.017 A 
ATOM     21  C2  non d ame     -36.980  15.323  25.370  0.00  0.00     0.077 A 
ATOM     22  H1  non d ame     -35.826  13.992  23.979  0.00  0.00     0.091 H 
ATOM     23  O1  non d ame     -37.422  15.096  26.573  0.00  0.00    -0.218 OA
ATOM     24  N1  non d ame     -37.111  13.888  26.982  0.00  0.00    -0.123 NA
BRANCH  21  25
ATOM     25  C3  non d ame     -37.149  16.609  24.573  0.00  0.00    -0.029 C 
ATOM     26  H2  non d ame     -37.529  17.394  25.226  0.00  0.00     0.036 H 
ATOM     27  H3  non d ame     -36.185  16.913  24.164  0.00  0.00     0.036 H 
ATOM     28  H4  non d ame     -37.853  16.442  23.758  0.00  0.00     0.036 H 
ENDBRANCH  21  25
ENDBRANCH  16  19
ENDBRANCH  13  15
BRANCH  13  29
ATOM     29  C8  non d ame     -35.122   9.082  24.022  0.00  0.00    -0.049 C 
ATOM     30  H7  non d ame     -35.156   9.654  23.096  0.00  0.00     0.030 H 
ATOM     31  H8  non d ame     -34.510   8.191  23.877  0.00  0.00     0.030 H 
ATOM     32  H9  non d ame     -36.133   8.786  24.305  0.00  0.00     0.030 H 
ENDBRANCH  13  29
ENDBRANCH  10  13
ENDBRANCH   7   9
BRANCH   7  33
ATOM     33  C11 non d ame     -30.515   9.426  22.364  0.00  0.00    -0.033 C 
ATOM     34  H12 non d ame     -30.324  10.053  21.493  0.00  0.00     0.042 H 
BRANCH  33  35
ATOM     35  C12 non d ame     -29.195   8.660  22.690  0.00  0.00    -0.071 C 
ATOM     36  H13 non d ame     -29.085   7.820  22.005  0.00  0.00     0.028 H 
ATOM     37  H14 non d ame     -28.347   9.334  22.579  0.00  0.00     0.028 H 
ATOM     38  H15 non d ame     -29.234   8.289  23.715  0.00  0.00     0.028 H 
ENDBRANCH  33  35
BRANCH  33  39
ATOM     39  C13 non d ame     -31.670   8.438  22.003  0.00  0.00    -0.071 C 
ATOM     40  H16 non d ame     -31.439   7.448  22.399  0.00  0.00     0.028 H 
ATOM     41  H17 non d ame     -32.604   8.795  22.437  0.00  0.00     0.028 H 
ATOM     42  H18 non d ame     -31.773   8.381  20.920  0.00  0.00     0.028 H 
ENDBRANCH  33  39
ENDBRANCH   7  33
ENDBRANCH   4   7
ENDBRANCH   1   3
BRANCH   1  43
ATOM     43  C15 non d ame     -31.070  15.184  24.924  0.00  0.00     0.240 C 
ATOM     44  O5  non d ame     -30.646  16.292  25.003  0.00  0.00    -0.271 OA
ATOM     45  N6  non d ame     -31.985  14.664  25.979  0.00  0.00    -0.355 N 
ATOM     46  H46 non d ame     -32.356  13.726  25.920  0.00  0.00     0.162 HD
BRANCH  45  47
ATOM     47  C20 non d ame     -32.354  15.528  27.123  0.00  0.00     0.013 C 
ATOM     48  H30 non d ame     -31.751  16.434  27.066  0.00  0.00     0.072 H 
BRANCH  47  49
ATOM     49  C21 non d ame     -32.066  14.796  28.414  0.00  0.00    -0.038 C 
ATOM     50  H31 non d ame     -31.002  14.555  28.386  0.00  0.00     0.036 H 
ATOM     51  H32 non d ame     -32.459  15.433  29.206  0.00  0.00     0.036 H 
BRANCH  49  52
ATOM     52  C22 non d ame     -32.816  13.451  28.522  0.00  0.00     0.018 C 
ATOM     53  H33 non d ame     -33.355  13.488  29.467  0.00  0.00     0.048 H 
ATOM     54  H34 non d ame     -33.366  13.345  27.585  0.00  0.00     0.048 H 
BRANCH  52  55
ATOM     55  C23 non d ame     -31.878  12.216  28.610  0.00  0.00     0.259 C 
ATOM     56  O7  non d ame     -31.028  12.044  27.797  0.00  0.00    -0.265 OA
BRANCH  55  57
ATOM     57  O8  non d ame     -32.054  11.281  29.667  0.00  0.00    -0.317 OA
BRANCH  57  58
ATOM     58  C29 non d ame     -32.982  10.233  29.368  0.00  0.00     0.052 C 
ATOM     59  H47 non d ame     -33.593  10.606  28.547  0.00  0.00     0.082 H 
ATOM     60  H48 non d ame     -32.379   9.335  29.235  0.00  0.00     0.082 H 
BRANCH  58  61
ATOM     61  C35 non d ame     -33.895  10.032  30.607  0.00  0.00    -0.034 A 
ATOM     62  C30 non d ame     -34.107  11.084  31.493  0.00  0.00    -0.075 A 
ATOM     63  C31 non d ame     -34.927  10.904  32.607  0.00  0.00    -0.082 A 
ATOM     64  H49 non d ame     -33.631  12.048  31.316  0.00  0.00     0.084 H 
ATOM     65  C32 non d ame     -35.533   9.666  32.834  0.00  0.00    -0.083 A 
ATOM     66  H50 non d ame     -35.092  11.731  33.299  0.00  0.00     0.083 H 
ATOM     67  C33 non d ame     -35.316   8.619  31.949  0.00  0.00    -0.082 A 
ATOM     68  H51 non d ame     -36.176   9.518  33.701  0.00  0.00     0.083 H 
ATOM     69  C34 non d ame     -34.499   8.795  30.834  0.00  0.00    -0.075 A 
ATOM     70  H52 non d ame     -35.789   7.653  32.129  0.00  0.00     0.083 H 
ATOM     71  H53 non d ame     -34.335   7.968  30.143  0.00  0.00     0.084 H 
ENDBRANCH  58  61
ENDBRANCH  57  58
ENDBRANCH  55  57
ENDBRANCH  52  55
ENDBRANCH  49  52
ENDBRANCH  47  49
BRANCH  47  72
ATOM     72  C24 non d ame     -33.839  15.874  27.051  0.00  0.00    -0.039 C 
ATOM     73  H35 non d ame     -34.247  15.240  26.263  0.00  0.00     0.036 H 
ATOM     74  H36 non d ame     -34.208  15.778  28.072  0.00  0.00     0.036 H 
BRANCH  72  75
ATOM     75  C25 non d ame     -34.073  17.394  26.605  0.00  0.00    -0.001 C 
ATOM     76  C26 non d ame     -32.642  18.203  26.605  0.00  0.00    -0.035 C 
ATOM     77  C27 non d ame     -32.785  19.343  27.324  0.00  0.00     0.085 C 
ATOM     78  H38 non d ame     -31.894  17.641  27.164  0.00  0.00     0.036 H 
ATOM     79  H39 non d ame     -32.416  18.563  25.601  0.00  0.00     0.036 H 
ATOM     80  N5  non d ame     -34.082  19.224  28.086  0.00  0.00    -0.049 N 
ATOM     81  H40 non d ame     -31.955  19.346  28.032  0.00  0.00     0.075 H 
ATOM     82  H41 non d ame     -32.877  20.142  26.588  0.00  0.00     0.075 H 
ATOM     83  C28 non d ame     -34.885  17.998  27.409  0.00  0.00     0.193 C 
ATOM     84  H42 non d ame     -33.837  18.966  29.031  0.00  0.00     0.280 HD
ATOM     85  H43 non d ame     -34.594  20.078  27.913  0.00  0.00     0.280 HD
ATOM     86  H44 non d ame     -35.723  18.187  26.740  0.00  0.00     0.129 H 
ATOM     87  H37 non d ame     -34.687  17.472  25.709  0.00  0.00     0.046 H 
BRANCH  83  88
ATOM     88  O6  non d ame     -35.392  17.124  28.420  0.00  0.00    -0.369 OA
ATOM     89  H45 non d ame     -34.718  16.484  28.658  0.00  0.00     0.212 HD
ENDBRANCH  83  88
ENDBRANCH  72  75
ENDBRANCH  47  72
ENDBRANCH  45  47
ENDBRANCH   1  43
BRANCH   1  90
ATOM     90  C16 non d ame     -31.382  14.781  22.462  0.00  0.00    -0.035 C 
ATOM     91  H21 non d ame     -31.645  13.882  21.907  0.00  0.00     0.037 H 
ATOM     92  H22 non d ame     -32.166  15.451  22.817  0.00  0.00     0.037 H 
BRANCH  90  93
ATOM     93  C17 non d ame     -30.471  15.629  21.519  0.00  0.00    -0.059 C 
ATOM     94  H23 non d ame     -30.765  16.673  21.625  0.00  0.00     0.038 H 
BRANCH  93  95
ATOM     95  C18 non d ame     -28.961  15.517  21.903  0.00  0.00    -0.073 C 
ATOM     96  H24 non d ame     -28.452  14.866  21.192  0.00  0.00     0.028 H 
ATOM     97  H25 non d ame     -28.505  16.508  21.877  0.00  0.00     0.028 H 
ATOM     98  H26 non d ame     -28.870  15.102  22.906  0.00  0.00     0.028 H 
ENDBRANCH  93  95
BRANCH  93  99
ATOM     99  C19 non d ame     -30.690  15.242  20.054  0.00  0.00    -0.073 C 
ATOM    100  H27 non d ame     -31.756  15.111  19.868  0.00  0.00     0.028 H 
ATOM    101  H28 non d ame     -30.303  16.030  19.408  0.00  0.00     0.028 H 
ATOM    102  H29 non d ame     -30.166  14.310  19.842  0.00  0.00     0.028 H 
ENDBRANCH  93  99
ENDBRANCH  90  93
ENDBRANCH   1  90
TORSDOF 26
ENDMDL
MODEL 5
REMARK VINA RESULT:      -6.8      3.629      6.335
REMARK  26 active torsions:
REMARK  status: ('A' for Active; 'I' for Inactive)
REMARK    1  A    between atoms: C2_2  and  C3_3 
REMARK    2  A    between atoms: C4_6  and  C5_7 
REMARK       I    between atoms: C5_7  and  N2_9 
REMARK    3  A    between atoms: N2_9  and  C6_10 
REMARK    4  A    between atoms: C6_10  and  C7_11 
REMARK    5  A    between atoms: C6_10  and  C8_13 
REMARK       I    between atoms: C7_11  and  N3_14 
REMARK    6  A    between atoms: N3_14  and  C9_15 
REMARK    7  A    between atoms: C9_15  and  C10_16 
REMARK    8  A    between atoms: C9_15  and  C11_18 
REMARK       I    between atoms: C10_16  and  N4_21 
REMARK    9  A    between atoms: C11_18  and  C12_19 
REMARK   10  A    between atoms: C11_18  and  C13_20 
REMARK   11  A    between atoms: N4_21  and  C14_22 
REMARK   12  A    between atoms: C14_22  and  C15_23 
REMARK   13  A    between atoms: C14_22  and  C16_25 
REMARK       I    between atoms: C15_23  and  N6_40 
REMARK   14  A    between atoms: C16_25  and  C17_26 
REMARK   15  A    between atoms: C17_26  and  C18_27 
REMARK   16  A    between atoms: C17_26  and  C19_28 
REMARK   17  A    between atoms: C20_29  and  C21_30 
REMARK   18  A    between atoms: C20_29  and  C24_33 
REMARK   19  A    between atoms: C20_29  and  N6_40 
REMARK   20  A    between atoms: C21_30  and  C22_31 
REMARK   21  A    between atoms: C22_31  and  C23_32 
REMARK   22  A    between atoms: C23_32  and  O8_43 
REMARK   23  A    between atoms: C24_33  and  C25_34 
REMARK   24  A    between atoms: C28_38  and  O6_39 
REMARK   25  A    between atoms: C29_42  and  O8_43 
REMARK   26  A    between atoms: C29_42  and  C35_49 
ROOT
ATOM      1  C14 non d ame     -33.070  10.355  25.438  0.00  0.00     0.089 C 
ATOM      2  H20 non d ame     -33.715  10.411  24.560  0.00  0.00     0.087 H 
ENDROOT
BRANCH   1   3
ATOM      3  N4  non d ame     -32.463   9.033  25.450  0.00  0.00    -0.346 N 
ATOM      4  C10 non d ame     -33.118   7.886  24.721  0.00  0.00     0.241 C 
ATOM      5  O4  non d ame     -34.137   8.051  24.135  0.00  0.00    -0.271 OA
ATOM      6  H19 non d ame     -31.597   8.913  25.956  0.00  0.00     0.163 HD
BRANCH   4   7
ATOM      7  C9  non d ame     -32.472   6.526  24.740  0.00  0.00     0.092 C 
ATOM      8  H11 non d ame     -31.415   6.634  24.983  0.00  0.00     0.088 H 
BRANCH   7   9
ATOM      9  N3  non d ame     -33.079   5.710  25.795  0.00  0.00    -0.346 N 
ATOM     10  C7  non d ame     -32.626   5.841  27.158  0.00  0.00     0.240 C 
ATOM     11  O3  non d ame     -31.773   6.598  27.423  0.00  0.00    -0.271 OA
ATOM     12  H10 non d ame     -33.814   5.052  25.581  0.00  0.00     0.163 HD
BRANCH  10  13
ATOM     13  C6  non d ame     -33.274   4.968  28.277  0.00  0.00     0.086 C 
ATOM     14  H6  non d ame     -32.635   4.864  29.154  0.00  0.00     0.086 H 
BRANCH  13  15
ATOM     15  N2  non d ame     -34.497   5.611  28.727  0.00  0.00    -0.343 N 
ATOM     16  C5  non d ame     -34.882   5.521  30.138  0.00  0.00     0.273 C 
ATOM     17  O2  non d ame     -34.203   4.927  30.900  0.00  0.00    -0.266 OA
ATOM     18  H5  non d ame     -35.074   6.113  28.067  0.00  0.00     0.163 HD
BRANCH  16  19
ATOM     19  C4  non d ame     -36.172   6.197  30.628  0.00  0.00     0.154 A 
ATOM     20  C1  non d ame     -36.434   7.601  30.712  0.00  0.00    -0.017 A 
ATOM     21  C2  non d ame     -37.749   7.697  31.219  0.00  0.00     0.077 A 
ATOM     22  H1  non d ame     -35.772   8.425  30.447  0.00  0.00     0.091 H 
ATOM     23  O1  non d ame     -38.183   6.483  31.399  0.00  0.00    -0.218 OA
ATOM     24  N1  non d ame     -37.280   5.591  31.062  0.00  0.00    -0.123 NA
BRANCH  21  25
ATOM     25  C3  non d ame     -38.516   8.981  31.501  0.00  0.00    -0.029 C 
ATOM     26  H2  non d ame     -38.032   9.524  32.313  0.00  0.00     0.036 H 
ATOM     27  H3  non d ame     -38.526   9.603  30.605  0.00  0.00     0.036 H 
ATOM     28  H4  non d ame     -39.539   8.739  31.786  0.00  0.00     0.036 H 
ENDBRANCH  21  25
ENDBRANCH  16  19
ENDBRANCH  13  15
BRANCH  13  29
ATOM     29  C8  non d ame     -33.583   3.596  27.732  0.00  0.00    -0.049 C 
ATOM     30  H7  non d ame     -32.656   3.106  27.434  0.00  0.00     0.030 H 
ATOM     31  H8  non d ame     -34.076   3.002  28.502  0.00  0.00     0.030 H 
ATOM     32  H9  non d ame     -34.240   3.688  26.867  0.00  0.00     0.030 H 
ENDBRANCH  13  29
ENDBRANCH  10  13
ENDBRANCH   7   9
BRANCH   7  33
ATOM     33  C11 non d ame     -32.686   5.832  23.363  0.00  0.00    -0.033 C 
ATOM     34  H12 non d ame     -33.525   6.327  22.872  0.00  0.00     0.042 H 
BRANCH  33  35
ATOM     35  C12 non d ame     -31.438   6.000  22.440  0.00  0.00    -0.071 C 
ATOM     36  H13 non d ame     -31.419   7.012  22.036  0.00  0.00     0.028 H 
ATOM     37  H14 non d ame     -30.533   5.823  23.020  0.00  0.00     0.028 H 
ATOM     38  H15 non d ame     -31.492   5.283  21.621  0.00  0.00     0.028 H 
ENDBRANCH  33  35
BRANCH  33  39
ATOM     39  C13 non d ame     -33.055   4.325  23.547  0.00  0.00    -0.071 C 
ATOM     40  H16 non d ame     -32.533   3.926  24.417  0.00  0.00     0.028 H 
ATOM     41  H17 non d ame     -34.132   4.230  23.694  0.00  0.00     0.028 H 
ATOM     42  H18 non d ame     -32.761   3.767  22.659  0.00  0.00     0.028 H 
ENDBRANCH  33  39
ENDBRANCH   7  33
ENDBRANCH   4   7
ENDBRANCH   1   3
BRANCH   1  43
ATOM     43  C15 non d ame     -31.938  11.420  25.404  0.00  0.00     0.240 C 
ATOM     44  O5  non d ame     -30.867  11.158  25.847  0.00  0.00    -0.271 OA
ATOM     45  N6  non d ame     -32.185  12.764  24.809  0.00  0.00    -0.355 N 
ATOM     46  H46 non d ame     -33.089  12.996  24.424  0.00  0.00     0.162 HD
BRANCH  45  47
ATOM     47  C20 non d ame     -31.097  13.766  24.782  0.00  0.00     0.013 C 
ATOM     48  H30 non d ame     -30.346  13.465  25.513  0.00  0.00     0.072 H 
BRANCH  47  49
ATOM     49  C21 non d ame     -31.658  15.123  25.146  0.00  0.00    -0.038 C 
ATOM     50  H31 non d ame     -31.433  15.260  26.205  0.00  0.00     0.036 H 
ATOM     51  H32 non d ame     -31.253  15.815  24.408  0.00  0.00     0.036 H 
BRANCH  49  52
ATOM     52  C22 non d ame     -33.194  15.191  25.014  0.00  0.00     0.018 C 
ATOM     53  H33 non d ame     -33.392  15.389  23.961  0.00  0.00     0.048 H 
ATOM     54  H34 non d ame     -33.571  14.277  25.476  0.00  0.00     0.048 H 
BRANCH  52  55
ATOM     55  C23 non d ame     -33.839  16.366  25.799  0.00  0.00     0.259 C 
ATOM     56  O7  non d ame     -34.716  17.006  25.316  0.00  0.00    -0.265 OA
BRANCH  55  57
ATOM     57  O8  non d ame     -33.359  16.681  27.101  0.00  0.00    -0.317 OA
BRANCH  57  58
ATOM     58  C29 non d ame     -33.945  15.894  28.143  0.00  0.00     0.052 C 
ATOM     59  H47 non d ame     -34.195  16.597  28.937  0.00  0.00     0.082 H 
ATOM     60  H48 non d ame     -34.730  15.309  27.665  0.00  0.00     0.082 H 
BRANCH  58  61
ATOM     61  C35 non d ame     -32.861  14.918  28.674  0.00  0.00    -0.034 A 
ATOM     62  C30 non d ame     -32.967  13.554  28.420  0.00  0.00    -0.075 A 
ATOM     63  C31 non d ame     -31.993  12.678  28.898  0.00  0.00    -0.082 A 
ATOM     64  H49 non d ame     -33.812  13.172  27.848  0.00  0.00     0.084 H 
ATOM     65  C32 non d ame     -30.912  13.169  29.634  0.00  0.00    -0.083 A 
ATOM     66  H50 non d ame     -32.078  11.609  28.696  0.00  0.00     0.083 H 
ATOM     67  C33 non d ame     -30.812  14.531  29.888  0.00  0.00    -0.082 A 
ATOM     68  H51 non d ame     -30.146  12.491  30.010  0.00  0.00     0.083 H 
ATOM     69  C34 non d ame     -31.782  15.410  29.411  0.00  0.00    -0.075 A 
ATOM     70  H52 non d ame     -29.969  14.911  30.464  0.00  0.00     0.083 H 
ATOM     71  H53 non d ame     -31.696  16.478  29.613  0.00  0.00     0.084 H 
ENDBRANCH  58  61
ENDBRANCH  57  58
ENDBRANCH  55  57
ENDBRANCH  52  55
ENDBRANCH  49  52
ENDBRANCH  47  49
BRANCH  47  72
ATOM     72  C24 non d ame     -30.483  13.826  23.385  0.00  0.00    -0.039 C 
ATOM     73  H35 non d ame     -29.509  13.342  23.476  0.00  0.00     0.036 H 
ATOM     74  H36 non d ame     -31.238  13.409  22.719  0.00  0.00     0.036 H 
BRANCH  72  75
ATOM     75  C25 non d ame     -30.220  15.335  22.916  0.00  0.00    -0.001 C 
ATOM     76  C26 non d ame     -31.296  15.751  21.745  0.00  0.00    -0.035 C 
ATOM     77  C27 non d ame     -30.617  16.264  20.691  0.00  0.00     0.085 C 
ATOM     78  H38 non d ame     -31.767  14.858  21.335  0.00  0.00     0.036 H 
ATOM     79  H39 non d ame     -31.911  16.586  22.082  0.00  0.00     0.036 H 
ATOM     80  N5  non d ame     -29.159  15.932  20.902  0.00  0.00    -0.049 N 
ATOM     81  H40 non d ame     -30.982  15.722  19.817  0.00  0.00     0.075 H 
ATOM     82  H41 non d ame     -30.748  17.344  20.756  0.00  0.00     0.075 H 
ATOM     83  C28 non d ame     -29.026  15.477  22.445  0.00  0.00     0.193 C 
ATOM     84  H42 non d ame     -28.958  15.137  20.313  0.00  0.00     0.280 HD
ATOM     85  H43 non d ame     -28.649  16.795  20.776  0.00  0.00     0.280 HD
ATOM     86  H44 non d ame     -28.600  16.151  23.187  0.00  0.00     0.129 H 
ATOM     87  H37 non d ame     -30.116  16.017  23.759  0.00  0.00     0.046 H 
BRANCH  83  88
ATOM     88  O6  non d ame     -28.262  14.273  22.539  0.00  0.00    -0.369 OA
ATOM     89  H45 non d ame     -28.510  13.680  21.827  0.00  0.00     0.212 HD
ENDBRANCH  83  88
ENDBRANCH  72  75
ENDBRANCH  47  72
ENDBRANCH  45  47
ENDBRANCH   1  43
BRANCH   1  90
ATOM     90  C16 non d ame     -33.900  10.531  26.699  0.00  0.00    -0.035 C 
ATOM     91  H21 non d ame     -33.312  11.184  27.343  0.00  0.00     0.037 H 
ATOM     92  H22 non d ame     -34.884  10.849  26.355  0.00  0.00     0.037 H 
BRANCH  90  93
ATOM     93  C17 non d ame     -34.118   9.206  27.497  0.00  0.00    -0.059 C 
ATOM     94  H23 non d ame     -33.525   8.428  27.015  0.00  0.00     0.038 H 
BRANCH  93  95
ATOM     95  C18 non d ame     -33.636   9.324  28.978  0.00  0.00    -0.073 C 
ATOM     96  H24 non d ame     -33.215  10.315  29.146  0.00  0.00     0.028 H 
ATOM     97  H25 non d ame     -34.483   9.172  29.648  0.00  0.00     0.028 H 
ATOM     98  H26 non d ame     -32.877   8.568  29.175  0.00  0.00     0.028 H 
ENDBRANCH  93  95
BRANCH  93  99
ATOM     99  C19 non d ame     -35.582   8.764  27.434  0.00  0.00    -0.073 C 
ATOM    100  H27 non d ame     -35.908   8.732  26.394  0.00  0.00     0.028 H 
ATOM    101  H28 non d ame     -35.683   7.773  27.876  0.00  0.00     0.028 H 
ATOM    102  H29 non d ame     -36.199   9.472  27.987  0.00  0.00     0.028 H 
ENDBRANCH  93  99
ENDBRANCH  90  93
ENDBRANCH   1  90
TORSDOF 26
ENDMDL
MODEL 6
REMARK VINA RESULT:      -6.8      1.816      4.865
REMARK  26 active torsions:
REMARK  status: ('A' for Active; 'I' for Inactive)
REMARK    1  A    between atoms: C2_2  and  C3_3 
REMARK    2  A    between atoms: C4_6  and  C5_7 
REMARK       I    between atoms: C5_7  and  N2_9 
REMARK    3  A    between atoms: N2_9  and  C6_10 
REMARK    4  A    between atoms: C6_10  and  C7_11 
REMARK    5  A    between atoms: C6_10  and  C8_13 
REMARK       I    between atoms: C7_11  and  N3_14 
REMARK    6  A    between atoms: N3_14  and  C9_15 
REMARK    7  A    between atoms: C9_15  and  C10_16 
REMARK    8  A    between atoms: C9_15  and  C11_18 
REMARK       I    between atoms: C10_16  and  N4_21 
REMARK    9  A    between atoms: C11_18  and  C12_19 
REMARK   10  A    between atoms: C11_18  and  C13_20 
REMARK   11  A    between atoms: N4_21  and  C14_22 
REMARK   12  A    between atoms: C14_22  and  C15_23 
REMARK   13  A    between atoms: C14_22  and  C16_25 
REMARK       I    between atoms: C15_23  and  N6_40 
REMARK   14  A    between atoms: C16_25  and  C17_26 
REMARK   15  A    between atoms: C17_26  and  C18_27 
REMARK   16  A    between atoms: C17_26  and  C19_28 
REMARK   17  A    between atoms: C20_29  and  C21_30 
REMARK   18  A    between atoms: C20_29  and  C24_33 
REMARK   19  A    between atoms: C20_29  and  N6_40 
REMARK   20  A    between atoms: C21_30  and  C22_31 
REMARK   21  A    between atoms: C22_31  and  C23_32 
REMARK   22  A    between atoms: C23_32  and  O8_43 
REMARK   23  A    between atoms: C24_33  and  C25_34 
REMARK   24  A    between atoms: C28_38  and  O6_39 
REMARK   25  A    between atoms: C29_42  and  O8_43 
REMARK   26  A    between atoms: C29_42  and  C35_49 
ROOT
ATOM      1  C14 non d ame     -30.920  13.986  24.026  0.00  0.00     0.089 C 
ATOM      2  H20 non d ame     -29.898  14.116  24.384  0.00  0.00     0.087 H 
ENDROOT
BRANCH   1   3
ATOM      3  N4  non d ame     -31.247  12.573  24.144  0.00  0.00    -0.346 N 
ATOM      4  C10 non d ame     -30.547  11.553  23.281  0.00  0.00     0.241 C 
ATOM      5  O4  non d ame     -29.725  11.894  22.496  0.00  0.00    -0.271 OA
ATOM      6  H19 non d ame     -31.951  12.304  24.816  0.00  0.00     0.163 HD
BRANCH   4   7
ATOM      7  C9  non d ame     -30.895  10.095  23.421  0.00  0.00     0.092 C 
ATOM      8  H11 non d ame     -30.507   9.723  24.370  0.00  0.00     0.088 H 
BRANCH   7   9
ATOM      9  N3  non d ame     -32.352   9.941  23.458  0.00  0.00    -0.346 N 
ATOM     10  C7  non d ame     -33.037   9.867  24.725  0.00  0.00     0.240 C 
ATOM     11  O3  non d ame     -32.431   9.928  25.725  0.00  0.00    -0.271 OA
ATOM     12  H10 non d ame     -32.888   9.885  22.605  0.00  0.00     0.163 HD
BRANCH  10  13
ATOM     13  C6  non d ame     -34.588   9.700  24.758  0.00  0.00     0.086 C 
ATOM     14  H6  non d ame     -34.927   9.075  25.585  0.00  0.00     0.086 H 
BRANCH  13  15
ATOM     15  N2  non d ame     -35.198  11.005  24.946  0.00  0.00    -0.343 N 
ATOM     16  C5  non d ame     -35.760  11.358  26.253  0.00  0.00     0.273 C 
ATOM     17  O2  non d ame     -35.719  10.583  27.144  0.00  0.00    -0.266 OA
ATOM     18  H5  non d ame     -35.233  11.660  24.178  0.00  0.00     0.163 HD
BRANCH  16  19
ATOM     19  C4  non d ame     -36.407  12.735  26.466  0.00  0.00     0.154 A 
ATOM     20  C1  non d ame     -35.795  14.015  26.284  0.00  0.00    -0.017 A 
ATOM     21  C2  non d ame     -36.804  14.950  26.607  0.00  0.00     0.077 A 
ATOM     22  H1  non d ame     -34.775  14.233  25.968  0.00  0.00     0.091 H 
ATOM     23  O1  non d ame     -37.868  14.275  26.932  0.00  0.00    -0.218 OA
ATOM     24  N1  non d ame     -37.660  12.981  26.857  0.00  0.00    -0.123 NA
BRANCH  21  25
ATOM     25  C3  non d ame     -36.670  16.467  26.578  0.00  0.00    -0.029 C 
ATOM     26  H2  non d ame     -36.703  16.854  27.597  0.00  0.00     0.036 H 
ATOM     27  H3  non d ame     -35.721  16.739  26.118  0.00  0.00     0.036 H 
ATOM     28  H4  non d ame     -37.490  16.893  26.001  0.00  0.00     0.036 H 
ENDBRANCH  21  25
ENDBRANCH  16  19
ENDBRANCH  13  15
BRANCH  13  29
ATOM     29  C8  non d ame     -35.059   9.091  23.461  0.00  0.00    -0.049 C 
ATOM     30  H7  non d ame     -35.925   9.642  23.095  0.00  0.00     0.030 H 
ATOM     31  H8  non d ame     -34.257   9.144  22.724  0.00  0.00     0.030 H 
ATOM     32  H9  non d ame     -35.333   8.050  23.627  0.00  0.00     0.030 H 
ENDBRANCH  13  29
ENDBRANCH  10  13
ENDBRANCH   7   9
BRANCH   7  33
ATOM     33  C11 non d ame     -30.323   9.307  22.207  0.00  0.00    -0.033 C 
ATOM     34  H12 non d ame     -30.148  10.023  21.403  0.00  0.00     0.042 H 
BRANCH  33  35
ATOM     35  C12 non d ame     -28.953   8.645  22.552  0.00  0.00    -0.071 C 
ATOM     36  H13 non d ame     -29.124   7.669  23.007  0.00  0.00     0.028 H 
ATOM     37  H14 non d ame     -28.369   8.522  21.640  0.00  0.00     0.028 H 
ATOM     38  H15 non d ame     -28.408   9.280  23.250  0.00  0.00     0.028 H 
ENDBRANCH  33  35
BRANCH  33  39
ATOM     39  C13 non d ame     -31.350   8.247  21.694  0.00  0.00    -0.071 C 
ATOM     40  H16 non d ame     -30.873   7.607  20.951  0.00  0.00     0.028 H 
ATOM     41  H17 non d ame     -31.695   7.639  22.531  0.00  0.00     0.028 H 
ATOM     42  H18 non d ame     -32.201   8.755  21.242  0.00  0.00     0.028 H 
ENDBRANCH  33  39
ENDBRANCH   7  33
ENDBRANCH   4   7
ENDBRANCH   1   3
BRANCH   1  43
ATOM     43  C15 non d ame     -31.945  14.804  24.861  0.00  0.00     0.240 C 
ATOM     44  O5  non d ame     -32.857  15.338  24.318  0.00  0.00    -0.271 OA
ATOM     45  N6  non d ame     -31.795  14.914  26.340  0.00  0.00    -0.355 N 
ATOM     46  H46 non d ame     -31.026  14.460  26.813  0.00  0.00     0.162 HD
BRANCH  45  47
ATOM     47  C20 non d ame     -32.779  15.695  27.121  0.00  0.00     0.013 C 
ATOM     48  H30 non d ame     -33.757  15.556  26.662  0.00  0.00     0.072 H 
BRANCH  47  49
ATOM     49  C21 non d ame     -32.396  17.157  27.090  0.00  0.00    -0.038 C 
ATOM     50  H31 non d ame     -31.442  17.223  27.616  0.00  0.00     0.036 H 
ATOM     51  H32 non d ame     -32.464  17.456  26.044  0.00  0.00     0.036 H 
BRANCH  49  52
ATOM     52  C22 non d ame     -33.385  18.053  27.866  0.00  0.00     0.018 C 
ATOM     53  H33 non d ame     -34.346  17.931  27.369  0.00  0.00     0.048 H 
ATOM     54  H34 non d ame     -33.275  17.773  28.915  0.00  0.00     0.048 H 
BRANCH  52  55
ATOM     55  C23 non d ame     -33.051  19.568  27.789  0.00  0.00     0.259 C 
ATOM     56  O7  non d ame     -32.240  20.044  28.515  0.00  0.00    -0.265 OA
BRANCH  55  57
ATOM     57  O8  non d ame     -33.737  20.386  26.850  0.00  0.00    -0.317 OA
BRANCH  57  58
ATOM     58  C29 non d ame     -34.448  19.652  25.849  0.00  0.00     0.052 C 
ATOM     59  H47 non d ame     -34.029  19.971  24.895  0.00  0.00     0.082 H 
ATOM     60  H48 non d ame     -34.386  18.606  26.150  0.00  0.00     0.082 H 
BRANCH  58  61
ATOM     61  C35 non d ame     -35.937  20.088  25.901  0.00  0.00    -0.034 A 
ATOM     62  C30 non d ame     -36.796  19.761  24.856  0.00  0.00    -0.075 A 
ATOM     63  C31 non d ame     -38.133  20.153  24.902  0.00  0.00    -0.082 A 
ATOM     64  H49 non d ame     -36.421  19.198  24.001  0.00  0.00     0.084 H 
ATOM     65  C32 non d ame     -38.610  20.878  25.998  0.00  0.00    -0.083 A 
ATOM     66  H50 non d ame     -38.804  19.894  24.082  0.00  0.00     0.083 H 
ATOM     67  C33 non d ame     -37.749  21.205  27.036  0.00  0.00    -0.082 A 
ATOM     68  H51 non d ame     -39.654  21.188  26.042  0.00  0.00     0.083 H 
ATOM     69  C34 non d ame     -36.412  20.813  26.995  0.00  0.00    -0.075 A 
ATOM     70  H52 non d ame     -38.123  21.773  27.889  0.00  0.00     0.083 H 
ATOM     71  H53 non d ame     -35.742  21.073  27.815  0.00  0.00     0.084 H 
ENDBRANCH  58  61
ENDBRANCH  57  58
ENDBRANCH  55  57
ENDBRANCH  52  55
ENDBRANCH  49  52
ENDBRANCH  47  49
BRANCH  47  72
ATOM     72  C24 non d ame     -32.798  15.203  28.567  0.00  0.00    -0.039 C 
ATOM     73  H35 non d ame     -32.774  16.105  29.180  0.00  0.00     0.036 H 
ATOM     74  H36 non d ame     -33.647  14.523  28.631  0.00  0.00     0.036 H 
BRANCH  72  75
ATOM     75  C25 non d ame     -31.486  14.355  28.922  0.00  0.00    -0.001 C 
ATOM     76  C26 non d ame     -31.907  12.817  29.325  0.00  0.00    -0.035 C 
ATOM     77  C27 non d ame     -31.329  12.502  30.509  0.00  0.00     0.085 C 
ATOM     78  H38 non d ame     -32.974  12.765  29.540  0.00  0.00     0.036 H 
ATOM     79  H39 non d ame     -31.457  12.112  28.626  0.00  0.00     0.036 H 
ATOM     80  N5  non d ame     -30.823  13.791  31.109  0.00  0.00    -0.049 N 
ATOM     81  H40 non d ame     -32.134  12.112  31.132  0.00  0.00     0.075 H 
ATOM     82  H41 non d ame     -30.478  11.869  30.258  0.00  0.00     0.075 H 
ATOM     83  C28 non d ame     -30.846  14.877  29.915  0.00  0.00     0.193 C 
ATOM     84  H42 non d ame     -31.498  14.067  31.808  0.00  0.00     0.280 HD
ATOM     85  H43 non d ame     -29.862  13.625  31.375  0.00  0.00     0.280 HD
ATOM     86  H44 non d ame     -29.923  15.176  29.420  0.00  0.00     0.129 H 
ATOM     87  H37 non d ame     -30.702  14.475  28.176  0.00  0.00     0.046 H 
BRANCH  83  88
ATOM     88  O6  non d ame     -31.448  16.093  30.365  0.00  0.00    -0.369 OA
ATOM     89  H45 non d ame     -32.015  16.444  29.675  0.00  0.00     0.212 HD
ENDBRANCH  83  88
ENDBRANCH  72  75
ENDBRANCH  47  72
ENDBRANCH  45  47
ENDBRANCH   1  43
BRANCH   1  90
ATOM     90  C16 non d ame     -31.008  14.395  22.564  0.00  0.00    -0.035 C 
ATOM     91  H21 non d ame     -30.703  13.515  21.999  0.00  0.00     0.037 H 
ATOM     92  H22 non d ame     -32.011  14.802  22.439  0.00  0.00     0.037 H 
BRANCH  90  93
ATOM     93  C17 non d ame     -30.016  15.536  22.171  0.00  0.00    -0.059 C 
ATOM     94  H23 non d ame     -30.282  16.420  22.749  0.00  0.00     0.038 H 
BRANCH  93  95
ATOM     95  C18 non d ame     -28.536  15.172  22.510  0.00  0.00    -0.073 C 
ATOM     96  H24 non d ame     -27.868  15.669  21.806  0.00  0.00     0.028 H 
ATOM     97  H25 non d ame     -28.303  15.501  23.523  0.00  0.00     0.028 H 
ATOM     98  H26 non d ame     -28.401  14.093  22.439  0.00  0.00     0.028 H 
ENDBRANCH  93  95
BRANCH  93  99
ATOM     99  C19 non d ame     -30.162  15.900  20.691  0.00  0.00    -0.073 C 
ATOM    100  H27 non d ame     -30.994  16.594  20.567  0.00  0.00     0.028 H 
ATOM    101  H28 non d ame     -29.243  16.370  20.340  0.00  0.00     0.028 H 
ATOM    102  H29 non d ame     -30.352  14.997  20.111  0.00  0.00     0.028 H 
ENDBRANCH  93  99
ENDBRANCH  90  93
ENDBRANCH   1  90
TORSDOF 26
ENDMDL
MODEL 7
REMARK VINA RESULT:      -6.7      2.921      5.063
REMARK  26 active torsions:
REMARK  status: ('A' for Active; 'I' for Inactive)
REMARK    1  A    between atoms: C2_2  and  C3_3 
REMARK    2  A    between atoms: C4_6  and  C5_7 
REMARK       I    between atoms: C5_7  and  N2_9 
REMARK    3  A    between atoms: N2_9  and  C6_10 
REMARK    4  A    between atoms: C6_10  and  C7_11 
REMARK    5  A    between atoms: C6_10  and  C8_13 
REMARK       I    between atoms: C7_11  and  N3_14 
REMARK    6  A    between atoms: N3_14  and  C9_15 
REMARK    7  A    between atoms: C9_15  and  C10_16 
REMARK    8  A    between atoms: C9_15  and  C11_18 
REMARK       I    between atoms: C10_16  and  N4_21 
REMARK    9  A    between atoms: C11_18  and  C12_19 
REMARK   10  A    between atoms: C11_18  and  C13_20 
REMARK   11  A    between atoms: N4_21  and  C14_22 
REMARK   12  A    between atoms: C14_22  and  C15_23 
REMARK   13  A    between atoms: C14_22  and  C16_25 
REMARK       I    between atoms: C15_23  and  N6_40 
REMARK   14  A    between atoms: C16_25  and  C17_26 
REMARK   15  A    between atoms: C17_26  and  C18_27 
REMARK   16  A    between atoms: C17_26  and  C19_28 
REMARK   17  A    between atoms: C20_29  and  C21_30 
REMARK   18  A    between atoms: C20_29  and  C24_33 
REMARK   19  A    between atoms: C20_29  and  N6_40 
REMARK   20  A    between atoms: C21_30  and  C22_31 
REMARK   21  A    between atoms: C22_31  and  C23_32 
REMARK   22  A    between atoms: C23_32  and  O8_43 
REMARK   23  A    between atoms: C24_33  and  C25_34 
REMARK   24  A    between atoms: C28_38  and  O6_39 
REMARK   25  A    between atoms: C29_42  and  O8_43 
REMARK   26  A    between atoms: C29_42  and  C35_49 
ROOT
ATOM      1  C14 non d ame     -30.947  13.992  24.142  0.00  0.00     0.089 C 
ATOM      2  H20 non d ame     -29.945  13.572  24.234  0.00  0.00     0.087 H 
ENDROOT
BRANCH   1   3
ATOM      3  N4  non d ame     -31.895  12.898  24.292  0.00  0.00    -0.346 N 
ATOM      4  C10 non d ame     -31.461  11.592  24.907  0.00  0.00     0.241 C 
ATOM      5  O4  non d ame     -30.341  11.443  25.271  0.00  0.00    -0.271 OA
ATOM      6  H19 non d ame     -32.843  13.045  23.974  0.00  0.00     0.163 HD
BRANCH   4   7
ATOM      7  C9  non d ame     -32.457  10.473  25.060  0.00  0.00     0.092 C 
ATOM      8  H11 non d ame     -33.233  10.578  24.301  0.00  0.00     0.088 H 
BRANCH   7   9
ATOM      9  N3  non d ame     -31.791   9.189  24.825  0.00  0.00    -0.346 N 
ATOM     10  C7  non d ame     -31.830   8.586  23.515  0.00  0.00     0.240 C 
ATOM     11  O3  non d ame     -32.394   9.120  22.639  0.00  0.00    -0.271 OA
ATOM     12  H10 non d ame     -31.302   8.716  25.570  0.00  0.00     0.163 HD
BRANCH  10  13
ATOM     13  C6  non d ame     -31.122   7.217  23.272  0.00  0.00     0.086 C 
ATOM     14  H6  non d ame     -30.044   7.317  23.145  0.00  0.00     0.086 H 
BRANCH  13  15
ATOM     15  N2  non d ame     -31.327   6.368  24.434  0.00  0.00    -0.343 N 
ATOM     16  C5  non d ame     -32.691   6.049  24.863  0.00  0.00     0.273 C 
ATOM     17  O2  non d ame     -33.615   6.482  24.268  0.00  0.00    -0.266 OA
ATOM     18  H5  non d ame     -30.531   6.005  24.938  0.00  0.00     0.163 HD
BRANCH  16  19
ATOM     19  C4  non d ame     -32.922   5.151  26.088  0.00  0.00     0.154 A 
ATOM     20  C1  non d ame     -32.532   5.415  27.439  0.00  0.00    -0.017 A 
ATOM     21  C2  non d ame     -32.972   4.290  28.172  0.00  0.00     0.077 A 
ATOM     22  H1  non d ame     -32.009   6.288  27.829  0.00  0.00     0.091 H 
ATOM     23  O1  non d ame     -33.549   3.482  27.330  0.00  0.00    -0.218 OA
ATOM     24  N1  non d ame     -33.531   3.963  26.108  0.00  0.00    -0.123 NA
BRANCH  21  25
ATOM     25  C3  non d ame     -32.805   4.066  29.668  0.00  0.00    -0.029 C 
ATOM     26  H2  non d ame     -33.188   4.931  30.210  0.00  0.00     0.036 H 
ATOM     27  H3  non d ame     -33.359   3.177  29.967  0.00  0.00     0.036 H 
ATOM     28  H4  non d ame     -31.749   3.932  29.900  0.00  0.00     0.036 H 
ENDBRANCH  21  25
ENDBRANCH  16  19
ENDBRANCH  13  15
BRANCH  13  29
ATOM     29  C8  non d ame     -31.700   6.560  22.044  0.00  0.00    -0.049 C 
ATOM     30  H7  non d ame     -32.662   7.014  21.808  0.00  0.00     0.030 H 
ATOM     31  H8  non d ame     -31.018   6.698  21.204  0.00  0.00     0.030 H 
ATOM     32  H9  non d ame     -31.836   5.495  22.231  0.00  0.00     0.030 H 
ENDBRANCH  13  29
ENDBRANCH  10  13
ENDBRANCH   7   9
BRANCH   7  33
ATOM     33  C11 non d ame     -33.044  10.495  26.501  0.00  0.00    -0.033 C 
ATOM     34  H12 non d ame     -32.262  10.860  27.168  0.00  0.00     0.042 H 
BRANCH  33  35
ATOM     35  C12 non d ame     -34.251  11.478  26.611  0.00  0.00    -0.071 C 
ATOM     36  H13 non d ame     -33.894  12.503  26.513  0.00  0.00     0.028 H 
ATOM     37  H14 non d ame     -34.966  11.264  25.817  0.00  0.00     0.028 H 
ATOM     38  H15 non d ame     -34.735  11.353  27.579  0.00  0.00     0.028 H 
ENDBRANCH  33  35
BRANCH  33  39
ATOM     39  C13 non d ame     -33.440   9.057  26.966  0.00  0.00    -0.071 C 
ATOM     40  H16 non d ame     -32.943   8.320  26.334  0.00  0.00     0.028 H 
ATOM     41  H17 non d ame     -33.135   8.912  28.003  0.00  0.00     0.028 H 
ATOM     42  H18 non d ame     -34.520   8.934  26.886  0.00  0.00     0.028 H 
ENDBRANCH  33  39
ENDBRANCH   7  33
ENDBRANCH   4   7
ENDBRANCH   1   3
BRANCH   1  43
ATOM     43  C15 non d ame     -31.242  15.057  25.236  0.00  0.00     0.240 C 
ATOM     44  O5  non d ame     -30.918  16.188  25.063  0.00  0.00    -0.271 OA
ATOM     45  N6  non d ame     -31.937  14.670  26.496  0.00  0.00    -0.355 N 
ATOM     46  H46 non d ame     -32.221  13.714  26.652  0.00  0.00     0.162 HD
BRANCH  45  47
ATOM     47  C20 non d ame     -32.212  15.695  27.527  0.00  0.00     0.013 C 
ATOM     48  H30 non d ame     -31.573  16.555  27.324  0.00  0.00     0.072 H 
BRANCH  47  49
ATOM     49  C21 non d ame     -31.896  15.128  28.893  0.00  0.00    -0.038 C 
ATOM     50  H31 non d ame     -30.838  14.863  28.864  0.00  0.00     0.036 H 
ATOM     51  H32 non d ame     -32.253  15.868  29.608  0.00  0.00     0.036 H 
BRANCH  49  52
ATOM     52  C22 non d ame     -32.664  13.823  29.192  0.00  0.00     0.018 C 
ATOM     53  H33 non d ame     -33.041  13.929  30.209  0.00  0.00     0.048 H 
ATOM     54  H34 non d ame     -33.362  13.695  28.363  0.00  0.00     0.048 H 
BRANCH  52  55
ATOM     55  C23 non d ame     -31.767  12.555  29.197  0.00  0.00     0.259 C 
ATOM     56  O7  non d ame     -30.790  12.504  28.522  0.00  0.00    -0.265 OA
BRANCH  55  57
ATOM     57  O8  non d ame     -32.134  11.444  30.007  0.00  0.00    -0.317 OA
BRANCH  57  58
ATOM     58  C29 non d ame     -32.980  11.783  31.110  0.00  0.00     0.052 C 
ATOM     59  H47 non d ame     -32.325  11.833  31.979  0.00  0.00     0.082 H 
ATOM     60  H48 non d ame     -33.536  12.666  30.795  0.00  0.00     0.082 H 
BRANCH  58  61
ATOM     61  C35 non d ame     -33.985  10.619  31.319  0.00  0.00    -0.034 A 
ATOM     62  C30 non d ame     -34.884  10.657  32.380  0.00  0.00    -0.075 A 
ATOM     63  C31 non d ame     -35.787   9.610  32.568  0.00  0.00    -0.082 A 
ATOM     64  H49 non d ame     -34.880  11.504  33.066  0.00  0.00     0.084 H 
ATOM     65  C32 non d ame     -35.787   8.523  31.691  0.00  0.00    -0.083 A 
ATOM     66  H50 non d ame     -36.490   9.643  33.401  0.00  0.00     0.083 H 
ATOM     67  C33 non d ame     -34.887   8.489  30.635  0.00  0.00    -0.082 A 
ATOM     68  H51 non d ame     -36.490   7.702  31.830  0.00  0.00     0.083 H 
ATOM     69  C34 non d ame     -33.984   9.533  30.442  0.00  0.00    -0.075 A 
ATOM     70  H52 non d ame     -34.888   7.638  29.952  0.00  0.00     0.083 H 
ATOM     71  H53 non d ame     -33.281   9.499  29.609  0.00  0.00     0.084 H 
ENDBRANCH  58  61
ENDBRANCH  57  58
ENDBRANCH  55  57
ENDBRANCH  52  55
ENDBRANCH  49  52
ENDBRANCH  47  49
BRANCH  47  72
ATOM     72  C24 non d ame     -33.683  16.103  27.471  0.00  0.00    -0.039 C 
ATOM     73  H35 non d ame     -34.149  15.410  26.769  0.00  0.00     0.036 H 
ATOM     74  H36 non d ame     -34.015  16.132  28.509  0.00  0.00     0.036 H 
BRANCH  72  75
ATOM     75  C25 non d ame     -33.867  17.577  26.874  0.00  0.00    -0.001 C 
ATOM     76  C26 non d ame     -32.460  18.416  27.011  0.00  0.00    -0.035 C 
ATOM     77  C27 non d ame     -32.717  19.605  27.606  0.00  0.00     0.085 C 
ATOM     78  H38 non d ame     -31.794  17.917  27.714  0.00  0.00     0.036 H 
ATOM     79  H39 non d ame     -32.097  18.699  26.023  0.00  0.00     0.036 H 
ATOM     80  N5  non d ame     -34.109  19.518  28.184  0.00  0.00    -0.049 N 
ATOM     81  H40 non d ame     -31.998  19.684  28.422  0.00  0.00     0.075 H 
ATOM     82  H41 non d ame     -32.712  20.341  26.802  0.00  0.00     0.075 H 
ATOM     83  C28 non d ame     -34.792  18.224  27.502  0.00  0.00     0.193 C 
ATOM     84  H42 non d ame     -33.999  19.341  29.172  0.00  0.00     0.280 HD
ATOM     85  H43 non d ame     -34.600  20.344  27.871  0.00  0.00     0.280 HD
ATOM     86  H44 non d ame     -35.528  18.340  26.708  0.00  0.00     0.129 H 
ATOM     87  H37 non d ame     -34.348  17.570  25.896  0.00  0.00     0.046 H 
BRANCH  83  88
ATOM     88  O6  non d ame     -35.430  17.421  28.498  0.00  0.00    -0.369 OA
ATOM     89  H45 non d ame     -35.135  17.698  29.369  0.00  0.00     0.212 HD
ENDBRANCH  83  88
ENDBRANCH  72  75
ENDBRANCH  47  72
ENDBRANCH  45  47
ENDBRANCH   1  43
BRANCH   1  90
ATOM     90  C16 non d ame     -31.120  14.613  22.764  0.00  0.00    -0.035 C 
ATOM     91  H21 non d ame     -31.952  14.077  22.308  0.00  0.00     0.037 H 
ATOM     92  H22 non d ame     -31.193  15.686  22.939  0.00  0.00     0.037 H 
BRANCH  90  93
ATOM     93  C17 non d ame     -29.892  14.401  21.823  0.00  0.00    -0.059 C 
ATOM     94  H23 non d ame     -30.243  14.489  20.795  0.00  0.00     0.038 H 
BRANCH  93  95
ATOM     95  C18 non d ame     -28.787  15.483  22.044  0.00  0.00    -0.073 C 
ATOM     96  H24 non d ame     -28.910  15.934  23.029  0.00  0.00     0.028 H 
ATOM     97  H25 non d ame     -27.803  15.017  21.980  0.00  0.00     0.028 H 
ATOM     98  H26 non d ame     -28.874  16.253  21.278  0.00  0.00     0.028 H 
ENDBRANCH  93  95
BRANCH  93  99
ATOM     99  C19 non d ame     -29.314  12.993  21.987  0.00  0.00    -0.073 C 
ATOM    100  H27 non d ame     -28.232  13.055  22.107  0.00  0.00     0.028 H 
ATOM    101  H28 non d ame     -29.749  12.521  22.868  0.00  0.00     0.028 H 
ATOM    102  H29 non d ame     -29.549  12.398  21.105  0.00  0.00     0.028 H 
ENDBRANCH  93  99
ENDBRANCH  90  93
ENDBRANCH   1  90
TORSDOF 26
ENDMDL
MODEL 8
REMARK VINA RESULT:      -6.6      2.527      8.094
REMARK  26 active torsions:
REMARK  status: ('A' for Active; 'I' for Inactive)
REMARK    1  A    between atoms: C2_2  and  C3_3 
REMARK    2  A    between atoms: C4_6  and  C5_7 
REMARK       I    between atoms: C5_7  and  N2_9 
REMARK    3  A    between atoms: N2_9  and  C6_10 
REMARK    4  A    between atoms: C6_10  and  C7_11 
REMARK    5  A    between atoms: C6_10  and  C8_13 
REMARK       I    between atoms: C7_11  and  N3_14 
REMARK    6  A    between atoms: N3_14  and  C9_15 
REMARK    7  A    between atoms: C9_15  and  C10_16 
REMARK    8  A    between atoms: C9_15  and  C11_18 
REMARK       I    between atoms: C10_16  and  N4_21 
REMARK    9  A    between atoms: C11_18  and  C12_19 
REMARK   10  A    between atoms: C11_18  and  C13_20 
REMARK   11  A    between atoms: N4_21  and  C14_22 
REMARK   12  A    between atoms: C14_22  and  C15_23 
REMARK   13  A    between atoms: C14_22  and  C16_25 
REMARK       I    between atoms: C15_23  and  N6_40 
REMARK   14  A    between atoms: C16_25  and  C17_26 
REMARK   15  A    between atoms: C17_26  and  C18_27 
REMARK   16  A    between atoms: C17_26  and  C19_28 
REMARK   17  A    between atoms: C20_29  and  C21_30 
REMARK   18  A    between atoms: C20_29  and  C24_33 
REMARK   19  A    between atoms: C20_29  and  N6_40 
REMARK   20  A    between atoms: C21_30  and  C22_31 
REMARK   21  A    between atoms: C22_31  and  C23_32 
REMARK   22  A    between atoms: C23_32  and  O8_43 
REMARK   23  A    between atoms: C24_33  and  C25_34 
REMARK   24  A    between atoms: C28_38  and  O6_39 
REMARK   25  A    between atoms: C29_42  and  O8_43 
REMARK   26  A    between atoms: C29_42  and  C35_49 
ROOT
ATOM      1  C14 non d ame     -31.602  15.158  24.235  0.00  0.00     0.089 C 
ATOM      2  H20 non d ame     -32.550  15.186  23.698  0.00  0.00     0.087 H 
ENDROOT
BRANCH   1   3
ATOM      3  N4  non d ame     -31.763  15.942  25.450  0.00  0.00    -0.346 N 
ATOM      4  C10 non d ame     -33.095  16.569  25.781  0.00  0.00     0.241 C 
ATOM      5  O4  non d ame     -34.021  16.432  25.052  0.00  0.00    -0.271 OA
ATOM      6  H19 non d ame     -30.962  16.049  26.056  0.00  0.00     0.163 HD
BRANCH   4   7
ATOM      7  C9  non d ame     -33.245  17.373  27.046  0.00  0.00     0.092 C 
ATOM      8  H11 non d ame     -34.305  17.487  27.274  0.00  0.00     0.088 H 
BRANCH   7   9
ATOM      9  N3  non d ame     -32.637  16.645  28.163  0.00  0.00    -0.346 N 
ATOM     10  C7  non d ame     -32.958  15.256  28.379  0.00  0.00     0.240 C 
ATOM     11  O3  non d ame     -33.706  14.708  27.664  0.00  0.00    -0.271 OA
ATOM     12  H10 non d ame     -31.991  17.104  28.789  0.00  0.00     0.163 HD
BRANCH  10  13
ATOM     13  C6  non d ame     -32.309  14.487  29.571  0.00  0.00     0.086 C 
ATOM     14  H6  non d ame     -32.254  15.088  30.480  0.00  0.00     0.086 H 
BRANCH  13  15
ATOM     15  N2  non d ame     -33.130  13.330  29.888  0.00  0.00    -0.343 N 
ATOM     16  C5  non d ame     -32.574  12.256  30.715  0.00  0.00     0.273 C 
ATOM     17  O2  non d ame     -31.466  12.332  31.118  0.00  0.00    -0.266 OA
ATOM     18  H5  non d ame     -34.075  13.272  29.536  0.00  0.00     0.163 HD
BRANCH  16  19
ATOM     19  C4  non d ame     -33.431  11.028  31.058  0.00  0.00     0.154 A 
ATOM     20  C1  non d ame     -33.633   9.862  30.253  0.00  0.00    -0.017 A 
ATOM     21  C2  non d ame     -34.494   9.039  31.014  0.00  0.00     0.077 A 
ATOM     22  H1  non d ame     -33.221   9.646  29.268  0.00  0.00     0.091 H 
ATOM     23  O1  non d ame     -34.747   9.667  32.126  0.00  0.00    -0.218 OA
ATOM     24  N1  non d ame     -34.138  10.830  32.173  0.00  0.00    -0.123 NA
BRANCH  21  25
ATOM     25  C3  non d ame     -35.024   7.671  30.609  0.00  0.00    -0.029 C 
ATOM     26  H2  non d ame     -34.668   7.424  29.608  0.00  0.00     0.036 H 
ATOM     27  H3  non d ame     -34.669   6.920  31.315  0.00  0.00     0.036 H 
ATOM     28  H4  non d ame     -36.113   7.687  30.613  0.00  0.00     0.036 H 
ENDBRANCH  21  25
ENDBRANCH  16  19
ENDBRANCH  13  15
BRANCH  13  29
ATOM     29  C8  non d ame     -30.918  14.046  29.192  0.00  0.00    -0.049 C 
ATOM     30  H7  non d ame     -30.965  13.424  28.299  0.00  0.00     0.030 H 
ATOM     31  H8  non d ame     -30.302  14.923  28.991  0.00  0.00     0.030 H 
ATOM     32  H9  non d ame     -30.482  13.475  30.011  0.00  0.00     0.030 H 
ENDBRANCH  13  29
ENDBRANCH  10  13
ENDBRANCH   7   9
BRANCH   7  33
ATOM     33  C11 non d ame     -32.533  18.746  26.875  0.00  0.00    -0.033 C 
ATOM     34  H12 non d ame     -31.501  18.547  26.587  0.00  0.00     0.042 H 
BRANCH  33  35
ATOM     35  C12 non d ame     -33.185  19.588  25.733  0.00  0.00    -0.071 C 
ATOM     36  H13 non d ame     -33.900  20.290  26.162  0.00  0.00     0.028 H 
ATOM     37  H14 non d ame     -32.410  20.138  25.200  0.00  0.00     0.028 H 
ATOM     38  H15 non d ame     -33.701  18.922  25.040  0.00  0.00     0.028 H 
ENDBRANCH  33  35
BRANCH  33  39
ATOM     39  C13 non d ame     -32.515  19.538  28.222  0.00  0.00    -0.071 C 
ATOM     40  H16 non d ame     -32.632  20.603  28.019  0.00  0.00     0.028 H 
ATOM     41  H17 non d ame     -33.333  19.196  28.856  0.00  0.00     0.028 H 
ATOM     42  H18 non d ame     -31.567  19.367  28.731  0.00  0.00     0.028 H 
ENDBRANCH  33  39
ENDBRANCH   7  33
ENDBRANCH   4   7
ENDBRANCH   1   3
BRANCH   1  43
ATOM     43  C15 non d ame     -31.192  13.711  24.630  0.00  0.00     0.240 C 
ATOM     44  O5  non d ame     -30.733  13.500  25.706  0.00  0.00    -0.271 OA
ATOM     45  N6  non d ame     -31.382  12.586  23.672  0.00  0.00    -0.355 N 
ATOM     46  H46 non d ame     -31.776  12.752  22.756  0.00  0.00     0.162 HD
BRANCH  45  47
ATOM     47  C20 non d ame     -30.989  11.214  24.063  0.00  0.00     0.013 C 
ATOM     48  H30 non d ame     -30.408  11.281  24.983  0.00  0.00     0.072 H 
BRANCH  47  49
ATOM     49  C21 non d ame     -30.149  10.602  22.965  0.00  0.00    -0.038 C 
ATOM     50  H31 non d ame     -30.857  10.141  22.274  0.00  0.00     0.036 H 
ATOM     51  H32 non d ame     -29.491  11.399  22.620  0.00  0.00     0.036 H 
BRANCH  49  52
ATOM     52  C22 non d ame     -29.233   9.468  23.472  0.00  0.00     0.018 C 
ATOM     53  H33 non d ame     -28.277   9.938  23.698  0.00  0.00     0.048 H 
ATOM     54  H34 non d ame     -29.795   8.967  24.263  0.00  0.00     0.048 H 
BRANCH  52  55
ATOM     55  C23 non d ame     -28.934   8.379  22.405  0.00  0.00     0.259 C 
ATOM     56  O7  non d ame     -28.378   8.662  21.393  0.00  0.00    -0.265 OA
BRANCH  55  57
ATOM     57  O8  non d ame     -29.346   7.038  22.642  0.00  0.00    -0.317 OA
BRANCH  57  58
ATOM     58  C29 non d ame     -30.668   6.922  23.177  0.00  0.00     0.052 C 
ATOM     59  H47 non d ame     -30.659   6.022  23.791  0.00  0.00     0.082 H 
ATOM     60  H48 non d ame     -30.890   7.889  23.629  0.00  0.00     0.082 H 
BRANCH  58  61
ATOM     61  C35 non d ame     -31.646   6.699  21.993  0.00  0.00    -0.034 A 
ATOM     62  C30 non d ame     -32.515   7.714  21.606  0.00  0.00    -0.075 A 
ATOM     63  C31 non d ame     -33.394   7.514  20.542  0.00  0.00    -0.082 A 
ATOM     64  H49 non d ame     -32.508   8.666  22.136  0.00  0.00     0.084 H 
ATOM     65  C32 non d ame     -33.404   6.291  19.866  0.00  0.00    -0.083 A 
ATOM     66  H50 non d ame     -34.073   8.312  20.241  0.00  0.00     0.083 H 
ATOM     67  C33 non d ame     -32.537   5.279  20.258  0.00  0.00    -0.082 A 
ATOM     68  H51 non d ame     -34.087   6.126  19.033  0.00  0.00     0.083 H 
ATOM     69  C34 non d ame     -31.656   5.476  21.319  0.00  0.00    -0.075 A 
ATOM     70  H52 non d ame     -32.548   4.325  19.730  0.00  0.00     0.083 H 
ATOM     71  H53 non d ame     -30.978   4.677  21.619  0.00  0.00     0.084 H 
ENDBRANCH  58  61
ENDBRANCH  57  58
ENDBRANCH  55  57
ENDBRANCH  52  55
ENDBRANCH  49  52
ENDBRANCH  47  49
BRANCH  47  72
ATOM     72  C24 non d ame     -32.237  10.363  24.285  0.00  0.00    -0.039 C 
ATOM     73  H35 non d ame     -33.070  10.970  23.927  0.00  0.00     0.036 H 
ATOM     74  H36 non d ame     -32.022   9.404  23.814  0.00  0.00     0.036 H 
BRANCH  72  75
ATOM     75  C25 non d ame     -32.492  10.079  25.840  0.00  0.00    -0.001 C 
ATOM     76  C26 non d ame     -32.830   8.486  26.070  0.00  0.00    -0.035 C 
ATOM     77  C27 non d ame     -33.970   8.381  26.793  0.00  0.00     0.085 C 
ATOM     78  H38 non d ame     -33.086   8.017  25.120  0.00  0.00     0.036 H 
ATOM     79  H39 non d ame     -32.076   8.034  26.716  0.00  0.00     0.036 H 
ATOM     80  N5  non d ame     -34.617   9.745  26.797  0.00  0.00    -0.049 N 
ATOM     81  H40 non d ame     -34.604   7.689  26.239  0.00  0.00     0.075 H 
ATOM     82  H41 non d ame     -33.652   8.137  27.806  0.00  0.00     0.075 H 
ATOM     83  C28 non d ame     -33.484  10.776  26.287  0.00  0.00     0.193 C 
ATOM     84  H42 non d ame     -35.357   9.714  26.110  0.00  0.00     0.280 HD
ATOM     85  H43 non d ame     -34.833   9.956  27.761  0.00  0.00     0.280 HD
ATOM     86  H44 non d ame     -32.968  11.425  26.992  0.00  0.00     0.129 H 
ATOM     87  H37 non d ame     -31.722  10.519  26.472  0.00  0.00     0.046 H 
BRANCH  83  88
ATOM     88  O6  non d ame     -34.023  11.646  25.289  0.00  0.00    -0.369 OA
ATOM     89  H45 non d ame     -33.631  12.518  25.380  0.00  0.00     0.212 HD
ENDBRANCH  83  88
ENDBRANCH  72  75
ENDBRANCH  47  72
ENDBRANCH  45  47
ENDBRANCH   1  43
BRANCH   1  90
ATOM     90  C16 non d ame     -30.509  15.784  23.383  0.00  0.00    -0.035 C 
ATOM     91  H21 non d ame     -30.999  16.582  22.826  0.00  0.00     0.037 H 
ATOM     92  H22 non d ame     -29.702  16.020  24.076  0.00  0.00     0.037 H 
BRANCH  90  93
ATOM     93  C17 non d ame     -29.908  14.810  22.320  0.00  0.00    -0.059 C 
ATOM     94  H23 non d ame     -30.320  13.819  22.507  0.00  0.00     0.038 H 
BRANCH  93  95
ATOM     95  C18 non d ame     -30.293  15.219  20.862  0.00  0.00    -0.073 C 
ATOM     96  H24 non d ame     -30.299  14.335  20.226  0.00  0.00     0.028 H 
ATOM     97  H25 non d ame     -31.284  15.672  20.862  0.00  0.00     0.028 H 
ATOM     98  H26 non d ame     -29.566  15.936  20.481  0.00  0.00     0.028 H 
ENDBRANCH  93  95
BRANCH  93  99
ATOM     99  C19 non d ame     -28.388  14.706  22.472  0.00  0.00    -0.073 C 
ATOM    100  H27 non d ame     -27.921  14.727  21.487  0.00  0.00     0.028 H 
ATOM    101  H28 non d ame     -28.023  15.546  23.063  0.00  0.00     0.028 H 
ATOM    102  H29 non d ame     -28.136  13.773  22.975  0.00  0.00     0.028 H 
ENDBRANCH  93  99
ENDBRANCH  90  93
ENDBRANCH   1  90
TORSDOF 26
ENDMDL
MODEL 9
REMARK VINA RESULT:      -6.6      3.467      8.487
REMARK  26 active torsions:
REMARK  status: ('A' for Active; 'I' for Inactive)
REMARK    1  A    between atoms: C2_2  and  C3_3 
REMARK    2  A    between atoms: C4_6  and  C5_7 
REMARK       I    between atoms: C5_7  and  N2_9 
REMARK    3  A    between atoms: N2_9  and  C6_10 
REMARK    4  A    between atoms: C6_10  and  C7_11 
REMARK    5  A    between atoms: C6_10  and  C8_13 
REMARK       I    between atoms: C7_11  and  N3_14 
REMARK    6  A    between atoms: N3_14  and  C9_15 
REMARK    7  A    between atoms: C9_15  and  C10_16 
REMARK    8  A    between atoms: C9_15  and  C11_18 
REMARK       I    between atoms: C10_16  and  N4_21 
REMARK    9  A    between atoms: C11_18  and  C12_19 
REMARK   10  A    between atoms: C11_18  and  C13_20 
REMARK   11  A    between atoms: N4_21  and  C14_22 
REMARK   12  A    between atoms: C14_22  and  C15_23 
REMARK   13  A    between atoms: C14_22  and  C16_25 
REMARK       I    between atoms: C15_23  and  N6_40 
REMARK   14  A    between atoms: C16_25  and  C17_26 
REMARK   15  A    between atoms: C17_26  and  C18_27 
REMARK   16  A    between atoms: C17_26  and  C19_28 
REMARK   17  A    between atoms: C20_29  and  C21_30 
REMARK   18  A    between atoms: C20_29  and  C24_33 
REMARK   19  A    between atoms: C20_29  and  N6_40 
REMARK   20  A    between atoms: C21_30  and  C22_31 
REMARK   21  A    between atoms: C22_31  and  C23_32 
REMARK   22  A    between atoms: C23_32  and  O8_43 
REMARK   23  A    between atoms: C24_33  and  C25_34 
REMARK   24  A    between atoms: C28_38  and  O6_39 
REMARK   25  A    between atoms: C29_42  and  O8_43 
REMARK   26  A    between atoms: C29_42  and  C35_49 
ROOT
ATOM      1  C14 non d ame     -33.129  10.080  29.722  0.00  0.00     0.089 C 
ATOM      2  H20 non d ame     -32.267   9.446  29.512  0.00  0.00     0.087 H 
ENDROOT
BRANCH   1   3
ATOM      3  N4  non d ame     -33.620  10.585  28.449  0.00  0.00    -0.346 N 
ATOM      4  C10 non d ame     -33.039  10.080  27.153  0.00  0.00     0.241 C 
ATOM      5  O4  non d ame     -32.173   9.269  27.159  0.00  0.00    -0.271 OA
ATOM      6  H19 non d ame     -34.357  11.277  28.466  0.00  0.00     0.163 HD
BRANCH   4   7
ATOM      7  C9  non d ame     -33.564  10.611  25.845  0.00  0.00     0.092 C 
ATOM      8  H11 non d ame     -34.651  10.678  25.896  0.00  0.00     0.088 H 
BRANCH   7   9
ATOM      9  N3  non d ame     -33.055  11.967  25.627  0.00  0.00    -0.346 N 
ATOM     10  C7  non d ame     -33.737  13.095  26.213  0.00  0.00     0.240 C 
ATOM     11  O3  non d ame     -34.697  12.929  26.862  0.00  0.00    -0.271 OA
ATOM     12  H10 non d ame     -32.230  12.127  25.069  0.00  0.00     0.163 HD
BRANCH  10  13
ATOM     13  C6  non d ame     -33.192  14.538  25.975  0.00  0.00     0.086 C 
ATOM     14  H6  non d ame     -32.428  14.825  26.698  0.00  0.00     0.086 H 
BRANCH  13  15
ATOM     15  N2  non d ame     -32.566  14.595  24.665  0.00  0.00    -0.343 N 
ATOM     16  C5  non d ame     -31.423  15.486  24.450  0.00  0.00     0.273 C 
ATOM     17  O2  non d ame     -31.017  16.154  25.336  0.00  0.00    -0.266 OA
ATOM     18  H5  non d ame     -32.922  14.023  23.912  0.00  0.00     0.163 HD
BRANCH  16  19
ATOM     19  C4  non d ame     -30.750  15.555  23.070  0.00  0.00     0.154 A 
ATOM     20  C1  non d ame     -31.394  15.688  21.799  0.00  0.00    -0.017 A 
ATOM     21  C2  non d ame     -30.342  15.702  20.857  0.00  0.00     0.077 A 
ATOM     22  H1  non d ame     -32.462  15.762  21.592  0.00  0.00     0.091 H 
ATOM     23  O1  non d ame     -29.227  15.592  21.520  0.00  0.00    -0.218 OA
ATOM     24  N1  non d ame     -29.440  15.504  22.813  0.00  0.00    -0.123 NA
BRANCH  21  25
ATOM     25  C3  non d ame     -30.486  15.825  19.346  0.00  0.00    -0.029 C 
ATOM     26  H2  non d ame     -30.943  14.919  18.949  0.00  0.00     0.036 H 
ATOM     27  H3  non d ame     -31.116  16.683  19.110  0.00  0.00     0.036 H 
ATOM     28  H4  non d ame     -29.503  15.962  18.897  0.00  0.00     0.036 H 
ENDBRANCH  21  25
ENDBRANCH  16  19
ENDBRANCH  13  15
BRANCH  13  29
ATOM     29  C8  non d ame     -34.329  15.526  26.048  0.00  0.00    -0.049 C 
ATOM     30  H7  non d ame     -34.016  16.473  25.610  0.00  0.00     0.030 H 
ATOM     31  H8  non d ame     -35.184  15.136  25.495  0.00  0.00     0.030 H 
ATOM     32  H9  non d ame     -34.610  15.681  27.089  0.00  0.00     0.030 H 
ENDBRANCH  13  29
ENDBRANCH  10  13
ENDBRANCH   7   9
BRANCH   7  33
ATOM     33  C11 non d ame     -33.090   9.689  24.684  0.00  0.00    -0.033 C 
ATOM     34  H12 non d ame     -32.727   8.761  25.128  0.00  0.00     0.042 H 
BRANCH  33  35
ATOM     35  C12 non d ame     -34.269   9.321  23.730  0.00  0.00    -0.071 C 
ATOM     36  H13 non d ame     -34.217   9.938  22.833  0.00  0.00     0.028 H 
ATOM     37  H14 non d ame     -34.197   8.270  23.453  0.00  0.00     0.028 H 
ATOM     38  H15 non d ame     -35.217   9.500  24.238  0.00  0.00     0.028 H 
ENDBRANCH  33  35
BRANCH  33  39
ATOM     39  C13 non d ame     -31.908  10.342  23.898  0.00  0.00    -0.071 C 
ATOM     40  H16 non d ame     -31.082  10.540  24.581  0.00  0.00     0.028 H 
ATOM     41  H17 non d ame     -31.575   9.664  23.111  0.00  0.00     0.028 H 
ATOM     42  H18 non d ame     -32.242  11.278  23.451  0.00  0.00     0.028 H 
ENDBRANCH  33  39
ENDBRANCH   7  33
ENDBRANCH   4   7
ENDBRANCH   1   3
BRANCH   1  43
ATOM     43  C15 non d ame     -34.277   9.299  30.422  0.00  0.00     0.240 C 
ATOM     44  O5  non d ame     -34.417   9.383  31.599  0.00  0.00    -0.271 OA
ATOM     45  N6  non d ame     -35.210   8.454  29.624  0.00  0.00    -0.355 N 
ATOM     46  H46 non d ame     -35.104   8.380  28.622  0.00  0.00     0.162 HD
BRANCH  45  47
ATOM     47  C20 non d ame     -36.299   7.718  30.303  0.00  0.00     0.013 C 
ATOM     48  H30 non d ame     -36.092   7.727  31.374  0.00  0.00     0.072 H 
BRANCH  47  49
ATOM     49  C21 non d ame     -36.333   6.295  29.796  0.00  0.00    -0.038 C 
ATOM     50  H31 non d ame     -37.127   5.801  30.357  0.00  0.00     0.036 H 
ATOM     51  H32 non d ame     -36.398   6.371  28.711  0.00  0.00     0.036 H 
BRANCH  49  52
ATOM     52  C22 non d ame     -35.035   5.517  30.102  0.00  0.00     0.018 C 
ATOM     53  H33 non d ame     -34.426   6.186  30.709  0.00  0.00     0.048 H 
ATOM     54  H34 non d ame     -35.355   4.556  30.506  0.00  0.00     0.048 H 
BRANCH  52  55
ATOM     55  C23 non d ame     -34.187   5.191  28.842  0.00  0.00     0.259 C 
ATOM     56  O7  non d ame     -33.519   4.209  28.801  0.00  0.00    -0.265 OA
BRANCH  55  57
ATOM     57  O8  non d ame     -34.206   6.089  27.738  0.00  0.00    -0.317 OA
BRANCH  57  58
ATOM     58  C29 non d ame     -34.779   5.537  26.549  0.00  0.00     0.052 C 
ATOM     59  H47 non d ame     -34.866   4.467  26.733  0.00  0.00     0.082 H 
ATOM     60  H48 non d ame     -35.671   6.130  26.348  0.00  0.00     0.082 H 
BRANCH  58  61
ATOM     61  C35 non d ame     -33.774   5.755  25.386  0.00  0.00    -0.034 A 
ATOM     62  C30 non d ame     -32.455   6.100  25.662  0.00  0.00    -0.075 A 
ATOM     63  C31 non d ame     -31.552   6.296  24.617  0.00  0.00    -0.082 A 
ATOM     64  H49 non d ame     -32.128   6.218  26.695  0.00  0.00     0.084 H 
ATOM     65  C32 non d ame     -31.973   6.148  23.293  0.00  0.00    -0.083 A 
ATOM     66  H50 non d ame     -30.518   6.566  24.837  0.00  0.00     0.083 H 
ATOM     67  C33 non d ame     -33.291   5.806  23.023  0.00  0.00    -0.082 A 
ATOM     68  H51 non d ame     -31.273   6.298  22.472  0.00  0.00     0.083 H 
ATOM     69  C34 non d ame     -34.196   5.607  24.064  0.00  0.00    -0.075 A 
ATOM     70  H52 non d ame     -33.618   5.693  21.989  0.00  0.00     0.083 H 
ATOM     71  H53 non d ame     -35.230   5.338  23.843  0.00  0.00     0.084 H 
ENDBRANCH  58  61
ENDBRANCH  57  58
ENDBRANCH  55  57
ENDBRANCH  52  55
ENDBRANCH  49  52
ENDBRANCH  47  49
BRANCH  47  72
ATOM     72  C24 non d ame     -37.637   8.395  30.016  0.00  0.00    -0.039 C 
ATOM     73  H35 non d ame     -37.467   9.009  29.131  0.00  0.00     0.036 H 
ATOM     74  H36 non d ame     -38.369   7.588  29.988  0.00  0.00     0.036 H 
BRANCH  72  75
ATOM     75  C25 non d ame     -38.068   9.383  31.201  0.00  0.00    -0.001 C 
ATOM     76  C26 non d ame     -39.649   9.141  31.584  0.00  0.00    -0.035 C 
ATOM     77  C27 non d ame     -40.288  10.335  31.576  0.00  0.00     0.085 C 
ATOM     78  H38 non d ame     -40.144   8.581  30.791  0.00  0.00     0.036 H 
ATOM     79  H39 non d ame     -39.736   8.813  32.620  0.00  0.00     0.036 H 
ATOM     80  N5  non d ame     -39.366  11.324  30.904  0.00  0.00    -0.049 N 
ATOM     81  H40 non d ame     -41.169  10.190  30.950  0.00  0.00     0.075 H 
ATOM     82  H41 non d ame     -40.402  10.612  32.623  0.00  0.00     0.075 H 
ATOM     83  C28 non d ame     -37.914  10.619  30.859  0.00  0.00     0.193 C 
ATOM     84  H42 non d ame     -39.701  11.431  29.957  0.00  0.00     0.280 HD
ATOM     85  H43 non d ame     -39.315  12.127  31.515  0.00  0.00     0.280 HD
ATOM     86  H44 non d ame     -37.131  10.920  31.552  0.00  0.00     0.129 H 
ATOM     87  H37 non d ame     -37.353   9.379  32.023  0.00  0.00     0.046 H 
BRANCH  83  88
ATOM     88  O6  non d ame     -37.343  10.750  29.556  0.00  0.00    -0.369 OA
ATOM     89  H45 non d ame     -38.011  11.064  28.943  0.00  0.00     0.212 HD
ENDBRANCH  83  88
ENDBRANCH  72  75
ENDBRANCH  47  72
ENDBRANCH  45  47
ENDBRANCH   1  43
BRANCH   1  90
ATOM     90  C16 non d ame     -32.705  11.253  30.591  0.00  0.00    -0.035 C 
ATOM     91  H21 non d ame     -33.603  11.856  30.721  0.00  0.00     0.037 H 
ATOM     92  H22 non d ame     -32.217  10.808  31.459  0.00  0.00     0.037 H 
BRANCH  90  93
ATOM     93  C17 non d ame     -31.645  12.182  29.917  0.00  0.00    -0.059 C 
ATOM     94  H23 non d ame     -31.402  11.755  28.944  0.00  0.00     0.038 H 
BRANCH  93  95
ATOM     95  C18 non d ame     -32.192  13.626  29.682  0.00  0.00    -0.073 C 
ATOM     96  H24 non d ame     -33.229  13.680  30.011  0.00  0.00     0.028 H 
ATOM     97  H25 non d ame     -31.594  14.338  30.252  0.00  0.00     0.028 H 
ATOM     98  H26 non d ame     -32.133  13.869  28.622  0.00  0.00     0.028 H 
ENDBRANCH  93  95
BRANCH  93  99
ATOM     99  C19 non d ame     -30.350  12.216  30.734  0.00  0.00    -0.073 C 
ATOM    100  H27 non d ame     -29.832  13.159  30.555  0.00  0.00     0.028 H 
ATOM    101  H28 non d ame     -30.587  12.129  31.794  0.00  0.00     0.028 H 
ATOM    102  H29 non d ame     -29.710  11.387  30.436  0.00  0.00     0.028 H 
ENDBRANCH  93  99
ENDBRANCH  90  93
ENDBRANCH   1  90
TORSDOF 26
ENDMDL
MODEL 10
REMARK VINA RESULT:      -6.6      3.849      9.946
REMARK  26 active torsions:
REMARK  status: ('A' for Active; 'I' for Inactive)
REMARK    1  A    between atoms: C2_2  and  C3_3 
REMARK    2  A    between atoms: C4_6  and  C5_7 
REMARK       I    between atoms: C5_7  and  N2_9 
REMARK    3  A    between atoms: N2_9  and  C6_10 
REMARK    4  A    between atoms: C6_10  and  C7_11 
REMARK    5  A    between atoms: C6_10  and  C8_13 
REMARK       I    between atoms: C7_11  and  N3_14 
REMARK    6  A    between atoms: N3_14  and  C9_15 
REMARK    7  A    between atoms: C9_15  and  C10_16 
REMARK    8  A    between atoms: C9_15  and  C11_18 
REMARK       I    between atoms: C10_16  and  N4_21 
REMARK    9  A    between atoms: C11_18  and  C12_19 
REMARK   10  A    between atoms: C11_18  and  C13_20 
REMARK   11  A    between atoms: N4_21  and  C14_22 
REMARK   12  A    between atoms: C14_22  and  C15_23 
REMARK   13  A    between atoms: C14_22  and  C16_25 
REMARK       I    between atoms: C15_23  and  N6_40 
REMARK   14  A    between atoms: C16_25  and  C17_26 
REMARK   15  A    between atoms: C17_26  and  C18_27 
REMARK   16  A    between atoms: C17_26  and  C19_28 
REMARK   17  A    between atoms: C20_29  and  C21_30 
REMARK   18  A    between atoms: C20_29  and  C24_33 
REMARK   19  A    between atoms: C20_29  and  N6_40 
REMARK   20  A    between atoms: C21_30  and  C22_31 
REMARK   21  A    between atoms: C22_31  and  C23_32 
REMARK   22  A    between atoms: C23_32  and  O8_43 
REMARK   23  A    between atoms: C24_33  and  C25_34 
REMARK   24  A    between atoms: C28_38  and  O6_39 
REMARK   25  A    between atoms: C29_42  and  O8_43 
REMARK   26  A    between atoms: C29_42  and  C35_49 
ROOT
ATOM      1  C14 non d ame     -35.043   8.060  30.634  0.00  0.00     0.089 C 
ATOM      2  H20 non d ame     -34.911   8.307  31.688  0.00  0.00     0.087 H 
ENDROOT
BRANCH   1   3
ATOM      3  N4  non d ame     -34.108   8.875  29.873  0.00  0.00    -0.346 N 
ATOM      4  C10 non d ame     -33.521  10.126  30.477  0.00  0.00     0.241 C 
ATOM      5  O4  non d ame     -33.819  10.459  31.577  0.00  0.00    -0.271 OA
ATOM      6  H19 non d ame     -33.870   8.576  28.938  0.00  0.00     0.163 HD
BRANCH   4   7
ATOM      7  C9  non d ame     -32.551  10.954  29.677  0.00  0.00     0.092 C 
ATOM      8  H11 non d ame     -31.732  10.319  29.337  0.00  0.00     0.088 H 
BRANCH   7   9
ATOM      9  N3  non d ame     -33.221  11.475  28.483  0.00  0.00    -0.346 N 
ATOM     10  C7  non d ame     -33.068  10.799  27.218  0.00  0.00     0.240 C 
ATOM     11  O3  non d ame     -32.408   9.835  27.143  0.00  0.00    -0.271 OA
ATOM     12  H10 non d ame     -33.792  12.306  28.531  0.00  0.00     0.163 HD
BRANCH  10  13
ATOM     13  C6  non d ame     -33.781  11.360  25.948  0.00  0.00     0.086 C 
ATOM     14  H6  non d ame     -34.606  12.031  26.190  0.00  0.00     0.086 H 
BRANCH  13  15
ATOM     15  N2  non d ame     -32.826  12.137  25.176  0.00  0.00    -0.343 N 
ATOM     16  C5  non d ame     -32.570  13.533  25.540  0.00  0.00     0.273 C 
ATOM     17  O2  non d ame     -33.140  14.022  26.453  0.00  0.00    -0.266 OA
ATOM     18  H5  non d ame     -32.347  11.713  24.395  0.00  0.00     0.163 HD
BRANCH  16  19
ATOM     19  C4  non d ame     -31.562  14.366  24.733  0.00  0.00     0.154 A 
ATOM     20  C1  non d ame     -30.703  13.906  23.685  0.00  0.00    -0.017 A 
ATOM     21  C2  non d ame     -29.982  15.051  23.277  0.00  0.00     0.077 A 
ATOM     22  H1  non d ame     -30.614  12.897  23.283  0.00  0.00     0.091 H 
ATOM     23  O1  non d ame     -30.390  16.046  24.010  0.00  0.00    -0.218 OA
ATOM     24  N1  non d ame     -31.311  15.671  24.867  0.00  0.00    -0.123 NA
BRANCH  21  25
ATOM     25  C3  non d ame     -28.925  15.108  22.182  0.00  0.00    -0.029 C 
ATOM     26  H2  non d ame     -29.337  14.701  21.258  0.00  0.00     0.036 H 
ATOM     27  H3  non d ame     -28.626  16.143  22.020  0.00  0.00     0.036 H 
ATOM     28  H4  non d ame     -28.058  14.521  22.482  0.00  0.00     0.036 H 
ENDBRANCH  21  25
ENDBRANCH  16  19
ENDBRANCH  13  15
BRANCH  13  29
ATOM     29  C8  non d ame     -34.308  10.217  25.118  0.00  0.00    -0.049 C 
ATOM     30  H7  non d ame     -34.784   9.484  25.769  0.00  0.00     0.030 H 
ATOM     31  H8  non d ame     -35.039  10.595  24.403  0.00  0.00     0.030 H 
ATOM     32  H9  non d ame     -33.484   9.747  24.582  0.00  0.00     0.030 H 
ENDBRANCH  13  29
ENDBRANCH  10  13
ENDBRANCH   7   9
BRANCH   7  33
ATOM     33  C11 non d ame     -32.045  12.143  30.545  0.00  0.00    -0.033 C 
ATOM     34  H12 non d ame     -32.628  12.148  31.467  0.00  0.00     0.042 H 
BRANCH  33  35
ATOM     35  C12 non d ame     -30.546  11.963  30.940  0.00  0.00    -0.071 C 
ATOM     36  H13 non d ame     -29.912  12.285  30.114  0.00  0.00     0.028 H 
ATOM     37  H14 non d ame     -30.328  12.565  31.821  0.00  0.00     0.028 H 
ATOM     38  H15 non d ame     -30.351  10.913  31.159  0.00  0.00     0.028 H 
ENDBRANCH  33  35
BRANCH  33  39
ATOM     39  C13 non d ame     -32.280  13.506  29.818  0.00  0.00    -0.071 C 
ATOM     40  H16 non d ame     -32.559  14.265  30.550  0.00  0.00     0.028 H 
ATOM     41  H17 non d ame     -31.364  13.810  29.311  0.00  0.00     0.028 H 
ATOM     42  H18 non d ame     -33.079  13.395  29.086  0.00  0.00     0.028 H 
ENDBRANCH  33  39
ENDBRANCH   7  33
ENDBRANCH   4   7
ENDBRANCH   1   3
BRANCH   1  43
ATOM     43  C15 non d ame     -34.748   6.562  30.340  0.00  0.00     0.240 C 
ATOM     44  O5  non d ame     -34.936   5.746  31.183  0.00  0.00    -0.271 OA
ATOM     45  N6  non d ame     -34.239   6.142  29.003  0.00  0.00    -0.355 N 
ATOM     46  H46 non d ame     -34.080   6.827  28.277  0.00  0.00     0.162 HD
BRANCH  45  47
ATOM     47  C20 non d ame     -33.965   4.713  28.738  0.00  0.00     0.013 C 
ATOM     48  H30 non d ame     -33.867   4.207  29.698  0.00  0.00     0.072 H 
BRANCH  47  49
ATOM     49  C21 non d ame     -32.677   4.589  27.955  0.00  0.00    -0.038 C 
ATOM     50  H31 non d ame     -31.908   4.342  28.689  0.00  0.00     0.036 H 
ATOM     51  H32 non d ame     -32.894   3.898  27.140  0.00  0.00     0.036 H 
BRANCH  49  52
ATOM     52  C22 non d ame     -32.243   5.917  27.299  0.00  0.00     0.018 C 
ATOM     53  H33 non d ame     -32.860   6.688  27.758  0.00  0.00     0.048 H 
ATOM     54  H34 non d ame     -31.157   5.956  27.402  0.00  0.00     0.048 H 
BRANCH  52  55
ATOM     55  C23 non d ame     -32.532   5.987  25.774  0.00  0.00     0.259 C 
ATOM     56  O7  non d ame     -32.682   4.992  25.142  0.00  0.00    -0.265 OA
BRANCH  55  57
ATOM     57  O8  non d ame     -32.601   7.256  25.135  0.00  0.00    -0.317 OA
BRANCH  57  58
ATOM     58  C29 non d ame     -32.623   7.187  23.706  0.00  0.00     0.052 C 
ATOM     59  H47 non d ame     -32.593   6.125  23.462  0.00  0.00     0.082 H 
ATOM     60  H48 non d ame     -33.473   7.794  23.395  0.00  0.00     0.082 H 
BRANCH  58  61
ATOM     61  C35 non d ame     -31.325   7.850  23.174  0.00  0.00    -0.034 A 
ATOM     62  C30 non d ame     -31.294   9.218  22.922  0.00  0.00    -0.075 A 
ATOM     63  C31 non d ame     -30.128   9.814  22.443  0.00  0.00    -0.082 A 
ATOM     64  H49 non d ame     -32.183   9.823  23.098  0.00  0.00     0.084 H 
ATOM     65  C32 non d ame     -28.990   9.036  22.214  0.00  0.00    -0.083 A 
ATOM     66  H50 non d ame     -30.107  10.887  22.248  0.00  0.00     0.083 H 
ATOM     67  C33 non d ame     -29.026   7.671  22.464  0.00  0.00    -0.082 A 
ATOM     68  H51 non d ame     -28.074   9.494  21.841  0.00  0.00     0.083 H 
ATOM     69  C34 non d ame     -30.189   7.072  22.945  0.00  0.00    -0.075 A 
ATOM     70  H52 non d ame     -28.137   7.066  22.283  0.00  0.00     0.083 H 
ATOM     71  H53 non d ame     -30.209   5.999  23.140  0.00  0.00     0.084 H 
ENDBRANCH  58  61
ENDBRANCH  57  58
ENDBRANCH  55  57
ENDBRANCH  52  55
ENDBRANCH  49  52
ENDBRANCH  47  49
BRANCH  47  72
ATOM     72  C24 non d ame     -35.112   4.107  27.933  0.00  0.00    -0.039 C 
ATOM     73  H35 non d ame     -34.642   3.640  27.066  0.00  0.00     0.036 H 
ATOM     74  H36 non d ame     -35.673   3.499  28.641  0.00  0.00     0.036 H 
BRANCH  72  75
ATOM     75  C25 non d ame     -36.110   5.233  27.382  0.00  0.00    -0.001 C 
ATOM     76  C26 non d ame     -37.577   5.083  28.108  0.00  0.00    -0.035 C 
ATOM     77  C27 non d ame     -38.536   5.051  27.152  0.00  0.00     0.085 C 
ATOM     78  H38 non d ame     -37.660   4.108  28.586  0.00  0.00     0.036 H 
ATOM     79  H39 non d ame     -37.810   5.988  28.670  0.00  0.00     0.036 H 
ATOM     80  N5  non d ame     -37.835   4.833  25.832  0.00  0.00    -0.049 N 
ATOM     81  H40 non d ame     -39.144   4.175  27.379  0.00  0.00     0.075 H 
ATOM     82  H41 non d ame     -38.986   6.043  27.156  0.00  0.00     0.075 H 
ATOM     83  C28 non d ame     -36.272   5.130  26.105  0.00  0.00     0.193 C 
ATOM     84  H42 non d ame     -37.943   3.854  25.608  0.00  0.00     0.280 HD
ATOM     85  H43 non d ame     -38.191   5.537  25.201  0.00  0.00     0.280 HD
ATOM     86  H44 non d ame     -35.819   6.062  25.772  0.00  0.00     0.129 H 
ATOM     87  H37 non d ame     -35.655   6.223  27.382  0.00  0.00     0.046 H 
BRANCH  83  88
ATOM     88  O6  non d ame     -35.468   4.092  25.541  0.00  0.00    -0.369 OA
ATOM     89  H45 non d ame     -35.049   4.411  24.739  0.00  0.00     0.212 HD
ENDBRANCH  83  88
ENDBRANCH  72  75
ENDBRANCH  47  72
ENDBRANCH  45  47
ENDBRANCH   1  43
BRANCH   1  90
ATOM     90  C16 non d ame     -36.461   8.396  30.201  0.00  0.00    -0.035 C 
ATOM     91  H21 non d ame     -36.352   9.108  29.383  0.00  0.00     0.037 H 
ATOM     92  H22 non d ame     -36.945   7.436  30.026  0.00  0.00     0.037 H 
BRANCH  90  93
ATOM     93  C17 non d ame     -37.299   9.118  31.304  0.00  0.00    -0.059 C 
ATOM     94  H23 non d ame     -36.793   8.968  32.257  0.00  0.00     0.038 H 
BRANCH  93  95
ATOM     95  C18 non d ame     -37.399  10.657  31.055  0.00  0.00    -0.073 C 
ATOM     96  H24 non d ame     -36.615  10.965  30.364  0.00  0.00     0.028 H 
ATOM     97  H25 non d ame     -38.373  10.893  30.624  0.00  0.00     0.028 H 
ATOM     98  H26 non d ame     -37.282  11.187  31.999  0.00  0.00     0.028 H 
ENDBRANCH  93  95
BRANCH  93  99
ATOM     99  C19 non d ame     -38.692   8.495  31.427  0.00  0.00    -0.073 C 
ATOM    100  H27 non d ame     -39.105   8.719  32.411  0.00  0.00     0.028 H 
ATOM    101  H28 non d ame     -39.345   8.909  30.658  0.00  0.00     0.028 H 
ATOM    102  H29 non d ame     -38.621   7.416  31.298  0.00  0.00     0.028 H 
ENDBRANCH  93  99
ENDBRANCH  90  93
ENDBRANCH   1  90
TORSDOF 26
ENDMDL
MODEL 11
REMARK VINA RESULT:      -6.6      2.212      3.938
REMARK  26 active torsions:
REMARK  status: ('A' for Active; 'I' for Inactive)
REMARK    1  A    between atoms: C2_2  and  C3_3 
REMARK    2  A    between atoms: C4_6  and  C5_7 
REMARK       I    between atoms: C5_7  and  N2_9 
REMARK    3  A    between atoms: N2_9  and  C6_10 
REMARK    4  A    between atoms: C6_10  and  C7_11 
REMARK    5  A    between atoms: C6_10  and  C8_13 
REMARK       I    between atoms: C7_11  and  N3_14 
REMARK    6  A    between atoms: N3_14  and  C9_15 
REMARK    7  A    between atoms: C9_15  and  C10_16 
REMARK    8  A    between atoms: C9_15  and  C11_18 
REMARK       I    between atoms: C10_16  and  N4_21 
REMARK    9  A    between atoms: C11_18  and  C12_19 
REMARK   10  A    between atoms: C11_18  and  C13_20 
REMARK   11  A    between atoms: N4_21  and  C14_22 
REMARK   12  A    between atoms: C14_22  and  C15_23 
REMARK   13  A    between atoms: C14_22  and  C16_25 
REMARK       I    between atoms: C15_23  and  N6_40 
REMARK   14  A    between atoms: C16_25  and  C17_26 
REMARK   15  A    between atoms: C17_26  and  C18_27 
REMARK   16  A    between atoms: C17_26  and  C19_28 
REMARK   17  A    between atoms: C20_29  and  C21_30 
REMARK   18  A    between atoms: C20_29  and  C24_33 
REMARK   19  A    between atoms: C20_29  and  N6_40 
REMARK   20  A    between atoms: C21_30  and  C22_31 
REMARK   21  A    between atoms: C22_31  and  C23_32 
REMARK   22  A    between atoms: C23_32  and  O8_43 
REMARK   23  A    between atoms: C24_33  and  C25_34 
REMARK   24  A    between atoms: C28_38  and  O6_39 
REMARK   25  A    between atoms: C29_42  and  O8_43 
REMARK   26  A    between atoms: C29_42  and  C35_49 
ROOT
ATOM      1  C14 non d ame     -30.646  14.161  23.459  0.00  0.00     0.089 C 
ATOM      2  H20 non d ame     -29.556  14.191  23.451  0.00  0.00     0.087 H 
ENDROOT
BRANCH   1   3
ATOM      3  N4  non d ame     -31.044  12.790  23.742  0.00  0.00    -0.346 N 
ATOM      4  C10 non d ame     -30.376  11.640  23.030  0.00  0.00     0.241 C 
ATOM      5  O4  non d ame     -29.523  11.843  22.231  0.00  0.00    -0.271 OA
ATOM      6  H19 non d ame     -31.773  12.638  24.424  0.00  0.00     0.163 HD
BRANCH   4   7
ATOM      7  C9  non d ame     -30.796  10.228  23.340  0.00  0.00     0.092 C 
ATOM      8  H11 non d ame     -30.454   9.963  24.340  0.00  0.00     0.088 H 
BRANCH   7   9
ATOM      9  N3  non d ame     -32.259  10.142  23.345  0.00  0.00    -0.346 N 
ATOM     10  C7  non d ame     -32.945   9.591  24.488  0.00  0.00     0.240 C 
ATOM     11  O3  non d ame     -32.334   9.210  25.411  0.00  0.00    -0.271 OA
ATOM     12  H10 non d ame     -32.799  10.465  22.556  0.00  0.00     0.163 HD
BRANCH  10  13
ATOM     13  C6  non d ame     -34.502   9.500  24.487  0.00  0.00     0.086 C 
ATOM     14  H6  non d ame     -34.966  10.225  23.817  0.00  0.00     0.086 H 
BRANCH  13  15
ATOM     15  N2  non d ame     -34.897   8.184  24.013  0.00  0.00    -0.343 N 
ATOM     16  C5  non d ame     -35.004   7.938  22.572  0.00  0.00     0.273 C 
ATOM     17  O2  non d ame     -34.774   8.807  21.805  0.00  0.00    -0.266 OA
ATOM     18  H5  non d ame     -35.096   7.449  24.676  0.00  0.00     0.163 HD
BRANCH  16  19
ATOM     19  C4  non d ame     -35.419   6.552  22.057  0.00  0.00     0.154 A 
ATOM     20  C1  non d ame     -36.268   5.604  22.712  0.00  0.00    -0.017 A 
ATOM     21  C2  non d ame     -36.331   4.502  21.830  0.00  0.00     0.077 A 
ATOM     22  H1  non d ame     -36.761   5.700  23.679  0.00  0.00     0.091 H 
ATOM     23  O1  non d ame     -35.603   4.794  20.792  0.00  0.00    -0.218 OA
ATOM     24  N1  non d ame     -35.059   5.985  20.903  0.00  0.00    -0.123 NA
BRANCH  21  25
ATOM     25  C3  non d ame     -37.110   3.213  22.053  0.00  0.00    -0.029 C 
ATOM     26  H2  non d ame     -37.359   3.116  23.110  0.00  0.00     0.036 H 
ATOM     27  H3  non d ame     -38.027   3.236  21.465  0.00  0.00     0.036 H 
ATOM     28  H4  non d ame     -36.502   2.363  21.745  0.00  0.00     0.036 H 
ENDBRANCH  21  25
ENDBRANCH  16  19
ENDBRANCH  13  15
BRANCH  13  29
ATOM     29  C8  non d ame     -35.023   9.723  25.884  0.00  0.00    -0.049 C 
ATOM     30  H7  non d ame     -35.141   8.763  26.386  0.00  0.00     0.030 H 
ATOM     31  H8  non d ame     -34.315  10.339  26.441  0.00  0.00     0.030 H 
ATOM     32  H9  non d ame     -35.987  10.230  25.837  0.00  0.00     0.030 H 
ENDBRANCH  13  29
ENDBRANCH  10  13
ENDBRANCH   7   9
BRANCH   7  33
ATOM     33  C11 non d ame     -30.227   9.268  22.255  0.00  0.00    -0.033 C 
ATOM     34  H12 non d ame     -29.965   9.873  21.386  0.00  0.00     0.042 H 
BRANCH  33  35
ATOM     35  C12 non d ame     -28.924   8.562  22.745  0.00  0.00    -0.071 C 
ATOM     36  H13 non d ame     -28.115   8.766  22.044  0.00  0.00     0.028 H 
ATOM     37  H14 non d ame     -28.655   8.941  23.731  0.00  0.00     0.028 H 
ATOM     38  H15 non d ame     -29.092   7.487  22.802  0.00  0.00     0.028 H 
ENDBRANCH  33  35
BRANCH  33  39
ATOM     39  C13 non d ame     -31.302   8.225  21.810  0.00  0.00    -0.071 C 
ATOM     40  H16 non d ame     -32.077   8.153  22.574  0.00  0.00     0.028 H 
ATOM     41  H17 non d ame     -31.749   8.543  20.868  0.00  0.00     0.028 H 
ATOM     42  H18 non d ame     -30.832   7.252  21.677  0.00  0.00     0.028 H 
ENDBRANCH  33  39
ENDBRANCH   7  33
ENDBRANCH   4   7
ENDBRANCH   1   3
BRANCH   1  43
ATOM     43  C15 non d ame     -31.251  15.088  24.551  0.00  0.00     0.240 C 
ATOM     44  O5  non d ame     -30.653  16.051  24.906  0.00  0.00    -0.271 OA
ATOM     45  N6  non d ame     -32.582  14.780  25.148  0.00  0.00    -0.355 N 
ATOM     46  H46 non d ame     -33.102  13.967  24.850  0.00  0.00     0.162 HD
BRANCH  45  47
ATOM     47  C20 non d ame     -33.146  15.672  26.184  0.00  0.00     0.013 C 
ATOM     48  H30 non d ame     -32.356  16.350  26.508  0.00  0.00     0.072 H 
BRANCH  47  49
ATOM     49  C21 non d ame     -33.625  14.841  27.353  0.00  0.00    -0.038 C 
ATOM     50  H31 non d ame     -34.682  14.647  27.162  0.00  0.00     0.036 H 
ATOM     51  H32 non d ame     -32.924  14.011  27.430  0.00  0.00     0.036 H 
BRANCH  49  52
ATOM     52  C22 non d ame     -33.556  15.598  28.696  0.00  0.00     0.018 C 
ATOM     53  H33 non d ame     -33.897  16.610  28.483  0.00  0.00     0.048 H 
ATOM     54  H34 non d ame     -34.100  14.979  29.411  0.00  0.00     0.048 H 
BRANCH  52  55
ATOM     55  C23 non d ame     -32.116  15.741  29.261  0.00  0.00     0.259 C 
ATOM     56  O7  non d ame     -31.825  16.669  29.944  0.00  0.00    -0.265 OA
BRANCH  55  57
ATOM     57  O8  non d ame     -31.140  14.756  28.942  0.00  0.00    -0.317 OA
BRANCH  57  58
ATOM     58  C29 non d ame     -30.847  13.859  30.017  0.00  0.00     0.052 C 
ATOM     59  H47 non d ame     -29.794  13.600  29.905  0.00  0.00     0.082 H 
ATOM     60  H48 non d ame     -31.193  14.358  30.921  0.00  0.00     0.082 H 
BRANCH  58  61
ATOM     61  C35 non d ame     -31.692  12.573  29.812  0.00  0.00    -0.034 A 
ATOM     62  C30 non d ame     -31.765  11.980  28.555  0.00  0.00    -0.075 A 
ATOM     63  C31 non d ame     -32.525  10.825  28.371  0.00  0.00    -0.082 A 
ATOM     64  H49 non d ame     -31.229  12.421  27.715  0.00  0.00     0.084 H 
ATOM     65  C32 non d ame     -33.215  10.265  29.449  0.00  0.00    -0.083 A 
ATOM     66  H50 non d ame     -32.579  10.363  27.385  0.00  0.00     0.083 H 
ATOM     67  C33 non d ame     -33.141  10.861  30.700  0.00  0.00    -0.082 A 
ATOM     68  H51 non d ame     -33.810   9.362  29.313  0.00  0.00     0.083 H 
ATOM     69  C34 non d ame     -32.382  12.014  30.889  0.00  0.00    -0.075 A 
ATOM     70  H52 non d ame     -33.682  10.422  31.539  0.00  0.00     0.083 H 
ATOM     71  H53 non d ame     -32.328  12.476  31.876  0.00  0.00     0.084 H 
ENDBRANCH  58  61
ENDBRANCH  57  58
ENDBRANCH  55  57
ENDBRANCH  52  55
ENDBRANCH  49  52
ENDBRANCH  47  49
BRANCH  47  72
ATOM     72  C24 non d ame     -34.317  16.462  25.605  0.00  0.00    -0.039 C 
ATOM     73  H35 non d ame     -34.285  16.281  24.530  0.00  0.00     0.036 H 
ATOM     74  H36 non d ame     -35.188  16.154  26.183  0.00  0.00     0.036 H 
BRANCH  72  75
ATOM     75  C25 non d ame     -34.137  18.038  25.826  0.00  0.00    -0.001 C 
ATOM     76  C26 non d ame     -32.660  18.346  26.480  0.00  0.00    -0.035 C 
ATOM     77  C27 non d ame     -32.822  19.129  27.574  0.00  0.00     0.085 C 
ATOM     78  H38 non d ame     -32.232  17.429  26.884  0.00  0.00     0.036 H 
ATOM     79  H39 non d ame     -32.075  18.970  25.805  0.00  0.00     0.036 H 
ATOM     80  N5  non d ame     -34.292  19.112  27.915  0.00  0.00    -0.049 N 
ATOM     81  H40 non d ame     -32.267  18.633  28.371  0.00  0.00     0.075 H 
ATOM     82  H41 non d ame     -32.542  20.133  27.257  0.00  0.00     0.075 H 
ATOM     83  C28 non d ame     -35.042  18.507  26.619  0.00  0.00     0.193 C 
ATOM     84  H42 non d ame     -34.402  18.464  28.682  0.00  0.00     0.280 HD
ATOM     85  H43 non d ame     -34.571  20.077  28.026  0.00  0.00     0.280 HD
ATOM     86  H44 non d ame     -35.584  19.160  25.937  0.00  0.00     0.129 H 
ATOM     87  H37 non d ame     -34.418  18.614  24.944  0.00  0.00     0.046 H 
BRANCH  83  88
ATOM     88  O6  non d ame     -35.981  17.505  27.017  0.00  0.00    -0.369 OA
ATOM     89  H45 non d ame     -36.816  17.921  27.243  0.00  0.00     0.212 HD
ENDBRANCH  83  88
ENDBRANCH  72  75
ENDBRANCH  47  72
ENDBRANCH  45  47
ENDBRANCH   1  43
BRANCH   1  90
ATOM     90  C16 non d ame     -31.182  14.561  22.094  0.00  0.00    -0.035 C 
ATOM     91  H21 non d ame     -31.663  13.667  21.698  0.00  0.00     0.037 H 
ATOM     92  H22 non d ame     -31.769  15.462  22.267  0.00  0.00     0.037 H 
BRANCH  90  93
ATOM     93  C17 non d ame     -30.067  14.950  21.071  0.00  0.00    -0.059 C 
ATOM     94  H23 non d ame     -29.714  14.032  20.602  0.00  0.00     0.038 H 
BRANCH  93  95
ATOM     95  C18 non d ame     -30.604  15.887  19.943  0.00  0.00    -0.073 C 
ATOM     96  H24 non d ame     -31.625  15.603  19.689  0.00  0.00     0.028 H 
ATOM     97  H25 non d ame     -30.592  16.920  20.293  0.00  0.00     0.028 H 
ATOM     98  H26 non d ame     -29.970  15.795  19.062  0.00  0.00     0.028 H 
ENDBRANCH  93  95
BRANCH  93  99
ATOM     99  C19 non d ame     -28.870  15.586  21.784  0.00  0.00    -0.073 C 
ATOM    100  H27 non d ame     -28.247  16.105  21.055  0.00  0.00     0.028 H 
ATOM    101  H28 non d ame     -29.227  16.298  22.529  0.00  0.00     0.028 H 
ATOM    102  H29 non d ame     -28.285  14.809  22.275  0.00  0.00     0.028 H 
ENDBRANCH  93  99
ENDBRANCH  90  93
ENDBRANCH   1  90
TORSDOF 26
ENDMDL
MODEL 12
REMARK VINA RESULT:      -6.6      2.918      8.103
REMARK  26 active torsions:
REMARK  status: ('A' for Active; 'I' for Inactive)
REMARK    1  A    between atoms: C2_2  and  C3_3 
REMARK    2  A    between atoms: C4_6  and  C5_7 
REMARK       I    between atoms: C5_7  and  N2_9 
REMARK    3  A    between atoms: N2_9  and  C6_10 
REMARK    4  A    between atoms: C6_10  and  C7_11 
REMARK    5  A    between atoms: C6_10  and  C8_13 
REMARK       I    between atoms: C7_11  and  N3_14 
REMARK    6  A    between atoms: N3_14  and  C9_15 
REMARK    7  A    between atoms: C9_15  and  C10_16 
REMARK    8  A    between atoms: C9_15  and  C11_18 
REMARK       I    between atoms: C10_16  and  N4_21 
REMARK    9  A    between atoms: C11_18  and  C12_19 
REMARK   10  A    between atoms: C11_18  and  C13_20 
REMARK   11  A    between atoms: N4_21  and  C14_22 
REMARK   12  A    between atoms: C14_22  and  C15_23 
REMARK   13  A    between atoms: C14_22  and  C16_25 
REMARK       I    between atoms: C15_23  and  N6_40 
REMARK   14  A    between atoms: C16_25  and  C17_26 
REMARK   15  A    between atoms: C17_26  and  C18_27 
REMARK   16  A    between atoms: C17_26  and  C19_28 
REMARK   17  A    between atoms: C20_29  and  C21_30 
REMARK   18  A    between atoms: C20_29  and  C24_33 
REMARK   19  A    between atoms: C20_29  and  N6_40 
REMARK   20  A    between atoms: C21_30  and  C22_31 
REMARK   21  A    between atoms: C22_31  and  C23_32 
REMARK   22  A    between atoms: C23_32  and  O8_43 
REMARK   23  A    between atoms: C24_33  and  C25_34 
REMARK   24  A    between atoms: C28_38  and  O6_39 
REMARK   25  A    between atoms: C29_42  and  O8_43 
REMARK   26  A    between atoms: C29_42  and  C35_49 
ROOT
ATOM      1  C14 non d ame     -33.838   9.485  24.465  0.00  0.00     0.089 C 
ATOM      2  H20 non d ame     -34.080   9.291  23.420  0.00  0.00     0.087 H 
ENDROOT
BRANCH   1   3
ATOM      3  N4  non d ame     -34.633  10.625  24.895  0.00  0.00    -0.346 N 
ATOM      4  C10 non d ame     -35.990  10.879  24.287  0.00  0.00     0.241 C 
ATOM      5  O4  non d ame     -36.419  10.154  23.452  0.00  0.00    -0.271 OA
ATOM      6  H19 non d ame     -34.249  11.231  25.605  0.00  0.00     0.163 HD
BRANCH   4   7
ATOM      7  C9  non d ame     -36.802  12.061  24.748  0.00  0.00     0.092 C 
ATOM      8  H11 non d ame     -37.249  11.834  25.717  0.00  0.00     0.088 H 
BRANCH   7   9
ATOM      9  N3  non d ame     -35.921  13.216  24.937  0.00  0.00    -0.346 N 
ATOM     10  C7  non d ame     -36.018  14.008  26.139  0.00  0.00     0.240 C 
ATOM     11  O3  non d ame     -36.801  13.730  26.964  0.00  0.00    -0.271 OA
ATOM     12  H10 non d ame     -35.242  13.470  24.234  0.00  0.00     0.163 HD
BRANCH  10  13
ATOM     13  C6  non d ame     -35.079  15.239  26.333  0.00  0.00     0.086 C 
ATOM     14  H6  non d ame     -34.541  15.214  27.281  0.00  0.00     0.086 H 
BRANCH  13  15
ATOM     15  N2  non d ame     -34.073  15.234  25.284  0.00  0.00    -0.343 N 
ATOM     16  C5  non d ame     -32.659  15.090  25.641  0.00  0.00     0.273 C 
ATOM     17  O2  non d ame     -32.343  14.982  26.774  0.00  0.00    -0.266 OA
ATOM     18  H5  non d ame     -34.353  15.331  24.319  0.00  0.00     0.163 HD
BRANCH  16  19
ATOM     19  C4  non d ame     -31.586  15.082  24.542  0.00  0.00     0.154 A 
ATOM     20  C1  non d ame     -31.002  13.938  23.912  0.00  0.00    -0.017 A 
ATOM     21  C2  non d ame     -30.078  14.466  22.982  0.00  0.00     0.077 A 
ATOM     22  H1  non d ame     -31.214  12.886  24.101  0.00  0.00     0.091 H 
ATOM     23  O1  non d ame     -30.136  15.763  23.074  0.00  0.00    -0.218 OA
ATOM     24  N1  non d ame     -31.007  16.146  23.978  0.00  0.00    -0.123 NA
BRANCH  21  25
ATOM     25  C3  non d ame     -29.184  13.665  22.045  0.00  0.00    -0.029 C 
ATOM     26  H2  non d ame     -29.551  12.641  21.979  0.00  0.00     0.036 H 
ATOM     27  H3  non d ame     -29.196  14.119  21.055  0.00  0.00     0.036 H 
ATOM     28  H4  non d ame     -28.165  13.661  22.431  0.00  0.00     0.036 H 
ENDBRANCH  21  25
ENDBRANCH  16  19
ENDBRANCH  13  15
BRANCH  13  29
ATOM     29  C8  non d ame     -35.890  16.509  26.265  0.00  0.00    -0.049 C 
ATOM     30  H7  non d ame     -36.863  16.295  25.825  0.00  0.00     0.030 H 
ATOM     31  H8  non d ame     -36.026  16.906  27.272  0.00  0.00     0.030 H 
ATOM     32  H9  non d ame     -35.366  17.242  25.652  0.00  0.00     0.030 H 
ENDBRANCH  13  29
ENDBRANCH  10  13
ENDBRANCH   7   9
BRANCH   7  33
ATOM     33  C11 non d ame     -37.877  12.401  23.675  0.00  0.00    -0.033 C 
ATOM     34  H12 non d ame     -37.939  11.554  22.992  0.00  0.00     0.042 H 
BRANCH  33  35
ATOM     35  C12 non d ame     -39.286  12.588  24.320  0.00  0.00    -0.071 C 
ATOM     36  H13 non d ame     -39.718  11.611  24.539  0.00  0.00     0.028 H 
ATOM     37  H14 non d ame     -39.190  13.158  25.243  0.00  0.00     0.028 H 
ATOM     38  H15 non d ame     -39.935  13.123  23.627  0.00  0.00     0.028 H 
ENDBRANCH  33  35
BRANCH  33  39
ATOM     39  C13 non d ame     -37.462  13.659  22.847  0.00  0.00    -0.071 C 
ATOM     40  H16 non d ame     -36.846  14.314  23.464  0.00  0.00     0.028 H 
ATOM     41  H17 non d ame     -36.896  13.347  21.970  0.00  0.00     0.028 H 
ATOM     42  H18 non d ame     -38.356  14.196  22.529  0.00  0.00     0.028 H 
ENDBRANCH  33  39
ENDBRANCH   7  33
ENDBRANCH   4   7
ENDBRANCH   1   3
BRANCH   1  43
ATOM     43  C15 non d ame     -34.173   8.273  25.381  0.00  0.00     0.240 C 
ATOM     44  O5  non d ame     -33.773   7.190  25.098  0.00  0.00    -0.271 OA
ATOM     45  N6  non d ame     -34.986   8.464  26.615  0.00  0.00    -0.355 N 
ATOM     46  H46 non d ame     -35.327   9.381  26.869  0.00  0.00     0.162 HD
BRANCH  45  47
ATOM     47  C20 non d ame     -35.295   7.302  27.477  0.00  0.00     0.013 C 
ATOM     48  H30 non d ame     -35.561   6.466  26.830  0.00  0.00     0.072 H 
BRANCH  47  49
ATOM     49  C21 non d ame     -36.458   7.646  28.380  0.00  0.00    -0.038 C 
ATOM     50  H31 non d ame     -36.970   8.480  27.898  0.00  0.00     0.036 H 
ATOM     51  H32 non d ame     -36.986   6.708  28.550  0.00  0.00     0.036 H 
BRANCH  49  52
ATOM     52  C22 non d ame     -36.010   8.153  29.768  0.00  0.00     0.018 C 
ATOM     53  H33 non d ame     -36.714   7.724  30.480  0.00  0.00     0.048 H 
ATOM     54  H34 non d ame     -34.948   7.914  29.840  0.00  0.00     0.048 H 
BRANCH  52  55
ATOM     55  C23 non d ame     -36.115   9.693  29.936  0.00  0.00     0.259 C 
ATOM     56  O7  non d ame     -37.020  10.293  29.453  0.00  0.00    -0.265 OA
BRANCH  55  57
ATOM     57  O8  non d ame     -35.107  10.386  30.663  0.00  0.00    -0.317 OA
BRANCH  57  58
ATOM     58  C29 non d ame     -33.827   9.746  30.634  0.00  0.00     0.052 C 
ATOM     59  H47 non d ame     -33.520   9.656  31.676  0.00  0.00     0.082 H 
ATOM     60  H48 non d ame     -33.957   8.853  30.024  0.00  0.00     0.082 H 
BRANCH  58  61
ATOM     61  C35 non d ame     -32.834  10.695  29.910  0.00  0.00    -0.034 A 
ATOM     62  C30 non d ame     -32.800  10.738  28.520  0.00  0.00    -0.075 A 
ATOM     63  C31 non d ame     -31.907  11.590  27.870  0.00  0.00    -0.082 A 
ATOM     64  H49 non d ame     -33.470  10.104  27.940  0.00  0.00     0.084 H 
ATOM     65  C32 non d ame     -31.046  12.399  28.616  0.00  0.00    -0.083 A 
ATOM     66  H50 non d ame     -31.884  11.622  26.780  0.00  0.00     0.083 H 
ATOM     67  C33 non d ame     -31.081  12.350  30.002  0.00  0.00    -0.082 A 
ATOM     68  H51 non d ame     -30.346  13.068  28.115  0.00  0.00     0.083 H 
ATOM     69  C34 non d ame     -31.973  11.502  30.656  0.00  0.00    -0.075 A 
ATOM     70  H52 non d ame     -30.407  12.981  30.582  0.00  0.00     0.083 H 
ATOM     71  H53 non d ame     -31.996  11.470  31.746  0.00  0.00     0.084 H 
ENDBRANCH  58  61
ENDBRANCH  57  58
ENDBRANCH  55  57
ENDBRANCH  52  55
ENDBRANCH  49  52
ENDBRANCH  47  49
BRANCH  47  72
ATOM     72  C24 non d ame     -34.076   6.949  28.326  0.00  0.00    -0.039 C 
ATOM     73  H35 non d ame     -33.248   7.510  27.892  0.00  0.00     0.036 H 
ATOM     74  H36 non d ame     -34.378   7.134  29.357  0.00  0.00     0.036 H 
BRANCH  72  75
ATOM     75  C25 non d ame     -33.706   5.395  28.214  0.00  0.00    -0.001 C 
ATOM     76  C26 non d ame     -33.895   4.667  29.676  0.00  0.00    -0.035 C 
ATOM     77  C27 non d ame     -32.763   3.985  29.974  0.00  0.00     0.085 C 
ATOM     78  H38 non d ame     -33.954   5.419  30.463  0.00  0.00     0.036 H 
ATOM     79  H39 non d ame     -34.652   3.886  29.609  0.00  0.00     0.036 H 
ATOM     80  N5  non d ame     -31.701   4.448  29.006  0.00  0.00    -0.049 N 
ATOM     81  H40 non d ame     -32.488   4.302  30.981  0.00  0.00     0.075 H 
ATOM     82  H41 non d ame     -32.992   2.939  29.775  0.00  0.00     0.075 H 
ATOM     83  C28 non d ame     -32.483   5.232  27.830  0.00  0.00     0.193 C 
ATOM     84  H42 non d ame     -31.125   5.110  29.506  0.00  0.00     0.280 HD
ATOM     85  H43 non d ame     -31.287   3.613  28.615  0.00  0.00     0.280 HD
ATOM     86  H44 non d ame     -32.640   4.762  26.861  0.00  0.00     0.129 H 
ATOM     87  H37 non d ame     -34.181   4.918  27.357  0.00  0.00     0.046 H 
BRANCH  83  88
ATOM     88  O6  non d ame     -31.835   6.475  27.552  0.00  0.00    -0.369 OA
ATOM     89  H45 non d ame     -32.421   7.200  27.782  0.00  0.00     0.212 HD
ENDBRANCH  83  88
ENDBRANCH  72  75
ENDBRANCH  47  72
ENDBRANCH  45  47
ENDBRANCH   1  43
BRANCH   1  90
ATOM     90  C16 non d ame     -32.363   9.831  24.596  0.00  0.00    -0.035 C 
ATOM     91  H21 non d ame     -32.313  10.917  24.517  0.00  0.00     0.037 H 
ATOM     92  H22 non d ame     -32.030   9.337  25.508  0.00  0.00     0.037 H 
BRANCH  90  93
ATOM     93  C17 non d ame     -31.480   9.265  23.439  0.00  0.00    -0.059 C 
ATOM     94  H23 non d ame     -30.917   8.420  23.835  0.00  0.00     0.038 H 
BRANCH  93  95
ATOM     95  C18 non d ame     -32.340   8.747  22.242  0.00  0.00    -0.073 C 
ATOM     96  H24 non d ame     -33.186   9.416  22.086  0.00  0.00     0.028 H 
ATOM     97  H25 non d ame     -31.728   8.722  21.340  0.00  0.00     0.028 H 
ATOM     98  H26 non d ame     -32.704   7.745  22.462  0.00  0.00     0.028 H 
ENDBRANCH  93  95
BRANCH  93  99
ATOM     99  C19 non d ame     -30.463  10.308  22.968  0.00  0.00    -0.073 C 
ATOM    100  H27 non d ame     -30.723  11.283  23.381  0.00  0.00     0.028 H 
ATOM    101  H28 non d ame     -29.467  10.025  23.308  0.00  0.00     0.028 H 
ATOM    102  H29 non d ame     -30.473  10.360  21.879  0.00  0.00     0.028 H 
ENDBRANCH  93  99
ENDBRANCH  90  93
ENDBRANCH   1  90
TORSDOF 26
ENDMDL
MODEL 13
REMARK VINA RESULT:      -6.6      3.786      8.876
REMARK  26 active torsions:
REMARK  status: ('A' for Active; 'I' for Inactive)
REMARK    1  A    between atoms: C2_2  and  C3_3 
REMARK    2  A    between atoms: C4_6  and  C5_7 
REMARK       I    between atoms: C5_7  and  N2_9 
REMARK    3  A    between atoms: N2_9  and  C6_10 
REMARK    4  A    between atoms: C6_10  and  C7_11 
REMARK    5  A    between atoms: C6_10  and  C8_13 
REMARK       I    between atoms: C7_11  and  N3_14 
REMARK    6  A    between atoms: N3_14  and  C9_15 
REMARK    7  A    between atoms: C9_15  and  C10_16 
REMARK    8  A    between atoms: C9_15  and  C11_18 
REMARK       I    between atoms: C10_16  and  N4_21 
REMARK    9  A    between atoms: C11_18  and  C12_19 
REMARK   10  A    between atoms: C11_18  and  C13_20 
REMARK   11  A    between atoms: N4_21  and  C14_22 
REMARK   12  A    between atoms: C14_22  and  C15_23 
REMARK   13  A    between atoms: C14_22  and  C16_25 
REMARK       I    between atoms: C15_23  and  N6_40 
REMARK   14  A    between atoms: C16_25  and  C17_26 
REMARK   15  A    between atoms: C17_26  and  C18_27 
REMARK   16  A    between atoms: C17_26  and  C19_28 
REMARK   17  A    between atoms: C20_29  and  C21_30 
REMARK   18  A    between atoms: C20_29  and  C24_33 
REMARK   19  A    between atoms: C20_29  and  N6_40 
REMARK   20  A    between atoms: C21_30  and  C22_31 
REMARK   21  A    between atoms: C22_31  and  C23_32 
REMARK   22  A    between atoms: C23_32  and  O8_43 
REMARK   23  A    between atoms: C24_33  and  C25_34 
REMARK   24  A    between atoms: C28_38  and  O6_39 
REMARK   25  A    between atoms: C29_42  and  O8_43 
REMARK   26  A    between atoms: C29_42  and  C35_49 
ROOT
ATOM      1  C14 non d ame     -35.574   9.709  29.504  0.00  0.00     0.089 C 
ATOM      2  H20 non d ame     -35.110   8.960  30.146  0.00  0.00     0.087 H 
ENDROOT
BRANCH   1   3
ATOM      3  N4  non d ame     -34.616  10.791  29.331  0.00  0.00    -0.346 N 
ATOM      4  C10 non d ame     -33.180  10.489  28.983  0.00  0.00     0.241 C 
ATOM      5  O4  non d ame     -32.817   9.367  28.852  0.00  0.00    -0.271 OA
ATOM      6  H19 non d ame     -34.944  11.739  29.449  0.00  0.00     0.163 HD
BRANCH   4   7
ATOM      7  C9  non d ame     -32.204  11.621  28.802  0.00  0.00     0.092 C 
ATOM      8  H11 non d ame     -31.202  11.213  28.665  0.00  0.00     0.088 H 
BRANCH   7   9
ATOM      9  N3  non d ame     -32.539  12.365  27.585  0.00  0.00    -0.346 N 
ATOM     10  C7  non d ame     -31.698  12.256  26.418  0.00  0.00     0.240 C 
ATOM     11  O3  non d ame     -30.746  11.575  26.443  0.00  0.00    -0.271 OA
ATOM     12  H10 non d ame     -33.355  12.958  27.549  0.00  0.00     0.163 HD
BRANCH  10  13
ATOM     13  C6  non d ame     -32.058  13.053  25.126  0.00  0.00     0.086 C 
ATOM     14  H6  non d ame     -33.082  12.881  24.796  0.00  0.00     0.086 H 
BRANCH  13  15
ATOM     15  N2  non d ame     -31.944  14.476  25.403  0.00  0.00    -0.343 N 
ATOM     16  C5  non d ame     -33.120  15.216  25.868  0.00  0.00     0.273 C 
ATOM     17  O2  non d ame     -34.152  14.659  26.013  0.00  0.00    -0.266 OA
ATOM     18  H5  non d ame     -31.059  14.944  25.273  0.00  0.00     0.163 HD
BRANCH  16  19
ATOM     19  C4  non d ame     -33.014  16.719  26.166  0.00  0.00     0.154 A 
ATOM     20  C1  non d ame     -32.807  17.336  27.441  0.00  0.00    -0.017 A 
ATOM     21  C2  non d ame     -32.786  18.723  27.175  0.00  0.00     0.077 A 
ATOM     22  H1  non d ame     -32.692  16.852  28.410  0.00  0.00     0.091 H 
ATOM     23  O1  non d ame     -32.958  18.874  25.894  0.00  0.00    -0.218 OA
ATOM     24  N1  non d ame     -33.094  17.719  25.285  0.00  0.00    -0.123 NA
BRANCH  21  25
ATOM     25  C3  non d ame     -32.595  19.835  28.198  0.00  0.00    -0.029 C 
ATOM     26  H2  non d ame     -31.889  19.508  28.963  0.00  0.00     0.036 H 
ATOM     27  H3  non d ame     -32.205  20.723  27.701  0.00  0.00     0.036 H 
ATOM     28  H4  non d ame     -33.551  20.069  28.663  0.00  0.00     0.036 H 
ENDBRANCH  21  25
ENDBRANCH  16  19
ENDBRANCH  13  15
BRANCH  13  29
ATOM     29  C8  non d ame     -31.115  12.667  24.015  0.00  0.00    -0.049 C 
ATOM     30  H7  non d ame     -30.639  11.717  24.256  0.00  0.00     0.030 H 
ATOM     31  H8  non d ame     -31.673  12.567  23.084  0.00  0.00     0.030 H 
ATOM     32  H9  non d ame     -30.352  13.437  23.901  0.00  0.00     0.030 H 
ENDBRANCH  13  29
ENDBRANCH  10  13
ENDBRANCH   7   9
BRANCH   7  33
ATOM     33  C11 non d ame     -32.284  12.576  30.029  0.00  0.00    -0.033 C 
ATOM     34  H12 non d ame     -33.132  12.259  30.637  0.00  0.00     0.042 H 
BRANCH  33  35
ATOM     35  C12 non d ame     -31.005  12.469  30.917  0.00  0.00    -0.071 C 
ATOM     36  H13 non d ame     -31.296  12.348  31.960  0.00  0.00     0.028 H 
ATOM     37  H14 non d ame     -30.415  11.609  30.602  0.00  0.00     0.028 H 
ATOM     38  H15 non d ame     -30.411  13.377  30.810  0.00  0.00     0.028 H 
ENDBRANCH  33  35
BRANCH  33  39
ATOM     39  C13 non d ame     -32.538  14.049  29.576  0.00  0.00    -0.071 C 
ATOM     40  H16 non d ame     -32.884  14.637  30.427  0.00  0.00     0.028 H 
ATOM     41  H17 non d ame     -31.611  14.477  29.192  0.00  0.00     0.028 H 
ATOM     42  H18 non d ame     -33.294  14.063  28.792  0.00  0.00     0.028 H 
ENDBRANCH  33  39
ENDBRANCH   7  33
ENDBRANCH   4   7
ENDBRANCH   1   3
BRANCH   1  43
ATOM     43  C15 non d ame     -35.938   9.140  28.104  0.00  0.00     0.240 C 
ATOM     44  O5  non d ame     -36.836   9.615  27.487  0.00  0.00    -0.271 OA
ATOM     45  N6  non d ame     -35.160   8.007  27.525  0.00  0.00    -0.355 N 
ATOM     46  H46 non d ame     -34.391   7.599  28.038  0.00  0.00     0.162 HD
BRANCH  45  47
ATOM     47  C20 non d ame     -35.516   7.478  26.191  0.00  0.00     0.013 C 
ATOM     48  H30 non d ame     -36.221   8.172  25.732  0.00  0.00     0.072 H 
BRANCH  47  49
ATOM     49  C21 non d ame     -36.158   6.118  26.348  0.00  0.00    -0.038 C 
ATOM     50  H31 non d ame     -37.229   6.307  26.448  0.00  0.00     0.036 H 
ATOM     51  H32 non d ame     -35.786   5.519  25.517  0.00  0.00     0.036 H 
BRANCH  49  52
ATOM     52  C22 non d ame     -35.722   5.394  27.639  0.00  0.00     0.018 C 
ATOM     53  H33 non d ame     -35.530   4.362  27.349  0.00  0.00     0.048 H 
ATOM     54  H34 non d ame     -34.917   6.000  28.059  0.00  0.00     0.048 H 
BRANCH  52  55
ATOM     55  C23 non d ame     -36.827   5.335  28.729  0.00  0.00     0.259 C 
ATOM     56  O7  non d ame     -37.969   5.213  28.425  0.00  0.00    -0.265 OA
BRANCH  55  57
ATOM     57  O8  non d ame     -36.461   5.445  30.100  0.00  0.00    -0.317 OA
BRANCH  57  58
ATOM     58  C29 non d ame     -35.165   6.014  30.312  0.00  0.00     0.052 C 
ATOM     59  H47 non d ame     -34.710   6.085  29.325  0.00  0.00     0.082 H 
ATOM     60  H48 non d ame     -35.332   6.915  30.902  0.00  0.00     0.082 H 
BRANCH  58  61
ATOM     61  C35 non d ame     -34.336   5.016  31.164  0.00  0.00    -0.034 A 
ATOM     62  C30 non d ame     -34.688   4.772  32.488  0.00  0.00    -0.075 A 
ATOM     63  C31 non d ame     -33.943   3.875  33.254  0.00  0.00    -0.082 A 
ATOM     64  H49 non d ame     -35.544   5.283  32.926  0.00  0.00     0.084 H 
ATOM     65  C32 non d ame     -32.842   3.223  32.691  0.00  0.00    -0.083 A 
ATOM     66  H50 non d ame     -34.221   3.685  34.291  0.00  0.00     0.083 H 
ATOM     67  C33 non d ame     -32.494   3.472  31.371  0.00  0.00    -0.082 A 
ATOM     68  H51 non d ame     -32.256   2.520  33.283  0.00  0.00     0.083 H 
ATOM     69  C34 non d ame     -33.237   4.366  30.601  0.00  0.00    -0.075 A 
ATOM     70  H52 non d ame     -31.634   2.964  30.935  0.00  0.00     0.083 H 
ATOM     71  H53 non d ame     -32.957   4.555  29.565  0.00  0.00     0.084 H 
ENDBRANCH  58  61
ENDBRANCH  57  58
ENDBRANCH  55  57
ENDBRANCH  52  55
ENDBRANCH  49  52
ENDBRANCH  47  49
BRANCH  47  72
ATOM     72  C24 non d ame     -34.260   7.353  25.331  0.00  0.00    -0.039 C 
ATOM     73  H35 non d ame     -33.516   6.880  25.974  0.00  0.00     0.036 H 
ATOM     74  H36 non d ame     -34.583   6.857  24.416  0.00  0.00     0.036 H 
BRANCH  72  75
ATOM     75  C25 non d ame     -33.683   8.787  24.914  0.00  0.00    -0.001 C 
ATOM     76  C26 non d ame     -33.498   8.862  23.282  0.00  0.00    -0.035 C 
ATOM     77  C27 non d ame     -32.241   9.283  23.003  0.00  0.00     0.085 C 
ATOM     78  H38 non d ame     -33.532   7.860  22.855  0.00  0.00     0.036 H 
ATOM     79  H39 non d ame     -34.128   9.652  22.871  0.00  0.00     0.036 H 
ATOM     80  N5  non d ame     -31.450   9.186  24.285  0.00  0.00    -0.049 N 
ATOM     81  H40 non d ame     -31.845   8.563  22.286  0.00  0.00     0.075 H 
ATOM     82  H41 non d ame     -32.340  10.332  22.725  0.00  0.00     0.075 H 
ATOM     83  C28 non d ame     -32.536   9.009  25.466  0.00  0.00     0.193 C 
ATOM     84  H42 non d ame     -30.902   8.340  24.221  0.00  0.00     0.280 HD
ATOM     85  H43 non d ame     -30.988  10.078  24.404  0.00  0.00     0.280 HD
ATOM     86  H44 non d ame     -32.788   9.845  26.117  0.00  0.00     0.129 H 
ATOM     87  H37 non d ame     -34.223   9.605  25.390  0.00  0.00     0.046 H 
BRANCH  83  88
ATOM     88  O6  non d ame     -32.145   7.948  26.340  0.00  0.00    -0.369 OA
ATOM     89  H45 non d ame     -32.886   7.353  26.473  0.00  0.00     0.212 HD
ENDBRANCH  83  88
ENDBRANCH  72  75
ENDBRANCH  47  72
ENDBRANCH  45  47
ENDBRANCH   1  43
BRANCH   1  90
ATOM     90  C16 non d ame     -36.824  10.257  30.174  0.00  0.00    -0.035 C 
ATOM     91  H21 non d ame     -36.600  11.300  30.395  0.00  0.00     0.037 H 
ATOM     92  H22 non d ame     -37.645  10.007  29.502  0.00  0.00     0.037 H 
BRANCH  90  93
ATOM     93  C17 non d ame     -37.152   9.577  31.542  0.00  0.00    -0.059 C 
ATOM     94  H23 non d ame     -37.678  10.307  32.156  0.00  0.00     0.038 H 
BRANCH  93  95
ATOM     95  C18 non d ame     -38.083   8.334  31.374  0.00  0.00    -0.073 C 
ATOM     96  H24 non d ame     -39.112   8.619  31.591  0.00  0.00     0.028 H 
ATOM     97  H25 non d ame     -38.017   7.966  30.350  0.00  0.00     0.028 H 
ATOM     98  H26 non d ame     -37.770   7.550  32.062  0.00  0.00     0.028 H 
ENDBRANCH  93  95
BRANCH  93  99
ATOM     99  C19 non d ame     -35.867   9.199  32.285  0.00  0.00    -0.073 C 
ATOM    100  H27 non d ame     -35.913   9.578  33.306  0.00  0.00     0.028 H 
ATOM    101  H28 non d ame     -35.766   8.114  32.306  0.00  0.00     0.028 H 
ATOM    102  H29 non d ame     -35.010   9.633  31.773  0.00  0.00     0.028 H 
ENDBRANCH  93  99
ENDBRANCH  90  93
ENDBRANCH   1  90
TORSDOF 26
ENDMDL
MODEL 14
REMARK VINA RESULT:      -6.5      3.158      7.772
REMARK  26 active torsions:
REMARK  status: ('A' for Active; 'I' for Inactive)
REMARK    1  A    between atoms: C2_2  and  C3_3 
REMARK    2  A    between atoms: C4_6  and  C5_7 
REMARK       I    between atoms: C5_7  and  N2_9 
REMARK    3  A    between atoms: N2_9  and  C6_10 
REMARK    4  A    between atoms: C6_10  and  C7_11 
REMARK    5  A    between atoms: C6_10  and  C8_13 
REMARK       I    between atoms: C7_11  and  N3_14 
REMARK    6  A    between atoms: N3_14  and  C9_15 
REMARK    7  A    between atoms: C9_15  and  C10_16 
REMARK    8  A    between atoms: C9_15  and  C11_18 
REMARK       I    between atoms: C10_16  and  N4_21 
REMARK    9  A    between atoms: C11_18  and  C12_19 
REMARK   10  A    between atoms: C11_18  and  C13_20 
REMARK   11  A    between atoms: N4_21  and  C14_22 
REMARK   12  A    between atoms: C14_22  and  C15_23 
REMARK   13  A    between atoms: C14_22  and  C16_25 
REMARK       I    between atoms: C15_23  and  N6_40 
REMARK   14  A    between atoms: C16_25  and  C17_26 
REMARK   15  A    between atoms: C17_26  and  C18_27 
REMARK   16  A    between atoms: C17_26  and  C19_28 
REMARK   17  A    between atoms: C20_29  and  C21_30 
REMARK   18  A    between atoms: C20_29  and  C24_33 
REMARK   19  A    between atoms: C20_29  and  N6_40 
REMARK   20  A    between atoms: C21_30  and  C22_31 
REMARK   21  A    between atoms: C22_31  and  C23_32 
REMARK   22  A    between atoms: C23_32  and  O8_43 
REMARK   23  A    between atoms: C24_33  and  C25_34 
REMARK   24  A    between atoms: C28_38  and  O6_39 
REMARK   25  A    between atoms: C29_42  and  O8_43 
REMARK   26  A    between atoms: C29_42  and  C35_49 
ROOT
ATOM      1  C14 non d ame     -35.092  14.027  26.693  0.00  0.00     0.089 C 
ATOM      2  H20 non d ame     -35.341  14.437  27.673  0.00  0.00     0.087 H 
ENDROOT
BRANCH   1   3
ATOM      3  N4  non d ame     -34.072  14.883  26.107  0.00  0.00    -0.346 N 
ATOM      4  C10 non d ame     -33.404  15.950  26.938  0.00  0.00     0.241 C 
ATOM      5  O4  non d ame     -33.706  16.104  28.074  0.00  0.00    -0.271 OA
ATOM      6  H19 non d ame     -33.830  14.738  25.137  0.00  0.00     0.163 HD
BRANCH   4   7
ATOM      7  C9  non d ame     -32.346  16.823  26.316  0.00  0.00     0.092 C 
ATOM      8  H11 non d ame     -31.462  16.826  26.954  0.00  0.00     0.088 H 
BRANCH   7   9
ATOM      9  N3  non d ame     -31.945  16.261  25.023  0.00  0.00    -0.346 N 
ATOM     10  C7  non d ame     -31.119  15.080  24.976  0.00  0.00     0.240 C 
ATOM     11  O3  non d ame     -30.767  14.570  25.969  0.00  0.00    -0.271 OA
ATOM     12  H10 non d ame     -32.239  16.691  24.159  0.00  0.00     0.163 HD
BRANCH  10  13
ATOM     13  C6  non d ame     -30.693  14.487  23.597  0.00  0.00     0.086 C 
ATOM     14  H6  non d ame     -29.631  14.623  23.390  0.00  0.00     0.086 H 
BRANCH  13  15
ATOM     15  N2  non d ame     -30.935  13.054  23.605  0.00  0.00    -0.343 N 
ATOM     16  C5  non d ame     -30.130  12.182  22.746  0.00  0.00     0.273 C 
ATOM     17  O2  non d ame     -29.294  12.643  22.051  0.00  0.00    -0.266 OA
ATOM     18  H5  non d ame     -31.655  12.669  24.200  0.00  0.00     0.163 HD
BRANCH  16  19
ATOM     19  C4  non d ame     -30.375  10.665  22.746  0.00  0.00     0.154 A 
ATOM     20  C1  non d ame     -31.422   9.957  23.417  0.00  0.00    -0.017 A 
ATOM     21  C2  non d ame     -31.203   8.598  23.101  0.00  0.00     0.077 A 
ATOM     22  H1  non d ame     -32.218  10.367  24.038  0.00  0.00     0.091 H 
ATOM     23  O1  non d ame     -30.152   8.542  22.336  0.00  0.00    -0.218 OA
ATOM     24  N1  non d ame     -29.651   9.736  22.115  0.00  0.00    -0.123 NA
BRANCH  21  25
ATOM     25  C3  non d ame     -32.042   7.417  23.569  0.00  0.00    -0.029 C 
ATOM     26  H2  non d ame     -31.443   6.507  23.533  0.00  0.00     0.036 H 
ATOM     27  H3  non d ame     -32.375   7.590  24.593  0.00  0.00     0.036 H 
ATOM     28  H4  non d ame     -32.909   7.306  22.919  0.00  0.00     0.036 H 
ENDBRANCH  21  25
ENDBRANCH  16  19
ENDBRANCH  13  15
BRANCH  13  29
ATOM     29  C8  non d ame     -31.492  15.140  22.498  0.00  0.00    -0.049 C 
ATOM     30  H7  non d ame     -31.617  14.438  21.673  0.00  0.00     0.030 H 
ATOM     31  H8  non d ame     -32.472  15.426  22.882  0.00  0.00     0.030 H 
ATOM     32  H9  non d ame     -30.967  16.027  22.144  0.00  0.00     0.030 H 
ENDBRANCH  13  29
ENDBRANCH  10  13
ENDBRANCH   7   9
BRANCH   7  33
ATOM     33  C11 non d ame     -32.916  18.256  26.102  0.00  0.00    -0.033 C 
ATOM     34  H12 non d ame     -32.458  18.660  25.198  0.00  0.00     0.042 H 
BRANCH  33  35
ATOM     35  C12 non d ame     -34.459  18.226  25.872  0.00  0.00    -0.071 C 
ATOM     36  H13 non d ame     -34.687  18.623  24.883  0.00  0.00     0.028 H 
ATOM     37  H14 non d ame     -34.817  17.199  25.943  0.00  0.00     0.028 H 
ATOM     38  H15 non d ame     -34.951  18.835  26.630  0.00  0.00     0.028 H 
ENDBRANCH  33  35
BRANCH  33  39
ATOM     39  C13 non d ame     -32.538  19.192  27.294  0.00  0.00    -0.071 C 
ATOM     40  H16 non d ame     -32.833  20.216  27.060  0.00  0.00     0.028 H 
ATOM     41  H17 non d ame     -33.057  18.862  28.195  0.00  0.00     0.028 H 
ATOM     42  H18 non d ame     -31.462  19.153  27.461  0.00  0.00     0.028 H 
ENDBRANCH  33  39
ENDBRANCH   7  33
ENDBRANCH   4   7
ENDBRANCH   1   3
BRANCH   1  43
ATOM     43  C15 non d ame     -34.530  12.580  26.788  0.00  0.00     0.240 C 
ATOM     44  O5  non d ame     -33.867  12.145  25.902  0.00  0.00    -0.271 OA
ATOM     45  N6  non d ame     -34.810  11.739  27.986  0.00  0.00    -0.355 N 
ATOM     46  H46 non d ame     -35.368  12.100  28.747  0.00  0.00     0.162 HD
BRANCH  45  47
ATOM     47  C20 non d ame     -34.267  10.365  28.062  0.00  0.00     0.013 C 
ATOM     48  H30 non d ame     -33.996  10.056  27.052  0.00  0.00     0.072 H 
BRANCH  47  49
ATOM     49  C21 non d ame     -35.325   9.440  28.620  0.00  0.00    -0.038 C 
ATOM     50  H31 non d ame     -36.101   9.385  27.855  0.00  0.00     0.036 H 
ATOM     51  H32 non d ame     -34.795   8.538  28.925  0.00  0.00     0.036 H 
BRANCH  49  52
ATOM     52  C22 non d ame     -36.002  10.000  29.889  0.00  0.00     0.018 C 
ATOM     53  H33 non d ame     -35.540  10.969  30.068  0.00  0.00     0.048 H 
ATOM     54  H34 non d ame     -37.075   9.934  29.704  0.00  0.00     0.048 H 
BRANCH  52  55
ATOM     55  C23 non d ame     -35.735   9.156  31.166  0.00  0.00     0.259 C 
ATOM     56  O7  non d ame     -36.400   9.306  32.139  0.00  0.00    -0.265 OA
BRANCH  55  57
ATOM     57  O8  non d ame     -34.675   8.207  31.165  0.00  0.00    -0.317 OA
BRANCH  57  58
ATOM     58  C29 non d ame     -35.048   6.917  31.661  0.00  0.00     0.052 C 
ATOM     59  H47 non d ame     -34.116   6.364  31.774  0.00  0.00     0.082 H 
ATOM     60  H48 non d ame     -35.680   7.106  32.528  0.00  0.00     0.082 H 
BRANCH  58  61
ATOM     61  C35 non d ame     -35.905   6.216  30.573  0.00  0.00    -0.034 A 
ATOM     62  C30 non d ame     -35.314   5.792  29.387  0.00  0.00    -0.075 A 
ATOM     63  C31 non d ame     -36.084   5.163  28.409  0.00  0.00    -0.082 A 
ATOM     64  H49 non d ame     -34.249   5.954  29.222  0.00  0.00     0.084 H 
ATOM     65  C32 non d ame     -37.451   4.960  28.621  0.00  0.00    -0.083 A 
ATOM     66  H50 non d ame     -35.618   4.831  27.481  0.00  0.00     0.083 H 
ATOM     67  C33 non d ame     -38.036   5.387  29.804  0.00  0.00    -0.082 A 
ATOM     68  H51 non d ame     -38.059   4.468  27.862  0.00  0.00     0.083 H 
ATOM     69  C34 non d ame     -37.270   6.015  30.785  0.00  0.00    -0.075 A 
ATOM     70  H52 non d ame     -39.103   5.229  29.966  0.00  0.00     0.083 H 
ATOM     71  H53 non d ame     -37.738   6.347  31.712  0.00  0.00     0.084 H 
ENDBRANCH  58  61
ENDBRANCH  57  58
ENDBRANCH  55  57
ENDBRANCH  52  55
ENDBRANCH  49  52
ENDBRANCH  47  49
BRANCH  47  72
ATOM     72  C24 non d ame     -33.040  10.344  28.970  0.00  0.00    -0.039 C 
ATOM     73  H35 non d ame     -33.330   9.746  29.835  0.00  0.00     0.036 H 
ATOM     74  H36 non d ame     -32.215  10.019  28.336  0.00  0.00     0.036 H 
BRANCH  72  75
ATOM     75  C25 non d ame     -32.674  11.808  29.508  0.00  0.00    -0.001 C 
ATOM     76  C26 non d ame     -31.323  12.360  28.751  0.00  0.00    -0.035 C 
ATOM     77  C27 non d ame     -30.441  12.784  29.688  0.00  0.00     0.085 C 
ATOM     78  H38 non d ame     -30.803  11.535  28.265  0.00  0.00     0.036 H 
ATOM     79  H39 non d ame     -31.553  13.266  28.190  0.00  0.00     0.036 H 
ATOM     80  N5  non d ame     -30.930  12.269  31.019  0.00  0.00    -0.049 N 
ATOM     81  H40 non d ame     -29.498  12.294  29.442  0.00  0.00     0.075 H 
ATOM     82  H41 non d ame     -30.508  13.872  29.681  0.00  0.00     0.075 H 
ATOM     83  C28 non d ame     -32.456  11.798  30.781  0.00  0.00     0.193 C 
ATOM     84  H42 non d ame     -30.372  11.455  31.235  0.00  0.00     0.280 HD
ATOM     85  H43 non d ame     -30.932  13.060  31.648  0.00  0.00     0.280 HD
ATOM     86  H44 non d ame     -33.286  12.411  31.129  0.00  0.00     0.129 H 
ATOM     87  H37 non d ame     -33.540  12.470  29.524  0.00  0.00     0.046 H 
BRANCH  83  88
ATOM     88  O6  non d ame     -32.668  10.506  31.354  0.00  0.00    -0.369 OA
ATOM     89  H45 non d ame     -32.769   9.858  30.653  0.00  0.00     0.212 HD
ENDBRANCH  83  88
ENDBRANCH  72  75
ENDBRANCH  47  72
ENDBRANCH  45  47
ENDBRANCH   1  43
BRANCH   1  90
ATOM     90  C16 non d ame     -36.323  14.040  25.801  0.00  0.00    -0.035 C 
ATOM     91  H21 non d ame     -36.015  13.553  24.876  0.00  0.00     0.037 H 
ATOM     92  H22 non d ame     -37.121  13.608  26.404  0.00  0.00     0.037 H 
BRANCH  90  93
ATOM     93  C17 non d ame     -36.795  15.476  25.406  0.00  0.00    -0.059 C 
ATOM     94  H23 non d ame     -35.907  16.072  25.201  0.00  0.00     0.038 H 
BRANCH  93  95
ATOM     95  C18 non d ame     -37.676  15.472  24.116  0.00  0.00    -0.073 C 
ATOM     96  H24 non d ame     -38.335  14.604  24.128  0.00  0.00     0.028 H 
ATOM     97  H25 non d ame     -38.276  16.382  24.083  0.00  0.00     0.028 H 
ATOM     98  H26 non d ame     -37.033  15.428  23.237  0.00  0.00     0.028 H 
ENDBRANCH  93  95
BRANCH  93  99
ATOM     99  C19 non d ame     -37.535  16.146  26.567  0.00  0.00    -0.073 C 
ATOM    100  H27 non d ame     -38.364  16.737  26.177  0.00  0.00     0.028 H 
ATOM    101  H28 non d ame     -37.920  15.383  27.243  0.00  0.00     0.028 H 
ATOM    102  H29 non d ame     -36.848  16.796  27.109  0.00  0.00     0.028 H 
ENDBRANCH  93  99
ENDBRANCH  90  93
ENDBRANCH   1  90
TORSDOF 26
ENDMDL
MODEL 15
REMARK VINA RESULT:      -6.5      3.811      9.806
REMARK  26 active torsions:
REMARK  status: ('A' for Active; 'I' for Inactive)
REMARK    1  A    between atoms: C2_2  and  C3_3 
REMARK    2  A    between atoms: C4_6  and  C5_7 
REMARK       I    between atoms: C5_7  and  N2_9 
REMARK    3  A    between atoms: N2_9  and  C6_10 
REMARK    4  A    between atoms: C6_10  and  C7_11 
REMARK    5  A    between atoms: C6_10  and  C8_13 
REMARK       I    between atoms: C7_11  and  N3_14 
REMARK    6  A    between atoms: N3_14  and  C9_15 
REMARK    7  A    between atoms: C9_15  and  C10_16 
REMARK    8  A    between atoms: C9_15  and  C11_18 
REMARK       I    between atoms: C10_16  and  N4_21 
REMARK    9  A    between atoms: C11_18  and  C12_19 
REMARK   10  A    between atoms: C11_18  and  C13_20 
REMARK   11  A    between atoms: N4_21  and  C14_22 
REMARK   12  A    between atoms: C14_22  and  C15_23 
REMARK   13  A    between atoms: C14_22  and  C16_25 
REMARK       I    between atoms: C15_23  and  N6_40 
REMARK   14  A    between atoms: C16_25  and  C17_26 
REMARK   15  A    between atoms: C17_26  and  C18_27 
REMARK   16  A    between atoms: C17_26  and  C19_28 
REMARK   17  A    between atoms: C20_29  and  C21_30 
REMARK   18  A    between atoms: C20_29  and  C24_33 
REMARK   19  A    between atoms: C20_29  and  N6_40 
REMARK   20  A    between atoms: C21_30  and  C22_31 
REMARK   21  A    between atoms: C22_31  and  C23_32 
REMARK   22  A    between atoms: C23_32  and  O8_43 
REMARK   23  A    between atoms: C24_33  and  C25_34 
REMARK   24  A    between atoms: C28_38  and  O6_39 
REMARK   25  A    between atoms: C29_42  and  O8_43 
REMARK   26  A    between atoms: C29_42  and  C35_49 
ROOT
ATOM      1  C14 non d ame     -34.816   8.328  31.154  0.00  0.00     0.089 C 
ATOM      2  H20 non d ame     -33.939   8.569  31.755  0.00  0.00     0.087 H 
ENDROOT
BRANCH   1   3
ATOM      3  N4  non d ame     -34.748   9.129  29.941  0.00  0.00    -0.346 N 
ATOM      4  C10 non d ame     -33.685  10.188  29.785  0.00  0.00     0.241 C 
ATOM      5  O4  non d ame     -32.898  10.379  30.651  0.00  0.00    -0.271 OA
ATOM      6  H19 non d ame     -35.429   8.952  29.216  0.00  0.00     0.163 HD
BRANCH   4   7
ATOM      7  C9  non d ame     -33.626  11.003  28.520  0.00  0.00     0.092 C 
ATOM      8  H11 non d ame     -34.393  11.777  28.556  0.00  0.00     0.088 H 
BRANCH   7   9
ATOM      9  N3  non d ame     -32.329  11.679  28.434  0.00  0.00    -0.346 N 
ATOM     10  C7  non d ame     -32.270  13.120  28.383  0.00  0.00     0.240 C 
ATOM     11  O3  non d ame     -33.256  13.749  28.410  0.00  0.00    -0.271 OA
ATOM     12  H10 non d ame     -31.470  11.150  28.409  0.00  0.00     0.163 HD
BRANCH  10  13
ATOM     13  C6  non d ame     -30.886  13.835  28.288  0.00  0.00     0.086 C 
ATOM     14  H6  non d ame     -30.049  13.136  28.294  0.00  0.00     0.086 H 
BRANCH  13  15
ATOM     15  N2  non d ame     -30.815  14.558  27.030  0.00  0.00    -0.343 N 
ATOM     16  C5  non d ame     -30.944  13.825  25.768  0.00  0.00     0.273 C 
ATOM     17  O2  non d ame     -31.101  12.654  25.777  0.00  0.00    -0.266 OA
ATOM     18  H5  non d ame     -30.677  15.559  27.032  0.00  0.00     0.163 HD
BRANCH  16  19
ATOM     19  C4  non d ame     -30.873  14.577  24.430  0.00  0.00     0.154 A 
ATOM     20  C1  non d ame     -30.679  14.013  23.130  0.00  0.00    -0.017 A 
ATOM     21  C2  non d ame     -30.690  15.117  22.248  0.00  0.00     0.077 A 
ATOM     22  H1  non d ame     -30.549  12.964  22.865  0.00  0.00     0.091 H 
ATOM     23  O1  non d ame     -30.873  16.186  22.969  0.00  0.00    -0.218 OA
ATOM     24  N1  non d ame     -30.981  15.896  24.245  0.00  0.00    -0.123 NA
BRANCH  21  25
ATOM     25  C3  non d ame     -30.522  15.065  20.736  0.00  0.00    -0.029 C 
ATOM     26  H2  non d ame     -31.401  14.601  20.288  0.00  0.00     0.036 H 
ATOM     27  H3  non d ame     -30.410  16.078  20.348  0.00  0.00     0.036 H 
ATOM     28  H4  non d ame     -29.637  14.481  20.488  0.00  0.00     0.036 H 
ENDBRANCH  21  25
ENDBRANCH  16  19
ENDBRANCH  13  15
BRANCH  13  29
ATOM     29  C8  non d ame     -30.731  14.792  29.443  0.00  0.00    -0.049 C 
ATOM     30  H7  non d ame     -31.200  15.743  29.193  0.00  0.00     0.030 H 
ATOM     31  H8  non d ame     -31.211  14.373  30.328  0.00  0.00     0.030 H 
ATOM     32  H9  non d ame     -29.672  14.949  29.645  0.00  0.00     0.030 H 
ENDBRANCH  13  29
ENDBRANCH  10  13
ENDBRANCH   7   9
BRANCH   7  33
ATOM     33  C11 non d ame     -33.802  10.064  27.291  0.00  0.00    -0.033 C 
ATOM     34  H12 non d ame     -34.607   9.367  27.523  0.00  0.00     0.042 H 
BRANCH  33  35
ATOM     35  C12 non d ame     -34.225  10.865  26.019  0.00  0.00    -0.071 C 
ATOM     36  H13 non d ame     -34.559  11.860  26.311  0.00  0.00     0.028 H 
ATOM     37  H14 non d ame     -33.374  10.950  25.344  0.00  0.00     0.028 H 
ATOM     38  H15 non d ame     -35.039  10.342  25.516  0.00  0.00     0.028 H 
ENDBRANCH  33  35
BRANCH  33  39
ATOM     39  C13 non d ame     -32.504   9.234  27.031  0.00  0.00    -0.071 C 
ATOM     40  H16 non d ame     -32.775   8.221  26.730  0.00  0.00     0.028 H 
ATOM     41  H17 non d ame     -31.922   9.706  26.238  0.00  0.00     0.028 H 
ATOM     42  H18 non d ame     -31.909   9.195  27.943  0.00  0.00     0.028 H 
ENDBRANCH  33  39
ENDBRANCH   7  33
ENDBRANCH   4   7
ENDBRANCH   1   3
BRANCH   1  43
ATOM     43  C15 non d ame     -34.861   6.826  30.755  0.00  0.00     0.240 C 
ATOM     44  O5  non d ame     -35.280   6.023  31.523  0.00  0.00    -0.271 OA
ATOM     45  N6  non d ame     -34.392   6.390  29.409  0.00  0.00    -0.355 N 
ATOM     46  H46 non d ame     -34.039   7.065  28.745  0.00  0.00     0.162 HD
BRANCH  45  47
ATOM     47  C20 non d ame     -34.442   4.958  29.043  0.00  0.00     0.013 C 
ATOM     48  H30 non d ame     -34.529   4.380  29.963  0.00  0.00     0.072 H 
BRANCH  47  49
ATOM     49  C21 non d ame     -33.172   4.583  28.314  0.00  0.00    -0.038 C 
ATOM     50  H31 non d ame     -32.441   4.359  29.093  0.00  0.00     0.036 H 
ATOM     51  H32 non d ame     -33.459   3.813  27.599  0.00  0.00     0.036 H 
BRANCH  49  52
ATOM     52  C22 non d ame     -32.587   5.749  27.489  0.00  0.00     0.018 C 
ATOM     53  H33 non d ame     -33.278   6.580  27.622  0.00  0.00     0.048 H 
ATOM     54  H34 non d ame     -31.549   5.847  27.812  0.00  0.00     0.048 H 
BRANCH  52  55
ATOM     55  C23 non d ame     -32.536   5.473  25.962  0.00  0.00     0.259 C 
ATOM     56  O7  non d ame     -33.248   4.658  25.472  0.00  0.00    -0.265 OA
BRANCH  55  57
ATOM     57  O8  non d ame     -31.615   6.195  25.153  0.00  0.00    -0.317 OA
BRANCH  57  58
ATOM     58  C29 non d ame     -32.133   6.565  23.871  0.00  0.00     0.052 C 
ATOM     59  H47 non d ame     -31.896   5.734  23.207  0.00  0.00     0.082 H 
ATOM     60  H48 non d ame     -33.171   6.848  24.043  0.00  0.00     0.082 H 
BRANCH  58  61
ATOM     61  C35 non d ame     -31.357   7.819  23.385  0.00  0.00    -0.034 A 
ATOM     62  C30 non d ame     -31.882   9.089  23.601  0.00  0.00    -0.075 A 
ATOM     63  C31 non d ame     -31.185  10.216  23.163  0.00  0.00    -0.082 A 
ATOM     64  H49 non d ame     -32.838   9.203  24.111  0.00  0.00     0.084 H 
ATOM     65  C32 non d ame     -29.961  10.067  22.506  0.00  0.00    -0.083 A 
ATOM     66  H50 non d ame     -31.598  11.210  23.335  0.00  0.00     0.083 H 
ATOM     67  C33 non d ame     -29.443   8.797  22.290  0.00  0.00    -0.082 A 
ATOM     68  H51 non d ame     -29.410  10.943  22.162  0.00  0.00     0.083 H 
ATOM     69  C34 non d ame     -30.135   7.669  22.727  0.00  0.00    -0.075 A 
ATOM     70  H52 non d ame     -28.489   8.685  21.775  0.00  0.00     0.083 H 
ATOM     71  H53 non d ame     -29.721   6.676  22.555  0.00  0.00     0.084 H 
ENDBRANCH  58  61
ENDBRANCH  57  58
ENDBRANCH  55  57
ENDBRANCH  52  55
ENDBRANCH  49  52
ENDBRANCH  47  49
BRANCH  47  72
ATOM     72  C24 non d ame     -35.645   4.698  28.138  0.00  0.00    -0.039 C 
ATOM     73  H35 non d ame     -35.245   4.176  27.268  0.00  0.00     0.036 H 
ATOM     74  H36 non d ame     -36.385   4.211  28.772  0.00  0.00     0.036 H 
BRANCH  72  75
ATOM     75  C25 non d ame     -36.298   6.063  27.612  0.00  0.00    -0.001 C 
ATOM     76  C26 non d ame     -37.745   6.312  28.351  0.00  0.00    -0.035 C 
ATOM     77  C27 non d ame     -38.682   6.558  27.404  0.00  0.00     0.085 C 
ATOM     78  H38 non d ame     -38.090   5.389  28.818  0.00  0.00     0.036 H 
ATOM     79  H39 non d ame     -37.716   7.237  28.928  0.00  0.00     0.036 H 
ATOM     80  N5  non d ame     -38.077   6.177  26.075  0.00  0.00    -0.049 N 
ATOM     81  H40 non d ame     -39.506   5.880  27.627  0.00  0.00     0.075 H 
ATOM     82  H41 non d ame     -38.841   7.636  27.426  0.00  0.00     0.075 H 
ATOM     83  C28 non d ame     -36.490   6.028  26.335  0.00  0.00     0.193 C 
ATOM     84  H42 non d ame     -38.450   5.269  25.839  0.00  0.00     0.280 HD
ATOM     85  H43 non d ame     -38.229   6.962  25.456  0.00  0.00     0.280 HD
ATOM     86  H44 non d ame     -35.800   6.805  26.010  0.00  0.00     0.129 H 
ATOM     87  H37 non d ame     -35.588   6.890  27.620  0.00  0.00     0.046 H 
BRANCH  83  88
ATOM     88  O6  non d ame     -36.006   4.818  25.750  0.00  0.00    -0.369 OA
ATOM     89  H45 non d ame     -35.046   4.825  25.747  0.00  0.00     0.212 HD
ENDBRANCH  83  88
ENDBRANCH  72  75
ENDBRANCH  47  72
ENDBRANCH  45  47
ENDBRANCH   1  43
BRANCH   1  90
ATOM     90  C16 non d ame     -36.079   8.693  31.918  0.00  0.00    -0.035 C 
ATOM     91  H21 non d ame     -36.351   7.794  32.472  0.00  0.00     0.037 H 
ATOM     92  H22 non d ame     -35.838   9.610  32.454  0.00  0.00     0.037 H 
BRANCH  90  93
ATOM     93  C17 non d ame     -37.295   9.026  30.997  0.00  0.00    -0.059 C 
ATOM     94  H23 non d ame     -37.006   8.798  29.971  0.00  0.00     0.038 H 
BRANCH  93  95
ATOM     95  C18 non d ame     -38.551   8.163  31.342  0.00  0.00    -0.073 C 
ATOM     96  H24 non d ame     -38.331   7.112  31.157  0.00  0.00     0.028 H 
ATOM     97  H25 non d ame     -38.807   8.299  32.393  0.00  0.00     0.028 H 
ATOM     98  H26 non d ame     -39.389   8.475  30.720  0.00  0.00     0.028 H 
ENDBRANCH  93  95
BRANCH  93  99
ATOM     99  C19 non d ame     -37.630  10.520  31.053  0.00  0.00    -0.073 C 
ATOM    100  H27 non d ame     -38.705  10.656  30.932  0.00  0.00     0.028 H 
ATOM    101  H28 non d ame     -37.320  10.926  32.016  0.00  0.00     0.028 H 
ATOM    102  H29 non d ame     -37.104  11.040  30.254  0.00  0.00     0.028 H 
ENDBRANCH  93  99
ENDBRANCH  90  93
ENDBRANCH   1  90
TORSDOF 26
ENDMDL
MODEL 16
REMARK VINA RESULT:      -6.5      3.141      8.882
REMARK  26 active torsions:
REMARK  status: ('A' for Active; 'I' for Inactive)
REMARK    1  A    between atoms: C2_2  and  C3_3 
REMARK    2  A    between atoms: C4_6  and  C5_7 
REMARK       I    between atoms: C5_7  and  N2_9 
REMARK    3  A    between atoms: N2_9  and  C6_10 
REMARK    4  A    between atoms: C6_10  and  C7_11 
REMARK    5  A    between atoms: C6_10  and  C8_13 
REMARK       I    between atoms: C7_11  and  N3_14 
REMARK    6  A    between atoms: N3_14  and  C9_15 
REMARK    7  A    between atoms: C9_15  and  C10_16 
REMARK    8  A    between atoms: C9_15  and  C11_18 
REMARK       I    between atoms: C10_16  and  N4_21 
REMARK    9  A    between atoms: C11_18  and  C12_19 
REMARK   10  A    between atoms: C11_18  and  C13_20 
REMARK   11  A    between atoms: N4_21  and  C14_22 
REMARK   12  A    between atoms: C14_22  and  C15_23 
REMARK   13  A    between atoms: C14_22  and  C16_25 
REMARK       I    between atoms: C15_23  and  N6_40 
REMARK   14  A    between atoms: C16_25  and  C17_26 
REMARK   15  A    between atoms: C17_26  and  C18_27 
REMARK   16  A    between atoms: C17_26  and  C19_28 
REMARK   17  A    between atoms: C20_29  and  C21_30 
REMARK   18  A    between atoms: C20_29  and  C24_33 
REMARK   19  A    between atoms: C20_29  and  N6_40 
REMARK   20  A    between atoms: C21_30  and  C22_31 
REMARK   21  A    between atoms: C22_31  and  C23_32 
REMARK   22  A    between atoms: C23_32  and  O8_43 
REMARK   23  A    between atoms: C24_33  and  C25_34 
REMARK   24  A    between atoms: C28_38  and  O6_39 
REMARK   25  A    between atoms: C29_42  and  O8_43 
REMARK   26  A    between atoms: C29_42  and  C35_49 
ROOT
ATOM      1  C14 non d ame     -34.001   7.230  27.482  0.00  0.00     0.089 C 
ATOM      2  H20 non d ame     -33.519   6.678  28.289  0.00  0.00     0.087 H 
ENDROOT
BRANCH   1   3
ATOM      3  N4  non d ame     -34.427   8.512  28.023  0.00  0.00    -0.346 N 
ATOM      4  C10 non d ame     -34.832   8.631  29.471  0.00  0.00     0.241 C 
ATOM      5  O4  non d ame     -34.811   7.681  30.181  0.00  0.00    -0.271 OA
ATOM      6  H19 non d ame     -34.440   9.309  27.402  0.00  0.00     0.163 HD
BRANCH   4   7
ATOM      7  C9  non d ame     -35.264   9.968  30.015  0.00  0.00     0.092 C 
ATOM      8  H11 non d ame     -35.242   9.936  31.105  0.00  0.00     0.088 H 
BRANCH   7   9
ATOM      9  N3  non d ame     -34.313  10.999  29.593  0.00  0.00    -0.346 N 
ATOM     10  C7  non d ame     -33.136  11.262  30.384  0.00  0.00     0.240 C 
ATOM     11  O3  non d ame     -32.940  10.653  31.365  0.00  0.00    -0.271 OA
ATOM     12  H10 non d ame     -34.469  11.533  28.750  0.00  0.00     0.163 HD
BRANCH  10  13
ATOM     13  C6  non d ame     -32.128  12.363  29.931  0.00  0.00     0.086 C 
ATOM     14  H6  non d ame     -31.608  12.105  29.008  0.00  0.00     0.086 H 
BRANCH  13  15
ATOM     15  N2  non d ame     -32.859  13.591  29.666  0.00  0.00    -0.343 N 
ATOM     16  C5  non d ame     -32.244  14.634  28.842  0.00  0.00     0.273 C 
ATOM     17  O2  non d ame     -31.159  14.477  28.399  0.00  0.00    -0.266 OA
ATOM     18  H5  non d ame     -33.784  13.718  30.051  0.00  0.00     0.163 HD
BRANCH  16  19
ATOM     19  C4  non d ame     -33.006  15.936  28.553  0.00  0.00     0.154 A 
ATOM     20  C1  non d ame     -34.327  16.064  28.018  0.00  0.00    -0.017 A 
ATOM     21  C2  non d ame     -34.558  17.456  27.947  0.00  0.00     0.077 A 
ATOM     22  H1  non d ame     -35.013  15.270  27.726  0.00  0.00     0.091 H 
ATOM     23  O1  non d ame     -33.488  18.049  28.394  0.00  0.00    -0.218 OA
ATOM     24  N1  non d ame     -32.569  17.182  28.752  0.00  0.00    -0.123 NA
BRANCH  21  25
ATOM     25  C3  non d ame     -35.823  18.136  27.443  0.00  0.00    -0.029 C 
ATOM     26  H2  non d ame     -36.686  17.747  27.984  0.00  0.00     0.036 H 
ATOM     27  H3  non d ame     -35.748  19.211  27.606  0.00  0.00     0.036 H 
ATOM     28  H4  non d ame     -35.943  17.938  26.379  0.00  0.00     0.036 H 
ENDBRANCH  21  25
ENDBRANCH  16  19
ENDBRANCH  13  15
BRANCH  13  29
ATOM     29  C8  non d ame     -31.108  12.593  31.017  0.00  0.00    -0.049 C 
ATOM     30  H7  non d ame     -31.609  12.629  31.984  0.00  0.00     0.030 H 
ATOM     31  H8  non d ame     -30.384  11.778  31.014  0.00  0.00     0.030 H 
ATOM     32  H9  non d ame     -30.594  13.537  30.839  0.00  0.00     0.030 H 
ENDBRANCH  13  29
ENDBRANCH  10  13
ENDBRANCH   7   9
BRANCH   7  33
ATOM     33  C11 non d ame     -36.680  10.316  29.470  0.00  0.00    -0.033 C 
ATOM     34  H12 non d ame     -37.123  11.046  30.148  0.00  0.00     0.042 H 
BRANCH  33  35
ATOM     35  C12 non d ame     -36.599  10.976  28.058  0.00  0.00    -0.071 C 
ATOM     36  H13 non d ame     -37.439  11.659  27.927  0.00  0.00     0.028 H 
ATOM     37  H14 non d ame     -35.665  11.529  27.969  0.00  0.00     0.028 H 
ATOM     38  H15 non d ame     -36.639  10.202  27.292  0.00  0.00     0.028 H 
ENDBRANCH  33  35
BRANCH  33  39
ATOM     39  C13 non d ame     -37.599   9.053  29.453  0.00  0.00    -0.071 C 
ATOM     40  H16 non d ame     -37.202   8.304  30.138  0.00  0.00     0.028 H 
ATOM     41  H17 non d ame     -38.607   9.332  29.764  0.00  0.00     0.028 H 
ATOM     42  H18 non d ame     -37.633   8.642  28.445  0.00  0.00     0.028 H 
ENDBRANCH  33  39
ENDBRANCH   7  33
ENDBRANCH   4   7
ENDBRANCH   1   3
BRANCH   1  43
ATOM     43  C15 non d ame     -33.037   7.491  26.290  0.00  0.00     0.240 C 
ATOM     44  O5  non d ame     -32.136   6.744  26.085  0.00  0.00    -0.271 OA
ATOM     45  N6  non d ame     -33.244   8.666  25.397  0.00  0.00    -0.355 N 
ATOM     46  H46 non d ame     -34.010   9.304  25.559  0.00  0.00     0.162 HD
BRANCH  45  47
ATOM     47  C20 non d ame     -32.320   8.900  24.266  0.00  0.00     0.013 C 
ATOM     48  H30 non d ame     -31.465   8.234  24.388  0.00  0.00     0.072 H 
BRANCH  47  49
ATOM     49  C21 non d ame     -31.859  10.340  24.286  0.00  0.00    -0.038 C 
ATOM     50  H31 non d ame     -30.858  10.335  23.851  0.00  0.00     0.036 H 
ATOM     51  H32 non d ame     -32.657  10.910  23.812  0.00  0.00     0.036 H 
BRANCH  49  52
ATOM     52  C22 non d ame     -31.710  10.902  25.716  0.00  0.00     0.018 C 
ATOM     53  H33 non d ame     -32.055  10.111  26.381  0.00  0.00     0.048 H 
ATOM     54  H34 non d ame     -30.682  11.262  25.785  0.00  0.00     0.048 H 
BRANCH  52  55
ATOM     55  C23 non d ame     -32.615  12.131  26.004  0.00  0.00     0.259 C 
ATOM     56  O7  non d ame     -33.478  12.067  26.819  0.00  0.00    -0.265 OA
BRANCH  55  57
ATOM     57  O8  non d ame     -32.412  13.333  25.271  0.00  0.00    -0.317 OA
BRANCH  57  58
ATOM     58  C29 non d ame     -31.047  13.758  25.217  0.00  0.00     0.052 C 
ATOM     59  H47 non d ame     -30.975  14.606  25.897  0.00  0.00     0.082 H 
ATOM     60  H48 non d ame     -30.452  12.862  25.395  0.00  0.00     0.082 H 
BRANCH  58  61
ATOM     61  C35 non d ame     -30.758  14.259  23.776  0.00  0.00    -0.034 A 
ATOM     62  C30 non d ame     -29.929  13.522  22.936  0.00  0.00    -0.075 A 
ATOM     63  C31 non d ame     -29.669  13.973  21.642  0.00  0.00    -0.082 A 
ATOM     64  H49 non d ame     -29.482  12.594  23.290  0.00  0.00     0.084 H 
ATOM     65  C32 non d ame     -30.239  15.166  21.190  0.00  0.00    -0.083 A 
ATOM     66  H50 non d ame     -29.020  13.393  20.985  0.00  0.00     0.083 H 
ATOM     67  C33 non d ame     -31.063  15.899  22.034  0.00  0.00    -0.082 A 
ATOM     68  H51 non d ame     -30.042  15.524  20.180  0.00  0.00     0.083 H 
ATOM     69  C34 non d ame     -31.327  15.452  23.327  0.00  0.00    -0.075 A 
ATOM     70  H52 non d ame     -31.506  16.831  21.679  0.00  0.00     0.083 H 
ATOM     71  H53 non d ame     -31.977  16.032  23.982  0.00  0.00     0.084 H 
ENDBRANCH  58  61
ENDBRANCH  57  58
ENDBRANCH  55  57
ENDBRANCH  52  55
ENDBRANCH  49  52
ENDBRANCH  47  49
BRANCH  47  72
ATOM     72  C24 non d ame     -33.033   8.610  22.947  0.00  0.00    -0.039 C 
ATOM     73  H35 non d ame     -34.073   8.898  23.111  0.00  0.00     0.036 H 
ATOM     74  H36 non d ame     -32.443   9.114  22.182  0.00  0.00     0.036 H 
BRANCH  72  75
ATOM     75  C25 non d ame     -33.024   7.047  22.599  0.00  0.00    -0.001 C 
ATOM     76  C26 non d ame     -31.504   6.445  22.771  0.00  0.00    -0.035 C 
ATOM     77  C27 non d ame     -31.170   5.773  21.642  0.00  0.00     0.085 C 
ATOM     78  H38 non d ame     -30.781   7.259  22.806  0.00  0.00     0.036 H 
ATOM     79  H39 non d ame     -31.493   5.672  23.539  0.00  0.00     0.036 H 
ATOM     80  N5  non d ame     -32.191   6.140  20.593  0.00  0.00    -0.049 N 
ATOM     81  H40 non d ame     -30.198   6.168  21.345  0.00  0.00     0.075 H 
ATOM     82  H41 non d ame     -31.278   4.717  21.889  0.00  0.00     0.075 H 
ATOM     83  C28 non d ame     -33.413   6.836  21.385  0.00  0.00     0.193 C 
ATOM     84  H42 non d ame     -31.757   6.832  19.999  0.00  0.00     0.280 HD
ATOM     85  H43 non d ame     -32.518   5.270  20.196  0.00  0.00     0.280 HD
ATOM     86  H44 non d ame     -34.338   6.290  21.566  0.00  0.00     0.129 H 
ATOM     87  H37 non d ame     -33.830   6.508  23.096  0.00  0.00     0.046 H 
BRANCH  83  88
ATOM     88  O6  non d ame     -33.804   8.042  20.727  0.00  0.00    -0.369 OA
ATOM     89  H45 non d ame     -34.536   7.861  20.133  0.00  0.00     0.212 HD
ENDBRANCH  83  88
ENDBRANCH  72  75
ENDBRANCH  47  72
ENDBRANCH  45  47
ENDBRANCH   1  43
BRANCH   1  90
ATOM     90  C16 non d ame     -35.223   6.467  26.995  0.00  0.00    -0.035 C 
ATOM     91  H21 non d ame     -36.077   7.090  27.260  0.00  0.00     0.037 H 
ATOM     92  H22 non d ame     -35.021   6.237  25.950  0.00  0.00     0.037 H 
BRANCH  90  93
ATOM     93  C17 non d ame     -35.436   5.098  27.716  0.00  0.00    -0.059 C 
ATOM     94  H23 non d ame     -35.640   4.349  26.951  0.00  0.00     0.038 H 
BRANCH  93  95
ATOM     95  C18 non d ame     -34.166   4.643  28.503  0.00  0.00    -0.073 C 
ATOM     96  H24 non d ame     -34.466   4.188  29.447  0.00  0.00     0.028 H 
ATOM     97  H25 non d ame     -33.613   3.914  27.909  0.00  0.00     0.028 H 
ATOM     98  H26 non d ame     -33.531   5.506  28.700  0.00  0.00     0.028 H 
ENDBRANCH  93  95
BRANCH  93  99
ATOM     99  C19 non d ame     -36.657   5.151  28.638  0.00  0.00    -0.073 C 
ATOM    100  H27 non d ame     -37.537   4.802  28.097  0.00  0.00     0.028 H 
ATOM    101  H28 non d ame     -36.487   4.510  29.504  0.00  0.00     0.028 H 
ATOM    102  H29 non d ame     -36.817   6.175  28.972  0.00  0.00     0.028 H 
ENDBRANCH  93  99
ENDBRANCH  90  93
ENDBRANCH   1  90
TORSDOF 26
ENDMDL
MODEL 17
REMARK VINA RESULT:      -6.5      2.776      8.908
REMARK  26 active torsions:
REMARK  status: ('A' for Active; 'I' for Inactive)
REMARK    1  A    between atoms: C2_2  and  C3_3 
REMARK    2  A    between atoms: C4_6  and  C5_7 
REMARK       I    between atoms: C5_7  and  N2_9 
REMARK    3  A    between atoms: N2_9  and  C6_10 
REMARK    4  A    between atoms: C6_10  and  C7_11 
REMARK    5  A    between atoms: C6_10  and  C8_13 
REMARK       I    between atoms: C7_11  and  N3_14 
REMARK    6  A    between atoms: N3_14  and  C9_15 
REMARK    7  A    between atoms: C9_15  and  C10_16 
REMARK    8  A    between atoms: C9_15  and  C11_18 
REMARK       I    between atoms: C10_16  and  N4_21 
REMARK    9  A    between atoms: C11_18  and  C12_19 
REMARK   10  A    between atoms: C11_18  and  C13_20 
REMARK   11  A    between atoms: N4_21  and  C14_22 
REMARK   12  A    between atoms: C14_22  and  C15_23 
REMARK   13  A    between atoms: C14_22  and  C16_25 
REMARK       I    between atoms: C15_23  and  N6_40 
REMARK   14  A    between atoms: C16_25  and  C17_26 
REMARK   15  A    between atoms: C17_26  and  C18_27 
REMARK   16  A    between atoms: C17_26  and  C19_28 
REMARK   17  A    between atoms: C20_29  and  C21_30 
REMARK   18  A    between atoms: C20_29  and  C24_33 
REMARK   19  A    between atoms: C20_29  and  N6_40 
REMARK   20  A    between atoms: C21_30  and  C22_31 
REMARK   21  A    between atoms: C22_31  and  C23_32 
REMARK   22  A    between atoms: C23_32  and  O8_43 
REMARK   23  A    between atoms: C24_33  and  C25_34 
REMARK   24  A    between atoms: C28_38  and  O6_39 
REMARK   25  A    between atoms: C29_42  and  O8_43 
REMARK   26  A    between atoms: C29_42  and  C35_49 
ROOT
ATOM      1  C14 non d ame     -33.941   6.769  27.736  0.00  0.00     0.089 C 
ATOM      2  H20 non d ame     -32.988   6.406  27.348  0.00  0.00     0.087 H 
ENDROOT
BRANCH   1   3
ATOM      3  N4  non d ame     -33.657   7.907  28.597  0.00  0.00    -0.346 N 
ATOM      4  C10 non d ame     -33.011   9.148  28.032  0.00  0.00     0.241 C 
ATOM      5  O4  non d ame     -32.725   9.205  26.882  0.00  0.00    -0.271 OA
ATOM      6  H19 non d ame     -33.906   7.837  29.574  0.00  0.00     0.163 HD
BRANCH   4   7
ATOM      7  C9  non d ame     -32.730  10.318  28.937  0.00  0.00     0.092 C 
ATOM      8  H11 non d ame     -31.671  10.326  29.196  0.00  0.00     0.088 H 
BRANCH   7   9
ATOM      9  N3  non d ame     -33.012  11.567  28.224  0.00  0.00    -0.346 N 
ATOM     10  C7  non d ame     -31.938  12.478  27.915  0.00  0.00     0.240 C 
ATOM     11  O3  non d ame     -30.841  12.223  28.234  0.00  0.00    -0.271 OA
ATOM     12  H10 non d ame     -33.953  11.802  27.944  0.00  0.00     0.163 HD
BRANCH  10  13
ATOM     13  C6  non d ame     -32.245  13.808  27.158  0.00  0.00     0.086 C 
ATOM     14  H6  non d ame     -31.687  14.657  27.554  0.00  0.00     0.086 H 
BRANCH  13  15
ATOM     15  N2  non d ame     -31.846  13.661  25.768  0.00  0.00    -0.343 N 
ATOM     16  C5  non d ame     -31.290  14.812  25.052  0.00  0.00     0.273 C 
ATOM     17  O2  non d ame     -31.170  15.851  25.602  0.00  0.00    -0.266 OA
ATOM     18  H5  non d ame     -31.955  12.771  25.305  0.00  0.00     0.163 HD
BRANCH  16  19
ATOM     19  C4  non d ame     -30.863  14.670  23.583  0.00  0.00     0.154 A 
ATOM     20  C1  non d ame     -31.194  15.542  22.498  0.00  0.00    -0.017 A 
ATOM     21  C2  non d ame     -30.562  14.975  21.369  0.00  0.00     0.077 A 
ATOM     22  H1  non d ame     -31.801  16.447  22.525  0.00  0.00     0.091 H 
ATOM     23  O1  non d ame     -29.941  13.904  21.770  0.00  0.00    -0.218 OA
ATOM     24  N1  non d ame     -30.102  13.706  23.058  0.00  0.00    -0.123 NA
BRANCH  21  25
ATOM     25  C3  non d ame     -30.600  15.518  19.946  0.00  0.00    -0.029 C 
ATOM     26  H2  non d ame     -31.590  15.353  19.520  0.00  0.00     0.036 H 
ATOM     27  H3  non d ame     -30.384  16.586  19.959  0.00  0.00     0.036 H 
ATOM     28  H4  non d ame     -29.854  15.004  19.341  0.00  0.00     0.036 H 
ENDBRANCH  21  25
ENDBRANCH  16  19
ENDBRANCH  13  15
BRANCH  13  29
ATOM     29  C8  non d ame     -33.720  14.110  27.243  0.00  0.00    -0.049 C 
ATOM     30  H7  non d ame     -34.127  14.217  26.238  0.00  0.00     0.030 H 
ATOM     31  H8  non d ame     -34.228  13.292  27.755  0.00  0.00     0.030 H 
ATOM     32  H9  non d ame     -33.870  15.036  27.798  0.00  0.00     0.030 H 
ENDBRANCH  13  29
ENDBRANCH  10  13
ENDBRANCH   7   9
BRANCH   7  33
ATOM     33  C11 non d ame     -33.638  10.227  30.198  0.00  0.00    -0.033 C 
ATOM     34  H12 non d ame     -33.440   9.268  30.677  0.00  0.00     0.042 H 
BRANCH  33  35
ATOM     35  C12 non d ame     -33.294  11.347  31.230  0.00  0.00    -0.071 C 
ATOM     36  H13 non d ame     -32.908  10.894  32.143  0.00  0.00     0.028 H 
ATOM     37  H14 non d ame     -32.541  12.011  30.807  0.00  0.00     0.028 H 
ATOM     38  H15 non d ame     -34.194  11.917  31.461  0.00  0.00     0.028 H 
ENDBRANCH  33  35
BRANCH  33  39
ATOM     39  C13 non d ame     -35.149  10.266  29.804  0.00  0.00    -0.071 C 
ATOM     40  H16 non d ame     -35.628   9.333  30.103  0.00  0.00     0.028 H 
ATOM     41  H17 non d ame     -35.636  11.102  30.307  0.00  0.00     0.028 H 
ATOM     42  H18 non d ame     -35.240  10.391  28.725  0.00  0.00     0.028 H 
ENDBRANCH  33  39
ENDBRANCH   7  33
ENDBRANCH   4   7
ENDBRANCH   1   3
BRANCH   1  43
ATOM     43  C15 non d ame     -34.899   7.232  26.602  0.00  0.00     0.240 C 
ATOM     44  O5  non d ame     -36.057   7.377  26.830  0.00  0.00    -0.271 OA
ATOM     45  N6  non d ame     -34.373   7.503  25.235  0.00  0.00    -0.355 N 
ATOM     46  H46 non d ame     -33.391   7.389  25.031  0.00  0.00     0.162 HD
BRANCH  45  47
ATOM     47  C20 non d ame     -35.297   7.945  24.167  0.00  0.00     0.013 C 
ATOM     48  H30 non d ame     -36.316   7.750  24.504  0.00  0.00     0.072 H 
BRANCH  47  49
ATOM     49  C21 non d ame     -35.012   7.164  22.904  0.00  0.00    -0.038 C 
ATOM     50  H31 non d ame     -35.988   6.889  22.501  0.00  0.00     0.036 H 
ATOM     51  H32 non d ame     -34.337   7.788  22.319  0.00  0.00     0.036 H 
BRANCH  49  52
ATOM     52  C22 non d ame     -34.263   5.842  23.174  0.00  0.00     0.018 C 
ATOM     53  H33 non d ame     -33.695   6.005  24.088  0.00  0.00     0.048 H 
ATOM     54  H34 non d ame     -35.023   5.060  23.137  0.00  0.00     0.048 H 
BRANCH  52  55
ATOM     55  C23 non d ame     -33.222   5.477  22.080  0.00  0.00     0.259 C 
ATOM     56  O7  non d ame     -33.576   5.104  21.009  0.00  0.00    -0.265 OA
BRANCH  55  57
ATOM     57  O8  non d ame     -31.834   5.580  22.377  0.00  0.00    -0.317 OA
BRANCH  57  58
ATOM     58  C29 non d ame     -31.547   6.323  23.566  0.00  0.00     0.052 C 
ATOM     59  H47 non d ame     -32.511   6.499  24.043  0.00  0.00     0.082 H 
ATOM     60  H48 non d ame     -30.775   5.759  24.088  0.00  0.00     0.082 H 
BRANCH  58  61
ATOM     61  C35 non d ame     -30.952   7.693  23.143  0.00  0.00    -0.034 A 
ATOM     62  C30 non d ame     -29.791   7.742  22.379  0.00  0.00    -0.075 A 
ATOM     63  C31 non d ame     -29.256   8.973  21.999  0.00  0.00    -0.082 A 
ATOM     64  H49 non d ame     -29.299   6.817  22.078  0.00  0.00     0.084 H 
ATOM     65  C32 non d ame     -29.887  10.158  22.389  0.00  0.00    -0.083 A 
ATOM     66  H50 non d ame     -28.347   9.008  21.399  0.00  0.00     0.083 H 
ATOM     67  C33 non d ame     -31.043  10.104  23.154  0.00  0.00    -0.082 A 
ATOM     68  H51 non d ame     -29.476  11.123  22.095  0.00  0.00     0.083 H 
ATOM     69  C34 non d ame     -31.582   8.876  23.534  0.00  0.00    -0.075 A 
ATOM     70  H52 non d ame     -31.532  11.030  23.459  0.00  0.00     0.083 H 
ATOM     71  H53 non d ame     -32.492   8.842  24.134  0.00  0.00     0.084 H 
ENDBRANCH  58  61
ENDBRANCH  57  58
ENDBRANCH  55  57
ENDBRANCH  52  55
ENDBRANCH  49  52
ENDBRANCH  47  49
BRANCH  47  72
ATOM     72  C24 non d ame     -35.104   9.436  23.900  0.00  0.00    -0.039 C 
ATOM     73  H35 non d ame     -34.076   9.652  24.196  0.00  0.00     0.036 H 
ATOM     74  H36 non d ame     -35.416   9.589  22.867  0.00  0.00     0.036 H 
BRANCH  72  75
ATOM     75  C25 non d ame     -36.060  10.333  24.821  0.00  0.00    -0.001 C 
ATOM     76  C26 non d ame     -37.214  11.051  23.896  0.00  0.00    -0.035 C 
ATOM     77  C27 non d ame     -37.224  12.379  24.163  0.00  0.00     0.085 C 
ATOM     78  H38 non d ame     -36.933  11.005  22.844  0.00  0.00     0.036 H 
ATOM     79  H39 non d ame     -38.204  10.721  24.210  0.00  0.00     0.036 H 
ATOM     80  N5  non d ame     -35.966  12.682  24.940  0.00  0.00    -0.049 N 
ATOM     81  H40 non d ame     -37.169  12.872  23.192  0.00  0.00     0.075 H 
ATOM     82  H41 non d ame     -38.087  12.540  24.808  0.00  0.00     0.075 H 
ATOM     83  C28 non d ame     -35.392  11.255  25.431  0.00  0.00     0.193 C 
ATOM     84  H42 non d ame     -35.312  13.082  24.283  0.00  0.00     0.280 HD
ATOM     85  H43 non d ame     -36.252  13.210  25.752  0.00  0.00     0.280 HD
ATOM     86  H44 non d ame     -35.513  10.935  26.465  0.00  0.00     0.129 H 
ATOM     87  H37 non d ame     -36.398   9.799  25.709  0.00  0.00     0.046 H 
BRANCH  83  88
ATOM     88  O6  non d ame     -33.990  11.169  25.167  0.00  0.00    -0.369 OA
ATOM     89  H45 non d ame     -33.568  11.997  25.408  0.00  0.00     0.212 HD
ENDBRANCH  83  88
ENDBRANCH  72  75
ENDBRANCH  47  72
ENDBRANCH  45  47
ENDBRANCH   1  43
BRANCH   1  90
ATOM     90  C16 non d ame     -34.610   5.679  28.559  0.00  0.00    -0.035 C 
ATOM     91  H21 non d ame     -35.534   5.445  28.031  0.00  0.00     0.037 H 
ATOM     92  H22 non d ame     -33.850   4.910  28.692  0.00  0.00     0.037 H 
BRANCH  90  93
ATOM     93  C17 non d ame     -35.026   6.142  29.991  0.00  0.00    -0.059 C 
ATOM     94  H23 non d ame     -34.598   7.130  30.158  0.00  0.00     0.038 H 
BRANCH  93  95
ATOM     95  C18 non d ame     -36.576   6.262  30.144  0.00  0.00    -0.073 C 
ATOM     96  H24 non d ame     -36.853   7.312  30.235  0.00  0.00     0.028 H 
ATOM     97  H25 non d ame     -37.062   5.835  29.267  0.00  0.00     0.028 H 
ATOM     98  H26 non d ame     -36.897   5.723  31.035  0.00  0.00     0.028 H 
ENDBRANCH  93  95
BRANCH  93  99
ATOM     99  C19 non d ame     -34.445   5.209  31.057  0.00  0.00    -0.073 C 
ATOM    100  H27 non d ame     -34.334   5.754  31.996  0.00  0.00     0.028 H 
ATOM    101  H28 non d ame     -35.117   4.364  31.206  0.00  0.00     0.028 H 
ATOM    102  H29 non d ame     -33.471   4.846  30.730  0.00  0.00     0.028 H 
ENDBRANCH  93  99
ENDBRANCH  90  93
ENDBRANCH   1  90
TORSDOF 26
ENDMDL
MODEL 18
REMARK VINA RESULT:      -6.4      2.784      7.621
REMARK  26 active torsions:
REMARK  status: ('A' for Active; 'I' for Inactive)
REMARK    1  A    between atoms: C2_2  and  C3_3 
REMARK    2  A    between atoms: C4_6  and  C5_7 
REMARK       I    between atoms: C5_7  and  N2_9 
REMARK    3  A    between atoms: N2_9  and  C6_10 
REMARK    4  A    between atoms: C6_10  and  C7_11 
REMARK    5  A    between atoms: C6_10  and  C8_13 
REMARK       I    between atoms: C7_11  and  N3_14 
REMARK    6  A    between atoms: N3_14  and  C9_15 
REMARK    7  A    between atoms: C9_15  and  C10_16 
REMARK    8  A    between atoms: C9_15  and  C11_18 
REMARK       I    between atoms: C10_16  and  N4_21 
REMARK    9  A    between atoms: C11_18  and  C12_19 
REMARK   10  A    between atoms: C11_18  and  C13_20 
REMARK   11  A    between atoms: N4_21  and  C14_22 
REMARK   12  A    between atoms: C14_22  and  C15_23 
REMARK   13  A    between atoms: C14_22  and  C16_25 
REMARK       I    between atoms: C15_23  and  N6_40 
REMARK   14  A    between atoms: C16_25  and  C17_26 
REMARK   15  A    between atoms: C17_26  and  C18_27 
REMARK   16  A    between atoms: C17_26  and  C19_28 
REMARK   17  A    between atoms: C20_29  and  C21_30 
REMARK   18  A    between atoms: C20_29  and  C24_33 
REMARK   19  A    between atoms: C20_29  and  N6_40 
REMARK   20  A    between atoms: C21_30  and  C22_31 
REMARK   21  A    between atoms: C22_31  and  C23_32 
REMARK   22  A    between atoms: C23_32  and  O8_43 
REMARK   23  A    between atoms: C24_33  and  C25_34 
REMARK   24  A    between atoms: C28_38  and  O6_39 
REMARK   25  A    between atoms: C29_42  and  O8_43 
REMARK   26  A    between atoms: C29_42  and  C35_49 
ROOT
ATOM      1  C14 non d ame     -34.083  10.081  29.169  0.00  0.00     0.089 C 
ATOM      2  H20 non d ame     -35.151  10.276  29.071  0.00  0.00     0.087 H 
ENDROOT
BRANCH   1   3
ATOM      3  N4  non d ame     -33.796   8.850  28.448  0.00  0.00    -0.346 N 
ATOM      4  C10 non d ame     -34.921   7.994  27.922  0.00  0.00     0.241 C 
ATOM      5  O4  non d ame     -36.050   8.314  28.095  0.00  0.00    -0.271 OA
ATOM      6  H19 non d ame     -32.828   8.593  28.313  0.00  0.00     0.163 HD
BRANCH   4   7
ATOM      7  C9  non d ame     -34.604   6.726  27.173  0.00  0.00     0.092 C 
ATOM      8  H11 non d ame     -35.448   6.040  27.255  0.00  0.00     0.088 H 
BRANCH   7   9
ATOM      9  N3  non d ame     -34.428   7.030  25.750  0.00  0.00    -0.346 N 
ATOM     10  C7  non d ame     -35.299   6.426  24.772  0.00  0.00     0.240 C 
ATOM     11  O3  non d ame     -36.145   5.692  25.112  0.00  0.00    -0.271 OA
ATOM     12  H10 non d ame     -33.702   7.659  25.441  0.00  0.00     0.163 HD
BRANCH  10  13
ATOM     13  C6  non d ame     -35.105   6.750  23.258  0.00  0.00     0.086 C 
ATOM     14  H6  non d ame     -35.641   7.647  22.947  0.00  0.00     0.086 H 
BRANCH  13  15
ATOM     15  N2  non d ame     -33.696   7.000  23.006  0.00  0.00    -0.343 N 
ATOM     16  C5  non d ame     -33.174   8.364  23.113  0.00  0.00     0.273 C 
ATOM     17  O2  non d ame     -33.897   9.254  23.399  0.00  0.00    -0.266 OA
ATOM     18  H5  non d ame     -33.086   6.234  22.758  0.00  0.00     0.163 HD
BRANCH  16  19
ATOM     19  C4  non d ame     -31.686   8.642  22.851  0.00  0.00     0.154 A 
ATOM     20  C1  non d ame     -30.630   7.681  22.758  0.00  0.00    -0.017 A 
ATOM     21  C2  non d ame     -29.466   8.442  22.510  0.00  0.00     0.077 A 
ATOM     22  H1  non d ame     -30.697   6.598  22.856  0.00  0.00     0.091 H 
ATOM     23  O1  non d ame     -29.823   9.693  22.465  0.00  0.00    -0.218 OA
ATOM     24  N1  non d ame     -31.114   9.834  22.662  0.00  0.00    -0.123 NA
BRANCH  21  25
ATOM     25  C3  non d ame     -28.055   7.898  22.327  0.00  0.00    -0.029 C 
ATOM     26  H2  non d ame     -27.725   8.081  21.304  0.00  0.00     0.036 H 
ATOM     27  H3  non d ame     -27.380   8.399  23.020  0.00  0.00     0.036 H 
ATOM     28  H4  non d ame     -28.050   6.827  22.524  0.00  0.00     0.036 H 
ENDBRANCH  21  25
ENDBRANCH  16  19
ENDBRANCH  13  15
BRANCH  13  29
ATOM     29  C8  non d ame     -35.580   5.585  22.426  0.00  0.00    -0.049 C 
ATOM     30  H7  non d ame     -36.349   5.038  22.972  0.00  0.00     0.030 H 
ATOM     31  H8  non d ame     -35.994   5.954  21.488  0.00  0.00     0.030 H 
ATOM     32  H9  non d ame     -34.741   4.922  22.217  0.00  0.00     0.030 H 
ENDBRANCH  13  29
ENDBRANCH  10  13
ENDBRANCH   7   9
BRANCH   7  33
ATOM     33  C11 non d ame     -33.291   6.107  27.735  0.00  0.00    -0.033 C 
ATOM     34  H12 non d ame     -32.993   6.699  28.600  0.00  0.00     0.042 H 
BRANCH  33  35
ATOM     35  C12 non d ame     -33.517   4.642  28.224  0.00  0.00    -0.071 C 
ATOM     36  H13 non d ame     -33.287   4.575  29.287  0.00  0.00     0.028 H 
ATOM     37  H14 non d ame     -34.556   4.360  28.058  0.00  0.00     0.028 H 
ATOM     38  H15 non d ame     -32.864   3.969  27.669  0.00  0.00     0.028 H 
ENDBRANCH  33  35
BRANCH  33  39
ATOM     39  C13 non d ame     -32.141   6.181  26.680  0.00  0.00    -0.071 C 
ATOM     40  H16 non d ame     -31.933   7.224  26.441  0.00  0.00     0.028 H 
ATOM     41  H17 non d ame     -31.243   5.715  27.087  0.00  0.00     0.028 H 
ATOM     42  H18 non d ame     -32.444   5.654  25.775  0.00  0.00     0.028 H 
ENDBRANCH  33  39
ENDBRANCH   7  33
ENDBRANCH   4   7
ENDBRANCH   1   3
BRANCH   1  43
ATOM     43  C15 non d ame     -33.218  11.223  28.564  0.00  0.00     0.240 C 
ATOM     44  O5  non d ame     -32.094  11.007  28.244  0.00  0.00    -0.271 OA
ATOM     45  N6  non d ame     -33.794  12.584  28.374  0.00  0.00    -0.355 N 
ATOM     46  H46 non d ame     -34.750  12.778  28.637  0.00  0.00     0.162 HD
BRANCH  45  47
ATOM     47  C20 non d ame     -32.960  13.660  27.795  0.00  0.00     0.013 C 
ATOM     48  H30 non d ame     -31.951  13.553  28.195  0.00  0.00     0.072 H 
BRANCH  47  49
ATOM     49  C21 non d ame     -33.532  15.003  28.189  0.00  0.00    -0.038 C 
ATOM     50  H31 non d ame     -34.492  15.076  27.675  0.00  0.00     0.036 H 
ATOM     51  H32 non d ame     -33.494  15.031  29.277  0.00  0.00     0.036 H 
BRANCH  49  52
ATOM     52  C22 non d ame     -32.679  16.188  27.690  0.00  0.00     0.018 C 
ATOM     53  H33 non d ame     -31.717  15.762  27.407  0.00  0.00     0.048 H 
ATOM     54  H34 non d ame     -33.290  16.697  26.942  0.00  0.00     0.048 H 
BRANCH  52  55
ATOM     55  C23 non d ame     -32.374  17.246  28.786  0.00  0.00     0.259 C 
ATOM     56  O7  non d ame     -31.900  16.919  29.825  0.00  0.00    -0.265 OA
BRANCH  55  57
ATOM     57  O8  non d ame     -32.681  18.613  28.540  0.00  0.00    -0.317 OA
BRANCH  57  58
ATOM     58  C29 non d ame     -32.621  18.984  27.159  0.00  0.00     0.052 C 
ATOM     59  H47 non d ame     -31.997  19.876  27.120  0.00  0.00     0.082 H 
ATOM     60  H48 non d ame     -32.319  18.083  26.625  0.00  0.00     0.082 H 
BRANCH  58  61
ATOM     61  C35 non d ame     -34.054  19.367  26.703  0.00  0.00    -0.034 A 
ATOM     62  C30 non d ame     -34.678  18.647  25.689  0.00  0.00    -0.075 A 
ATOM     63  C31 non d ame     -35.966  18.991  25.278  0.00  0.00    -0.082 A 
ATOM     64  H49 non d ame     -34.159  17.814  25.215  0.00  0.00     0.084 H 
ATOM     65  C32 non d ame     -36.628  20.062  25.885  0.00  0.00    -0.083 A 
ATOM     66  H50 non d ame     -36.452  18.424  24.484  0.00  0.00     0.083 H 
ATOM     67  C33 non d ame     -36.000  20.779  26.894  0.00  0.00    -0.082 A 
ATOM     68  H51 non d ame     -37.635  20.336  25.570  0.00  0.00     0.083 H 
ATOM     69  C34 non d ame     -34.715  20.437  27.308  0.00  0.00    -0.075 A 
ATOM     70  H52 non d ame     -36.519  21.615  27.364  0.00  0.00     0.083 H 
ATOM     71  H53 non d ame     -34.229  21.005  28.102  0.00  0.00     0.084 H 
ENDBRANCH  58  61
ENDBRANCH  57  58
ENDBRANCH  55  57
ENDBRANCH  52  55
ENDBRANCH  49  52
ENDBRANCH  47  49
BRANCH  47  72
ATOM     72  C24 non d ame     -32.942  13.539  26.273  0.00  0.00    -0.039 C 
ATOM     73  H35 non d ame     -33.494  12.625  26.049  0.00  0.00     0.036 H 
ATOM     74  H36 non d ame     -33.303  14.498  25.902  0.00  0.00     0.036 H 
BRANCH  72  75
ATOM     75  C25 non d ame     -31.455  13.344  25.711  0.00  0.00    -0.001 C 
ATOM     76  C26 non d ame     -31.070  14.586  24.705  0.00  0.00    -0.035 C 
ATOM     77  C27 non d ame     -30.606  14.075  23.539  0.00  0.00     0.085 C 
ATOM     78  H38 non d ame     -31.973  15.120  24.408  0.00  0.00     0.036 H 
ATOM     79  H39 non d ame     -30.216  15.136  25.100  0.00  0.00     0.036 H 
ATOM     80  N5  non d ame     -30.946  12.605  23.535  0.00  0.00    -0.049 N 
ATOM     81  H40 non d ame     -31.176  14.574  22.755  0.00  0.00     0.075 H 
ATOM     82  H41 non d ame     -29.523  14.189  23.582  0.00  0.00     0.075 H 
ATOM     83  C28 non d ame     -31.344  12.236  25.055  0.00  0.00     0.193 C 
ATOM     84  H42 non d ame     -31.765  12.501  22.954  0.00  0.00     0.280 HD
ATOM     85  H43 non d ame     -30.094  12.115  23.298  0.00  0.00     0.280 HD
ATOM     86  H44 non d ame     -30.648  11.696  25.695  0.00  0.00     0.129 H 
ATOM     87  H37 non d ame     -30.743  13.106  26.501  0.00  0.00     0.046 H 
BRANCH  83  88
ATOM     88  O6  non d ame     -32.553  11.474  25.077  0.00  0.00    -0.369 OA
ATOM     89  H45 non d ame     -32.365  10.570  24.816  0.00  0.00     0.212 HD
ENDBRANCH  83  88
ENDBRANCH  72  75
ENDBRANCH  47  72
ENDBRANCH  45  47
ENDBRANCH   1  43
BRANCH   1  90
ATOM     90  C16 non d ame     -33.727   9.891  30.635  0.00  0.00    -0.035 C 
ATOM     91  H21 non d ame     -33.048   9.040  30.660  0.00  0.00     0.037 H 
ATOM     92  H22 non d ame     -33.389  10.868  30.978  0.00  0.00     0.037 H 
BRANCH  90  93
ATOM     93  C17 non d ame     -34.947   9.506  31.531  0.00  0.00    -0.059 C 
ATOM     94  H23 non d ame     -34.770   9.917  32.525  0.00  0.00     0.038 H 
BRANCH  93  95
ATOM     95  C18 non d ame     -36.285  10.109  30.996  0.00  0.00    -0.073 C 
ATOM     96  H24 non d ame     -36.777  10.667  31.793  0.00  0.00     0.028 H 
ATOM     97  H25 non d ame     -36.074  10.779  30.162  0.00  0.00     0.028 H 
ATOM     98  H26 non d ame     -36.938   9.304  30.659  0.00  0.00     0.028 H 
ENDBRANCH  93  95
BRANCH  93  99
ATOM     99  C19 non d ame     -35.057   7.986  31.681  0.00  0.00    -0.073 C 
ATOM    100  H27 non d ame     -34.073   7.536  31.547  0.00  0.00     0.028 H 
ATOM    101  H28 non d ame     -35.432   7.745  32.676  0.00  0.00     0.028 H 
ATOM    102  H29 non d ame     -35.742   7.595  30.930  0.00  0.00     0.028 H 
ENDBRANCH  93  99
ENDBRANCH  90  93
ENDBRANCH   1  90
TORSDOF 26
ENDMDL
MODEL 19
REMARK VINA RESULT:      -6.4      3.144      8.455
REMARK  26 active torsions:
REMARK  status: ('A' for Active; 'I' for Inactive)
REMARK    1  A    between atoms: C2_2  and  C3_3 
REMARK    2  A    between atoms: C4_6  and  C5_7 
REMARK       I    between atoms: C5_7  and  N2_9 
REMARK    3  A    between atoms: N2_9  and  C6_10 
REMARK    4  A    between atoms: C6_10  and  C7_11 
REMARK    5  A    between atoms: C6_10  and  C8_13 
REMARK       I    between atoms: C7_11  and  N3_14 
REMARK    6  A    between atoms: N3_14  and  C9_15 
REMARK    7  A    between atoms: C9_15  and  C10_16 
REMARK    8  A    between atoms: C9_15  and  C11_18 
REMARK       I    between atoms: C10_16  and  N4_21 
REMARK    9  A    between atoms: C11_18  and  C12_19 
REMARK   10  A    between atoms: C11_18  and  C13_20 
REMARK   11  A    between atoms: N4_21  and  C14_22 
REMARK   12  A    between atoms: C14_22  and  C15_23 
REMARK   13  A    between atoms: C14_22  and  C16_25 
REMARK       I    between atoms: C15_23  and  N6_40 
REMARK   14  A    between atoms: C16_25  and  C17_26 
REMARK   15  A    between atoms: C17_26  and  C18_27 
REMARK   16  A    between atoms: C17_26  and  C19_28 
REMARK   17  A    between atoms: C20_29  and  C21_30 
REMARK   18  A    between atoms: C20_29  and  C24_33 
REMARK   19  A    between atoms: C20_29  and  N6_40 
REMARK   20  A    between atoms: C21_30  and  C22_31 
REMARK   21  A    between atoms: C22_31  and  C23_32 
REMARK   22  A    between atoms: C23_32  and  O8_43 
REMARK   23  A    between atoms: C24_33  and  C25_34 
REMARK   24  A    between atoms: C28_38  and  O6_39 
REMARK   25  A    between atoms: C29_42  and  O8_43 
REMARK   26  A    between atoms: C29_42  and  C35_49 
ROOT
ATOM      1  C14 non d ame     -33.025   9.263  27.398  0.00  0.00     0.089 C 
ATOM      2  H20 non d ame     -32.009   8.868  27.367  0.00  0.00     0.087 H 
ENDROOT
BRANCH   1   3
ATOM      3  N4  non d ame     -32.935  10.676  27.735  0.00  0.00    -0.346 N 
ATOM      4  C10 non d ame     -31.799  11.514  27.205  0.00  0.00     0.241 C 
ATOM      5  O4  non d ame     -30.967  11.029  26.513  0.00  0.00    -0.271 OA
ATOM      6  H19 non d ame     -33.652  11.069  28.328  0.00  0.00     0.163 HD
BRANCH   4   7
ATOM      7  C9  non d ame     -31.725  12.976  27.559  0.00  0.00     0.092 C 
ATOM      8  H11 non d ame     -30.685  13.302  27.524  0.00  0.00     0.088 H 
BRANCH   7   9
ATOM      9  N3  non d ame     -32.459  13.759  26.562  0.00  0.00    -0.346 N 
ATOM     10  C7  non d ame     -31.752  14.374  25.465  0.00  0.00     0.240 C 
ATOM     11  O3  non d ame     -30.591  14.250  25.372  0.00  0.00    -0.271 OA
ATOM     12  H10 non d ame     -33.459  13.876  26.630  0.00  0.00     0.163 HD
BRANCH  10  13
ATOM     13  C6  non d ame     -32.538  15.209  24.407  0.00  0.00     0.086 C 
ATOM     14  H6  non d ame     -33.475  14.737  24.110  0.00  0.00     0.086 H 
BRANCH  13  15
ATOM     15  N2  non d ame     -32.887  16.495  24.987  0.00  0.00    -0.343 N 
ATOM     16  C5  non d ame     -34.184  16.662  25.646  0.00  0.00     0.273 C 
ATOM     17  O2  non d ame     -34.941  15.757  25.702  0.00  0.00    -0.266 OA
ATOM     18  H5  non d ame     -32.235  17.265  24.931  0.00  0.00     0.163 HD
BRANCH  16  19
ATOM     19  C4  non d ame     -34.565  18.016  26.265  0.00  0.00     0.154 A 
ATOM     20  C1  non d ame     -35.732  18.796  25.988  0.00  0.00    -0.017 A 
ATOM     21  C2  non d ame     -35.608  19.940  26.808  0.00  0.00     0.077 A 
ATOM     22  H1  non d ame     -36.544  18.568  25.298  0.00  0.00     0.091 H 
ATOM     23  O1  non d ame     -34.497  19.820  27.475  0.00  0.00    -0.218 OA
ATOM     24  N1  non d ame     -33.871  18.706  27.174  0.00  0.00    -0.123 NA
BRANCH  21  25
ATOM     25  C3  non d ame     -36.594  21.098  26.895  0.00  0.00    -0.029 C 
ATOM     26  H2  non d ame     -36.760  21.509  25.900  0.00  0.00     0.036 H 
ATOM     27  H3  non d ame     -37.539  20.740  27.302  0.00  0.00     0.036 H 
ATOM     28  H4  non d ame     -36.188  21.872  27.545  0.00  0.00     0.036 H 
ENDBRANCH  21  25
ENDBRANCH  16  19
ENDBRANCH  13  15
BRANCH  13  29
ATOM     29  C8  non d ame     -31.682  15.409  23.183  0.00  0.00    -0.049 C 
ATOM     30  H7  non d ame     -32.176  16.102  22.503  0.00  0.00     0.030 H 
ATOM     31  H8  non d ame     -30.715  15.818  23.479  0.00  0.00     0.030 H 
ATOM     32  H9  non d ame     -31.533  14.452  22.682  0.00  0.00     0.030 H 
ENDBRANCH  13  29
ENDBRANCH  10  13
ENDBRANCH   7   9
BRANCH   7  33
ATOM     33  C11 non d ame     -32.360  13.202  28.962  0.00  0.00    -0.033 C 
ATOM     34  H12 non d ame     -33.217  12.534  29.046  0.00  0.00     0.042 H 
BRANCH  33  35
ATOM     35  C12 non d ame     -31.363  12.832  30.105  0.00  0.00    -0.071 C 
ATOM     36  H13 non d ame     -30.364  12.704  29.688  0.00  0.00     0.028 H 
ATOM     37  H14 non d ame     -31.348  13.631  30.846  0.00  0.00     0.028 H 
ATOM     38  H15 non d ame     -31.681  11.903  30.578  0.00  0.00     0.028 H 
ENDBRANCH  33  35
BRANCH  33  39
ATOM     39  C13 non d ame     -32.875  14.670  29.113  0.00  0.00    -0.071 C 
ATOM     40  H16 non d ame     -32.160  15.355  28.658  0.00  0.00     0.028 H 
ATOM     41  H17 non d ame     -33.841  14.769  28.617  0.00  0.00     0.028 H 
ATOM     42  H18 non d ame     -32.986  14.909  30.170  0.00  0.00     0.028 H 
ENDBRANCH  33  39
ENDBRANCH   7  33
ENDBRANCH   4   7
ENDBRANCH   1   3
BRANCH   1  43
ATOM     43  C15 non d ame     -33.752   9.125  26.031  0.00  0.00     0.240 C 
ATOM     44  O5  non d ame     -34.758   9.726  25.833  0.00  0.00    -0.271 OA
ATOM     45  N6  non d ame     -33.190   8.250  24.963  0.00  0.00    -0.355 N 
ATOM     46  H46 non d ame     -32.333   7.738  25.118  0.00  0.00     0.162 HD
BRANCH  45  47
ATOM     47  C20 non d ame     -33.892   8.130  23.667  0.00  0.00     0.013 C 
ATOM     48  H30 non d ame     -34.797   8.736  23.719  0.00  0.00     0.072 H 
BRANCH  47  49
ATOM     49  C21 non d ame     -34.252   6.682  23.425  0.00  0.00    -0.038 C 
ATOM     50  H31 non d ame     -34.604   6.633  22.394  0.00  0.00     0.036 H 
ATOM     51  H32 non d ame     -33.379   6.106  23.731  0.00  0.00     0.036 H 
BRANCH  49  52
ATOM     52  C22 non d ame     -35.424   6.200  24.308  0.00  0.00     0.018 C 
ATOM     53  H33 non d ame     -35.787   7.087  24.826  0.00  0.00     0.048 H 
ATOM     54  H34 non d ame     -36.088   5.649  23.641  0.00  0.00     0.048 H 
BRANCH  52  55
ATOM     55  C23 non d ame     -35.002   5.198  25.417  0.00  0.00     0.259 C 
ATOM     56  O7  non d ame     -35.116   4.027  25.248  0.00  0.00    -0.265 OA
BRANCH  55  57
ATOM     57  O8  non d ame     -34.490   5.695  26.648  0.00  0.00    -0.317 OA
BRANCH  57  58
ATOM     58  C29 non d ame     -34.370   4.702  27.671  0.00  0.00     0.052 C 
ATOM     59  H47 non d ame     -34.817   3.798  27.258  0.00  0.00     0.082 H 
ATOM     60  H48 non d ame     -33.321   4.707  27.966  0.00  0.00     0.082 H 
BRANCH  58  61
ATOM     61  C35 non d ame     -35.222   5.160  28.886  0.00  0.00    -0.034 A 
ATOM     62  C30 non d ame     -36.587   5.383  28.734  0.00  0.00    -0.075 A 
ATOM     63  C31 non d ame     -37.352   5.795  29.825  0.00  0.00    -0.082 A 
ATOM     64  H49 non d ame     -37.057   5.237  27.762  0.00  0.00     0.084 H 
ATOM     65  C32 non d ame     -36.746   5.986  31.070  0.00  0.00    -0.083 A 
ATOM     66  H50 non d ame     -38.422   5.968  29.703  0.00  0.00     0.083 H 
ATOM     67  C33 non d ame     -35.384   5.764  31.215  0.00  0.00    -0.082 A 
ATOM     68  H51 non d ame     -37.338   6.306  31.928  0.00  0.00     0.083 H 
ATOM     69  C34 non d ame     -34.616   5.351  30.129  0.00  0.00    -0.075 A 
ATOM     70  H52 non d ame     -34.914   5.916  32.188  0.00  0.00     0.083 H 
ATOM     71  H53 non d ame     -33.546   5.178  30.251  0.00  0.00     0.084 H 
ENDBRANCH  58  61
ENDBRANCH  57  58
ENDBRANCH  55  57
ENDBRANCH  52  55
ENDBRANCH  49  52
ENDBRANCH  47  49
BRANCH  47  72
ATOM     72  C24 non d ame     -32.986   8.625  22.541  0.00  0.00    -0.039 C 
ATOM     73  H35 non d ame     -33.106   7.901  21.734  0.00  0.00     0.036 H 
ATOM     74  H36 non d ame     -33.264   9.667  22.383  0.00  0.00     0.036 H 
BRANCH  72  75
ATOM     75  C25 non d ame     -31.443   8.606  22.969  0.00  0.00    -0.001 C 
ATOM     76  C26 non d ame     -30.869  10.144  23.061  0.00  0.00    -0.035 C 
ATOM     77  C27 non d ame     -29.730  10.229  22.334  0.00  0.00     0.085 C 
ATOM     78  H38 non d ame     -31.548  10.828  22.553  0.00  0.00     0.036 H 
ATOM     79  H39 non d ame     -30.539  10.359  24.078  0.00  0.00     0.036 H 
ATOM     80  N5  non d ame     -29.651   8.980  21.490  0.00  0.00    -0.049 N 
ATOM     81  H40 non d ame     -29.864  11.092  21.681  0.00  0.00     0.075 H 
ATOM     82  H41 non d ame     -28.918  10.217  23.061  0.00  0.00     0.075 H 
ATOM     83  C28 non d ame     -30.728   7.953  22.114  0.00  0.00     0.193 C 
ATOM     84  H42 non d ame     -29.955   9.241  20.563  0.00  0.00     0.280 HD
ATOM     85  H43 non d ame     -28.725   8.599  21.628  0.00  0.00     0.280 HD
ATOM     86  H44 non d ame     -30.403   7.114  22.728  0.00  0.00     0.129 H 
ATOM     87  H37 non d ame     -31.260   7.956  23.825  0.00  0.00     0.046 H 
BRANCH  83  88
ATOM     88  O6  non d ame     -31.523   7.379  21.074  0.00  0.00    -0.369 OA
ATOM     89  H45 non d ame     -32.027   6.642  21.426  0.00  0.00     0.212 HD
ENDBRANCH  83  88
ENDBRANCH  72  75
ENDBRANCH  47  72
ENDBRANCH  45  47
ENDBRANCH   1  43
BRANCH   1  90
ATOM     90  C16 non d ame     -33.823   8.546  28.476  0.00  0.00    -0.035 C 
ATOM     91  H21 non d ame     -34.536   7.921  27.941  0.00  0.00     0.037 H 
ATOM     92  H22 non d ame     -33.080   8.088  29.129  0.00  0.00     0.037 H 
BRANCH  90  93
ATOM     93  C17 non d ame     -34.667   9.506  29.374  0.00  0.00    -0.059 C 
ATOM     94  H23 non d ame     -34.424  10.529  29.086  0.00  0.00     0.038 H 
BRANCH  93  95
ATOM     95  C18 non d ame     -36.203   9.305  29.170  0.00  0.00    -0.073 C 
ATOM     96  H24 non d ame     -36.605  10.138  28.595  0.00  0.00     0.028 H 
ATOM     97  H25 non d ame     -36.379   8.374  28.631  0.00  0.00     0.028 H 
ATOM     98  H26 non d ame     -36.696   9.261  30.141  0.00  0.00     0.028 H 
ENDBRANCH  93  95
BRANCH  93  99
ATOM     99  C19 non d ame     -34.289   9.348  30.849  0.00  0.00    -0.073 C 
ATOM    100  H27 non d ame     -35.145   9.605  31.474  0.00  0.00     0.028 H 
ATOM    101  H28 non d ame     -33.997   8.316  31.042  0.00  0.00     0.028 H 
ATOM    102  H29 non d ame     -33.456  10.010  31.084  0.00  0.00     0.028 H 
ENDBRANCH  93  99
ENDBRANCH  90  93
ENDBRANCH   1  90
TORSDOF 26
ENDMDL
MODEL 20
REMARK VINA RESULT:      -6.4      2.476      7.424
REMARK  26 active torsions:
REMARK  status: ('A' for Active; 'I' for Inactive)
REMARK    1  A    between atoms: C2_2  and  C3_3 
REMARK    2  A    between atoms: C4_6  and  C5_7 
REMARK       I    between atoms: C5_7  and  N2_9 
REMARK    3  A    between atoms: N2_9  and  C6_10 
REMARK    4  A    between atoms: C6_10  and  C7_11 
REMARK    5  A    between atoms: C6_10  and  C8_13 
REMARK       I    between atoms: C7_11  and  N3_14 
REMARK    6  A    between atoms: N3_14  and  C9_15 
REMARK    7  A    between atoms: C9_15  and  C10_16 
REMARK    8  A    between atoms: C9_15  and  C11_18 
REMARK       I    between atoms: C10_16  and  N4_21 
REMARK    9  A    between atoms: C11_18  and  C12_19 
REMARK   10  A    between atoms: C11_18  and  C13_20 
REMARK   11  A    between atoms: N4_21  and  C14_22 
REMARK   12  A    between atoms: C14_22  and  C15_23 
REMARK   13  A    between atoms: C14_22  and  C16_25 
REMARK       I    between atoms: C15_23  and  N6_40 
REMARK   14  A    between atoms: C16_25  and  C17_26 
REMARK   15  A    between atoms: C17_26  and  C18_27 
REMARK   16  A    between atoms: C17_26  and  C19_28 
REMARK   17  A    between atoms: C20_29  and  C21_30 
REMARK   18  A    between atoms: C20_29  and  C24_33 
REMARK   19  A    between atoms: C20_29  and  N6_40 
REMARK   20  A    between atoms: C21_30  and  C22_31 
REMARK   21  A    between atoms: C22_31  and  C23_32 
REMARK   22  A    between atoms: C23_32  and  O8_43 
REMARK   23  A    between atoms: C24_33  and  C25_34 
REMARK   24  A    between atoms: C28_38  and  O6_39 
REMARK   25  A    between atoms: C29_42  and  O8_43 
REMARK   26  A    between atoms: C29_42  and  C35_49 
ROOT
ATOM      1  C14 non d ame     -34.002   9.263  25.664  0.00  0.00     0.089 C 
ATOM      2  H20 non d ame     -33.747   8.234  25.920  0.00  0.00     0.087 H 
ENDROOT
BRANCH   1   3
ATOM      3  N4  non d ame     -33.807  10.072  26.858  0.00  0.00    -0.346 N 
ATOM      4  C10 non d ame     -33.184   9.470  28.093  0.00  0.00     0.241 C 
ATOM      5  O4  non d ame     -32.851   8.332  28.103  0.00  0.00    -0.271 OA
ATOM      6  H19 non d ame     -34.099  11.038  26.829  0.00  0.00     0.163 HD
BRANCH   4   7
ATOM      7  C9  non d ame     -32.985  10.324  29.317  0.00  0.00     0.092 C 
ATOM      8  H11 non d ame     -31.965  10.197  29.681  0.00  0.00     0.088 H 
BRANCH   7   9
ATOM      9  N3  non d ame     -33.145  11.736  28.960  0.00  0.00    -0.346 N 
ATOM     10  C7  non d ame     -31.983  12.555  28.717  0.00  0.00     0.240 C 
ATOM     11  O3  non d ame     -30.911  12.093  28.806  0.00  0.00    -0.271 OA
ATOM     12  H10 non d ame     -34.063  12.149  28.881  0.00  0.00     0.163 HD
BRANCH  10  13
ATOM     13  C6  non d ame     -32.160  14.059  28.340  0.00  0.00     0.086 C 
ATOM     14  H6  non d ame     -31.756  14.297  27.356  0.00  0.00     0.086 H 
BRANCH  13  15
ATOM     15  N2  non d ame     -33.579  14.369  28.294  0.00  0.00    -0.343 N 
ATOM     16  C5  non d ame     -34.079  15.313  27.291  0.00  0.00     0.273 C 
ATOM     17  O2  non d ame     -33.331  15.819  26.529  0.00  0.00    -0.266 OA
ATOM     18  H5  non d ame     -34.210  13.935  28.952  0.00  0.00     0.163 HD
BRANCH  16  19
ATOM     19  C4  non d ame     -35.577  15.648  27.230  0.00  0.00     0.154 A 
ATOM     20  C1  non d ame     -36.197  16.898  27.549  0.00  0.00    -0.017 A 
ATOM     21  C2  non d ame     -37.577  16.685  27.331  0.00  0.00     0.077 A 
ATOM     22  H1  non d ame     -35.720  17.817  27.889  0.00  0.00     0.091 H 
ATOM     23  O1  non d ame     -37.721  15.456  26.931  0.00  0.00    -0.218 OA
ATOM     24  N1  non d ame     -36.568  14.831  26.865  0.00  0.00    -0.123 NA
BRANCH  21  25
ATOM     25  C3  non d ame     -38.688  17.708  27.527  0.00  0.00    -0.029 C 
ATOM     26  H2  non d ame     -38.684  18.413  26.696  0.00  0.00     0.036 H 
ATOM     27  H3  non d ame     -39.650  17.196  27.563  0.00  0.00     0.036 H 
ATOM     28  H4  non d ame     -38.528  18.245  28.460  0.00  0.00     0.036 H 
ENDBRANCH  21  25
ENDBRANCH  16  19
ENDBRANCH  13  15
BRANCH  13  29
ATOM     29  C8  non d ame     -31.476  14.922  29.370  0.00  0.00    -0.049 C 
ATOM     30  H7  non d ame     -30.431  15.060  29.094  0.00  0.00     0.030 H 
ATOM     31  H8  non d ame     -31.970  15.892  29.416  0.00  0.00     0.030 H 
ATOM     32  H9  non d ame     -31.533  14.438  30.345  0.00  0.00     0.030 H 
ENDBRANCH  13  29
ENDBRANCH  10  13
ENDBRANCH   7   9
BRANCH   7  33
ATOM     33  C11 non d ame     -34.041   9.941  30.394  0.00  0.00    -0.033 C 
ATOM     34  H12 non d ame     -33.763   8.964  30.793  0.00  0.00     0.042 H 
BRANCH  33  35
ATOM     35  C12 non d ame     -34.036  10.952  31.583  0.00  0.00    -0.071 C 
ATOM     36  H13 non d ame     -33.996  11.969  31.194  0.00  0.00     0.028 H 
ATOM     37  H14 non d ame     -34.943  10.823  32.172  0.00  0.00     0.028 H 
ATOM     38  H15 non d ame     -33.164  10.769  32.212  0.00  0.00     0.028 H 
ENDBRANCH  33  35
BRANCH  33  39
ATOM     39  C13 non d ame     -35.464   9.817  29.762  0.00  0.00    -0.071 C 
ATOM     40  H16 non d ame     -35.586   8.822  29.332  0.00  0.00     0.028 H 
ATOM     41  H17 non d ame     -36.220   9.974  30.533  0.00  0.00     0.028 H 
ATOM     42  H18 non d ame     -35.582  10.568  28.982  0.00  0.00     0.028 H 
ENDBRANCH  33  39
ENDBRANCH   7  33
ENDBRANCH   4   7
ENDBRANCH   1   3
BRANCH   1  43
ATOM     43  C15 non d ame     -33.099   9.827  24.530  0.00  0.00     0.240 C 
ATOM     44  O5  non d ame     -33.304   9.515  23.402  0.00  0.00    -0.271 OA
ATOM     45  N6  non d ame     -31.986  10.765  24.850  0.00  0.00    -0.355 N 
ATOM     46  H46 non d ame     -31.806  11.041  25.805  0.00  0.00     0.162 HD
BRANCH  45  47
ATOM     47  C20 non d ame     -31.137  11.295  23.760  0.00  0.00     0.013 C 
ATOM     48  H30 non d ame     -31.729  11.294  22.844  0.00  0.00     0.072 H 
BRANCH  47  49
ATOM     49  C21 non d ame     -29.925  10.407  23.594  0.00  0.00    -0.038 C 
ATOM     50  H31 non d ame     -29.067  11.080  23.569  0.00  0.00     0.036 H 
ATOM     51  H32 non d ame     -30.003   9.653  24.376  0.00  0.00     0.036 H 
BRANCH  49  52
ATOM     52  C22 non d ame     -29.920   9.645  22.251  0.00  0.00     0.018 C 
ATOM     53  H33 non d ame     -30.957   9.371  22.063  0.00  0.00     0.048 H 
ATOM     54  H34 non d ame     -29.391  10.290  21.548  0.00  0.00     0.048 H 
BRANCH  52  55
ATOM     55  C23 non d ame     -29.125   8.311  22.290  0.00  0.00     0.259 C 
ATOM     56  O7  non d ame     -28.007   8.263  21.890  0.00  0.00    -0.265 OA
BRANCH  55  57
ATOM     57  O8  non d ame     -29.753   7.139  22.798  0.00  0.00    -0.317 OA
BRANCH  57  58
ATOM     58  C29 non d ame     -31.085   6.939  22.316  0.00  0.00     0.052 C 
ATOM     59  H47 non d ame     -31.523   7.934  22.239  0.00  0.00     0.082 H 
ATOM     60  H48 non d ame     -30.988   6.315  21.428  0.00  0.00     0.082 H 
BRANCH  58  61
ATOM     61  C35 non d ame     -31.869   6.140  23.392  0.00  0.00    -0.034 A 
ATOM     62  C30 non d ame     -31.725   6.460  24.739  0.00  0.00    -0.075 A 
ATOM     63  C31 non d ame     -32.429   5.743  25.706  0.00  0.00    -0.082 A 
ATOM     64  H49 non d ame     -31.062   7.272  25.037  0.00  0.00     0.084 H 
ATOM     65  C32 non d ame     -33.276   4.700  25.322  0.00  0.00    -0.083 A 
ATOM     66  H50 non d ame     -32.315   5.997  26.760  0.00  0.00     0.083 H 
ATOM     67  C33 non d ame     -33.414   4.383  23.977  0.00  0.00    -0.082 A 
ATOM     68  H51 non d ame     -33.830   4.135  26.071  0.00  0.00     0.083 H 
ATOM     69  C34 non d ame     -32.714   5.098  23.008  0.00  0.00    -0.075 A 
ATOM     70  H52 non d ame     -34.074   3.567  23.681  0.00  0.00     0.083 H 
ATOM     71  H53 non d ame     -32.829   4.844  21.954  0.00  0.00     0.084 H 
ENDBRANCH  58  61
ENDBRANCH  57  58
ENDBRANCH  55  57
ENDBRANCH  52  55
ENDBRANCH  49  52
ENDBRANCH  47  49
BRANCH  47  72
ATOM     72  C24 non d ame     -30.687  12.714  24.099  0.00  0.00    -0.039 C 
ATOM     73  H35 non d ame     -31.444  13.102  24.782  0.00  0.00     0.036 H 
ATOM     74  H36 non d ame     -29.653  12.619  24.430  0.00  0.00     0.036 H 
BRANCH  72  75
ATOM     75  C25 non d ame     -30.685  13.660  22.807  0.00  0.00    -0.001 C 
ATOM     76  C26 non d ame     -29.160  13.782  22.205  0.00  0.00    -0.035 C 
ATOM     77  C27 non d ame     -28.857  15.093  22.046  0.00  0.00     0.085 C 
ATOM     78  H38 non d ame     -28.437  13.441  22.946  0.00  0.00     0.036 H 
ATOM     79  H39 non d ame     -29.127  13.388  21.189  0.00  0.00     0.036 H 
ATOM     80  N5  non d ame     -29.906  15.882  22.790  0.00  0.00    -0.049 N 
ATOM     81  H40 non d ame     -27.893  15.230  22.539  0.00  0.00     0.075 H 
ATOM     82  H41 non d ame     -28.956  15.288  20.979  0.00  0.00     0.075 H 
ATOM     83  C28 non d ame     -31.107  14.847  23.095  0.00  0.00     0.193 C 
ATOM     84  H42 non d ame     -29.489  16.158  23.668  0.00  0.00     0.280 HD
ATOM     85  H43 non d ame     -30.243  16.585  22.148  0.00  0.00     0.280 HD
ATOM     86  H44 non d ame     -32.026  14.877  22.512  0.00  0.00     0.129 H 
ATOM     87  H37 non d ame     -31.477  13.402  22.104  0.00  0.00     0.046 H 
BRANCH  83  88
ATOM     88  O6  non d ame     -31.518  14.956  24.460  0.00  0.00    -0.369 OA
ATOM     89  H45 non d ame     -30.915  14.458  25.016  0.00  0.00     0.212 HD
ENDBRANCH  83  88
ENDBRANCH  72  75
ENDBRANCH  47  72
ENDBRANCH  45  47
ENDBRANCH   1  43
BRANCH   1  90
ATOM     90  C16 non d ame     -35.461   9.342  25.244  0.00  0.00    -0.035 C 
ATOM     91  H21 non d ame     -35.954   9.924  26.022  0.00  0.00     0.037 H 
ATOM     92  H22 non d ame     -35.446   9.709  24.218  0.00  0.00     0.037 H 
BRANCH  90  93
ATOM     93  C17 non d ame     -36.180   7.956  25.208  0.00  0.00    -0.059 C 
ATOM     94  H23 non d ame     -37.254   8.140  25.218  0.00  0.00     0.038 H 
BRANCH  93  95
ATOM     95  C18 non d ame     -35.844   7.152  23.912  0.00  0.00    -0.073 C 
ATOM     96  H24 non d ame     -34.799   7.307  23.648  0.00  0.00     0.028 H 
ATOM     97  H25 non d ame     -36.020   6.090  24.087  0.00  0.00     0.028 H 
ATOM     98  H26 non d ame     -36.480   7.495  23.096  0.00  0.00     0.028 H 
ENDBRANCH  93  95
BRANCH  93  99
ATOM     99  C19 non d ame     -35.848   7.136  26.458  0.00  0.00    -0.073 C 
ATOM    100  H27 non d ame     -36.418   7.518  27.306  0.00  0.00     0.028 H 
ATOM    101  H28 non d ame     -36.108   6.092  26.288  0.00  0.00     0.028 H 
ATOM    102  H29 non d ame     -34.782   7.214  26.671  0.00  0.00     0.028 H 
ENDBRANCH  93  99
ENDBRANCH  90  93
ENDBRANCH   1  90
TORSDOF 26
ENDMDL
