MODEL 1
REMARK VINA RESULT:      -7.4      0.000      0.000
REMARK  26 active torsions:
REMARK  status: ('A' for Active; 'I' for Inactive)
REMARK    1  A    between atoms: C2_2  and  C3_3 
REMARK    2  A    between atoms: C4_6  and  C5_7 
REMARK       I    between atoms: C5_7  and  N2_9 
REMARK    3  A    between atoms: N2_9  and  C6_10 
REMARK    4  A    between atoms: C6_10  and  C7_11 
REMARK    5  A    between atoms: C6_10  and  C8_13 
REMARK       I    between atoms: C7_11  and  N3_14 
REMARK    6  A    between atoms: N3_14  and  C9_15 
REMARK    7  A    between atoms: C9_15  and  C10_16 
REMARK    8  A    between atoms: C9_15  and  C11_18 
REMARK       I    between atoms: C10_16  and  N4_21 
REMARK    9  A    between atoms: C11_18  and  C12_19 
REMARK   10  A    between atoms: C11_18  and  C13_20 
REMARK   11  A    between atoms: N4_21  and  C14_22 
REMARK   12  A    between atoms: C14_22  and  C15_23 
REMARK   13  A    between atoms: C14_22  and  C16_25 
REMARK       I    between atoms: C15_23  and  N6_40 
REMARK   14  A    between atoms: C16_25  and  C17_26 
REMARK   15  A    between atoms: C17_26  and  C18_27 
REMARK   16  A    between atoms: C17_26  and  C19_28 
REMARK   17  A    between atoms: C20_29  and  C21_30 
REMARK   18  A    between atoms: C20_29  and  C24_33 
REMARK   19  A    between atoms: C20_29  and  N6_40 
REMARK   20  A    between atoms: C21_30  and  C22_31 
REMARK   21  A    between atoms: C22_31  and  C23_32 
REMARK   22  A    between atoms: C23_32  and  O8_43 
REMARK   23  A    between atoms: C24_33  and  C25_34 
REMARK   24  A    between atoms: C28_38  and  O6_39 
REMARK   25  A    between atoms: C29_42  and  O8_43 
REMARK   26  A    between atoms: C29_42  and  C35_49 
ROOT
ATOM      1  C14 non d ame     -30.709  14.336  23.785  0.00  0.00     0.089 C 
ATOM      2  H20 non d ame     -29.633  14.373  23.617  0.00  0.00     0.087 H 
ENDROOT
BRANCH   1   3
ATOM      3  N4  non d ame     -31.065  12.948  24.042  0.00  0.00    -0.346 N 
ATOM      4  C10 non d ame     -30.454  11.841  23.221  0.00  0.00     0.241 C 
ATOM      5  O4  non d ame     -29.682  12.091  22.355  0.00  0.00    -0.271 OA
ATOM      6  H19 non d ame     -31.726  12.757  24.782  0.00  0.00     0.163 HD
BRANCH   4   7
ATOM      7  C9  non d ame     -30.829  10.410  23.505  0.00  0.00     0.092 C 
ATOM      8  H11 non d ame     -30.401  10.110  24.462  0.00  0.00     0.088 H 
BRANCH   7   9
ATOM      9  N3  non d ame     -32.285  10.301  23.628  0.00  0.00    -0.346 N 
ATOM     10  C7  non d ame     -32.900  10.293  24.933  0.00  0.00     0.240 C 
ATOM     11  O3  non d ame     -32.237  10.371  25.895  0.00  0.00    -0.271 OA
ATOM     12  H10 non d ame     -32.870  10.231  22.808  0.00  0.00     0.163 HD
BRANCH  10  13
ATOM     13  C6  non d ame     -34.450  10.173  25.058  0.00  0.00     0.086 C 
ATOM     14  H6  non d ame     -34.765   9.755  26.014  0.00  0.00     0.086 H 
BRANCH  13  15
ATOM     15  N2  non d ame     -35.033  11.503  24.975  0.00  0.00    -0.343 N 
ATOM     16  C5  non d ame     -35.445  12.188  26.202  0.00  0.00     0.273 C 
ATOM     17  O2  non d ame     -35.306  11.661  27.250  0.00  0.00    -0.266 OA
ATOM     18  H5  non d ame     -35.152  11.944  24.074  0.00  0.00     0.163 HD
BRANCH  16  19
ATOM     19  C4  non d ame     -36.061  13.594  26.128  0.00  0.00     0.154 A 
ATOM     20  C1  non d ame     -35.864  14.572  25.103  0.00  0.00    -0.017 A 
ATOM     21  C2  non d ame     -36.644  15.680  25.502  0.00  0.00     0.077 A 
ATOM     22  H1  non d ame     -35.249  14.491  24.207  0.00  0.00     0.091 H 
ATOM     23  O1  non d ame     -37.219  15.364  26.625  0.00  0.00    -0.218 OA
ATOM     24  N1  non d ame     -36.894  14.152  27.011  0.00  0.00    -0.123 NA
BRANCH  21  25
ATOM     25  C3  non d ame     -36.785  17.000  24.755  0.00  0.00    -0.029 C 
ATOM     26  H2  non d ame     -37.046  16.802  23.715  0.00  0.00     0.036 H 
ATOM     27  H3  non d ame     -37.569  17.597  25.218  0.00  0.00     0.036 H 
ATOM     28  H4  non d ame     -35.842  17.543  24.795  0.00  0.00     0.036 H 
ENDBRANCH  21  25
ENDBRANCH  16  19
ENDBRANCH  13  15
BRANCH  13  29
ATOM     29  C8  non d ame     -34.982   9.305  23.946  0.00  0.00    -0.049 C 
ATOM     30  H7  non d ame     -35.812   9.812  23.454  0.00  0.00     0.030 H 
ATOM     31  H8  non d ame     -34.190   9.120  23.221  0.00  0.00     0.030 H 
ATOM     32  H9  non d ame     -35.328   8.357  24.358  0.00  0.00     0.030 H 
ENDBRANCH  13  29
ENDBRANCH  10  13
ENDBRANCH   7   9
BRANCH   7  33
ATOM     33  C11 non d ame     -30.341   9.504  22.337  0.00  0.00    -0.033 C 
ATOM     34  H12 non d ame     -30.135  10.152  21.484  0.00  0.00     0.042 H 
BRANCH  33  35
ATOM     35  C12 non d ame     -29.012   8.772  22.702  0.00  0.00    -0.071 C 
ATOM     36  H13 non d ame     -28.638   9.150  23.652  0.00  0.00     0.028 H 
ATOM     37  H14 non d ame     -29.200   7.701  22.785  0.00  0.00     0.028 H 
ATOM     38  H15 non d ame     -28.272   8.952  21.922  0.00  0.00     0.028 H 
ENDBRANCH  33  35
BRANCH  33  39
ATOM     39  C13 non d ame     -31.451   8.489  21.915  0.00  0.00    -0.071 C 
ATOM     40  H16 non d ame     -32.112   8.299  22.761  0.00  0.00     0.028 H 
ATOM     41  H17 non d ame     -32.028   8.903  21.088  0.00  0.00     0.028 H 
ATOM     42  H18 non d ame     -30.987   7.555  21.599  0.00  0.00     0.028 H 
ENDBRANCH  33  39
ENDBRANCH   7  33
ENDBRANCH   4   7
ENDBRANCH   1   3
BRANCH   1  43
ATOM     43  C15 non d ame     -31.143  15.193  25.008  0.00  0.00     0.240 C 
ATOM     44  O5  non d ame     -30.780  16.322  25.097  0.00  0.00    -0.271 OA
ATOM     45  N6  non d ame     -32.018  14.611  26.064  0.00  0.00    -0.355 N 
ATOM     46  H46 non d ame     -32.337  13.655  25.997  0.00  0.00     0.162 HD
BRANCH  45  47
ATOM     47  C20 non d ame     -32.424  15.440  27.221  0.00  0.00     0.013 C 
ATOM     48  H30 non d ame     -31.519  15.829  27.688  0.00  0.00     0.072 H 
BRANCH  47  49
ATOM     49  C21 non d ame     -33.187  14.583  28.206  0.00  0.00    -0.038 C 
ATOM     50  H31 non d ame     -33.880  15.259  28.710  0.00  0.00     0.036 H 
ATOM     51  H32 non d ame     -33.569  13.741  27.630  0.00  0.00     0.036 H 
BRANCH  49  52
ATOM     52  C22 non d ame     -32.284  13.986  29.307  0.00  0.00     0.018 C 
ATOM     53  H33 non d ame     -31.406  14.630  29.350  0.00  0.00     0.048 H 
ATOM     54  H34 non d ame     -32.922  13.876  30.185  0.00  0.00     0.048 H 
BRANCH  52  55
ATOM     55  C23 non d ame     -31.756  12.562  28.980  0.00  0.00     0.259 C 
ATOM     56  O7  non d ame     -30.891  12.408  28.180  0.00  0.00    -0.265 OA
BRANCH  55  57
ATOM     57  O8  non d ame     -32.328  11.439  29.639  0.00  0.00    -0.317 OA
BRANCH  57  58
ATOM     58  C29 non d ame     -32.883  11.738  30.924  0.00  0.00     0.052 C 
ATOM     59  H47 non d ame     -32.058  11.648  31.629  0.00  0.00     0.082 H 
ATOM     60  H48 non d ame     -33.399  12.691  30.807  0.00  0.00     0.082 H 
BRANCH  58  61
ATOM     61  C35 non d ame     -33.936  10.647  31.257  0.00  0.00    -0.034 A 
ATOM     62  C30 non d ame     -34.790  10.813  32.343  0.00  0.00    -0.075 A 
ATOM     63  C31 non d ame     -35.736   9.833  32.643  0.00  0.00    -0.082 A 
ATOM     64  H49 non d ame     -34.719  11.709  32.959  0.00  0.00     0.084 H 
ATOM     65  C32 non d ame     -35.823   8.683  31.853  0.00  0.00    -0.083 A 
ATOM     66  H50 non d ame     -36.405   9.966  33.494  0.00  0.00     0.083 H 
ATOM     67  C33 non d ame     -34.967   8.521  30.773  0.00  0.00    -0.082 A 
ATOM     68  H51 non d ame     -36.560   7.913  32.081  0.00  0.00     0.083 H 
ATOM     69  C34 non d ame     -34.022   9.499  30.469  0.00  0.00    -0.075 A 
ATOM     70  H52 non d ame     -35.036   7.622  30.160  0.00  0.00     0.083 H 
ATOM     71  H53 non d ame     -33.354   9.365  29.618  0.00  0.00     0.084 H 
ENDBRANCH  58  61
ENDBRANCH  57  58
ENDBRANCH  55  57
ENDBRANCH  52  55
ENDBRANCH  49  52
ENDBRANCH  47  49
BRANCH  47  72
ATOM     72  C24 non d ame     -33.313  16.588  26.748  0.00  0.00    -0.039 C 
ATOM     73  H35 non d ame     -32.743  17.091  25.965  0.00  0.00     0.036 H 
ATOM     74  H36 non d ame     -34.275  16.132  26.514  0.00  0.00     0.036 H 
BRANCH  72  75
ATOM     75  C25 non d ame     -33.567  17.659  27.911  0.00  0.00    -0.001 C 
ATOM     76  C26 non d ame     -35.164  18.040  27.981  0.00  0.00    -0.035 C 
ATOM     77  C27 non d ame     -35.293  19.389  27.954  0.00  0.00     0.085 C 
ATOM     78  H38 non d ame     -35.666  17.718  27.069  0.00  0.00     0.036 H 
ATOM     79  H39 non d ame     -35.572  17.765  28.954  0.00  0.00     0.036 H 
ATOM     80  N5  non d ame     -33.954  19.951  27.542  0.00  0.00    -0.049 N 
ATOM     81  H40 non d ame     -36.022  19.596  27.170  0.00  0.00     0.075 H 
ATOM     82  H41 non d ame     -35.500  19.682  28.983  0.00  0.00     0.075 H 
ATOM     83  C28 non d ame     -32.896  18.743  27.704  0.00  0.00     0.193 C 
ATOM     84  H42 non d ame     -34.030  20.184  26.562  0.00  0.00     0.280 HD
ATOM     85  H43 non d ame     -33.727  20.670  28.215  0.00  0.00     0.280 HD
ATOM     86  H44 non d ame     -32.210  18.717  28.549  0.00  0.00     0.129 H 
ATOM     87  H37 non d ame     -33.083  17.377  28.846  0.00  0.00     0.046 H 
BRANCH  83  88
ATOM     88  O6  non d ame     -32.071  18.652  26.540  0.00  0.00    -0.369 OA
ATOM     89  H45 non d ame     -32.503  19.093  25.806  0.00  0.00     0.212 HD
ENDBRANCH  83  88
ENDBRANCH  72  75
ENDBRANCH  47  72
ENDBRANCH  45  47
ENDBRANCH   1  43
BRANCH   1  90
ATOM     90  C16 non d ame     -31.441  14.813  22.541  0.00  0.00    -0.035 C 
ATOM     91  H21 non d ame     -31.720  13.907  22.005  0.00  0.00     0.037 H 
ATOM     92  H22 non d ame     -32.214  15.491  22.903  0.00  0.00     0.037 H 
BRANCH  90  93
ATOM     93  C17 non d ame     -30.546  15.643  21.566  0.00  0.00    -0.059 C 
ATOM     94  H23 non d ame     -30.846  16.687  21.649  0.00  0.00     0.038 H 
BRANCH  93  95
ATOM     95  C18 non d ame     -29.031  15.550  21.935  0.00  0.00    -0.073 C 
ATOM     96  H24 non d ame     -28.464  16.251  21.322  0.00  0.00     0.028 H 
ATOM     97  H25 non d ame     -28.897  15.800  22.988  0.00  0.00     0.028 H 
ATOM     98  H26 non d ame     -28.674  14.537  21.755  0.00  0.00     0.028 H 
ENDBRANCH  93  95
BRANCH  93  99
ATOM     99  C19 non d ame     -30.780  15.217  20.114  0.00  0.00    -0.073 C 
ATOM    100  H27 non d ame     -31.840  15.016  19.960  0.00  0.00     0.028 H 
ATOM    101  H28 non d ame     -30.462  16.017  19.445  0.00  0.00     0.028 H 
ATOM    102  H29 non d ame     -30.204  14.317  19.902  0.00  0.00     0.028 H 
ENDBRANCH  93  99
ENDBRANCH  90  93
ENDBRANCH   1  90
TORSDOF 26
ENDMDL
MODEL 2
REMARK VINA RESULT:      -7.4      1.644      2.343
REMARK  26 active torsions:
REMARK  status: ('A' for Active; 'I' for Inactive)
REMARK    1  A    between atoms: C2_2  and  C3_3 
REMARK    2  A    between atoms: C4_6  and  C5_7 
REMARK       I    between atoms: C5_7  and  N2_9 
REMARK    3  A    between atoms: N2_9  and  C6_10 
REMARK    4  A    between atoms: C6_10  and  C7_11 
REMARK    5  A    between atoms: C6_10  and  C8_13 
REMARK       I    between atoms: C7_11  and  N3_14 
REMARK    6  A    between atoms: N3_14  and  C9_15 
REMARK    7  A    between atoms: C9_15  and  C10_16 
REMARK    8  A    between atoms: C9_15  and  C11_18 
REMARK       I    between atoms: C10_16  and  N4_21 
REMARK    9  A    between atoms: C11_18  and  C12_19 
REMARK   10  A    between atoms: C11_18  and  C13_20 
REMARK   11  A    between atoms: N4_21  and  C14_22 
REMARK   12  A    between atoms: C14_22  and  C15_23 
REMARK   13  A    between atoms: C14_22  and  C16_25 
REMARK       I    between atoms: C15_23  and  N6_40 
REMARK   14  A    between atoms: C16_25  and  C17_26 
REMARK   15  A    between atoms: C17_26  and  C18_27 
REMARK   16  A    between atoms: C17_26  and  C19_28 
REMARK   17  A    between atoms: C20_29  and  C21_30 
REMARK   18  A    between atoms: C20_29  and  C24_33 
REMARK   19  A    between atoms: C20_29  and  N6_40 
REMARK   20  A    between atoms: C21_30  and  C22_31 
REMARK   21  A    between atoms: C22_31  and  C23_32 
REMARK   22  A    between atoms: C23_32  and  O8_43 
REMARK   23  A    between atoms: C24_33  and  C25_34 
REMARK   24  A    between atoms: C28_38  and  O6_39 
REMARK   25  A    between atoms: C29_42  and  O8_43 
REMARK   26  A    between atoms: C29_42  and  C35_49 
ROOT
ATOM      1  C14 non d ame     -31.053  14.054  24.393  0.00  0.00     0.089 C 
ATOM      2  H20 non d ame     -30.066  13.641  24.601  0.00  0.00     0.087 H 
ENDROOT
BRANCH   1   3
ATOM      3  N4  non d ame     -32.024  12.988  24.593  0.00  0.00    -0.346 N 
ATOM      4  C10 non d ame     -31.836  11.985  25.704  0.00  0.00     0.241 C 
ATOM      5  O4  non d ame     -30.894  12.054  26.422  0.00  0.00    -0.271 OA
ATOM      6  H19 non d ame     -32.817  12.946  23.970  0.00  0.00     0.163 HD
BRANCH   4   7
ATOM      7  C9  non d ame     -32.854  10.893  25.900  0.00  0.00     0.092 C 
ATOM      8  H11 non d ame     -33.016  10.740  26.967  0.00  0.00     0.088 H 
BRANCH   7   9
ATOM      9  N3  non d ame     -34.135  11.308  25.322  0.00  0.00    -0.346 N 
ATOM     10  C7  non d ame     -35.200  11.761  26.181  0.00  0.00     0.240 C 
ATOM     11  O3  non d ame     -35.045  11.796  27.341  0.00  0.00    -0.271 OA
ATOM     12  H10 non d ame     -34.285  11.281  24.324  0.00  0.00     0.163 HD
BRANCH  10  13
ATOM     13  C6  non d ame     -36.563  12.198  25.560  0.00  0.00     0.086 C 
ATOM     14  H6  non d ame     -37.414  11.959  26.198  0.00  0.00     0.086 H 
BRANCH  13  15
ATOM     15  N2  non d ame     -36.563  13.642  25.394  0.00  0.00    -0.343 N 
ATOM     16  C5  non d ame     -37.504  14.458  26.166  0.00  0.00     0.273 C 
ATOM     17  O2  non d ame     -38.258  13.942  26.915  0.00  0.00    -0.266 OA
ATOM     18  H5  non d ame     -35.917  14.074  24.748  0.00  0.00     0.163 HD
BRANCH  16  19
ATOM     19  C4  non d ame     -37.513  15.985  26.001  0.00  0.00     0.154 A 
ATOM     20  C1  non d ame     -37.125  16.733  24.844  0.00  0.00    -0.017 A 
ATOM     21  C2  non d ame     -37.317  18.086  25.204  0.00  0.00     0.077 A 
ATOM     22  H1  non d ame     -36.759  16.353  23.891  0.00  0.00     0.091 H 
ATOM     23  O1  non d ame     -37.767  18.101  26.425  0.00  0.00    -0.218 OA
ATOM     24  N1  non d ame     -37.888  16.888  26.911  0.00  0.00    -0.123 NA
BRANCH  21  25
ATOM     25  C3  non d ame     -37.050  19.299  24.323  0.00  0.00    -0.029 C 
ATOM     26  H2  non d ame     -37.773  20.082  24.554  0.00  0.00     0.036 H 
ATOM     27  H3  non d ame     -36.043  19.670  24.511  0.00  0.00     0.036 H 
ATOM     28  H4  non d ame     -37.144  19.016  23.276  0.00  0.00     0.036 H 
ENDBRANCH  21  25
ENDBRANCH  16  19
ENDBRANCH  13  15
BRANCH  13  29
ATOM     29  C8  non d ame     -36.750  11.525  24.224  0.00  0.00    -0.049 C 
ATOM     30  H7  non d ame     -37.738  11.068  24.182  0.00  0.00     0.030 H 
ATOM     31  H8  non d ame     -36.657  12.265  23.429  0.00  0.00     0.030 H 
ATOM     32  H9  non d ame     -35.988  10.756  24.095  0.00  0.00     0.030 H 
ENDBRANCH  13  29
ENDBRANCH  10  13
ENDBRANCH   7   9
BRANCH   7  33
ATOM     33  C11 non d ame     -32.364   9.595  25.192  0.00  0.00    -0.033 C 
ATOM     34  H12 non d ame     -31.281   9.668  25.087  0.00  0.00     0.042 H 
BRANCH  33  35
ATOM     35  C12 non d ame     -32.669   8.328  26.051  0.00  0.00    -0.071 C 
ATOM     36  H13 non d ame     -33.367   8.588  26.847  0.00  0.00     0.028 H 
ATOM     37  H14 non d ame     -33.109   7.559  25.418  0.00  0.00     0.028 H 
ATOM     38  H15 non d ame     -31.743   7.955  26.489  0.00  0.00     0.028 H 
ENDBRANCH  33  35
BRANCH  33  39
ATOM     39  C13 non d ame     -32.980   9.472  23.762  0.00  0.00    -0.071 C 
ATOM     40  H16 non d ame     -33.999   9.090  23.836  0.00  0.00     0.028 H 
ATOM     41  H17 non d ame     -32.993  10.452  23.285  0.00  0.00     0.028 H 
ATOM     42  H18 non d ame     -32.378   8.787  23.165  0.00  0.00     0.028 H 
ENDBRANCH  33  39
ENDBRANCH   7  33
ENDBRANCH   4   7
ENDBRANCH   1   3
BRANCH   1  43
ATOM     43  C15 non d ame     -31.409  15.233  25.342  0.00  0.00     0.240 C 
ATOM     44  O5  non d ame     -31.018  16.328  25.096  0.00  0.00    -0.271 OA
ATOM     45  N6  non d ame     -32.247  15.000  26.553  0.00  0.00    -0.355 N 
ATOM     46  H46 non d ame     -32.589  14.074  26.769  0.00  0.00     0.162 HD
BRANCH  45  47
ATOM     47  C20 non d ame     -32.579  16.132  27.445  0.00  0.00     0.013 C 
ATOM     48  H30 non d ame     -31.844  16.919  27.275  0.00  0.00     0.072 H 
BRANCH  47  49
ATOM     49  C21 non d ame     -32.518  15.669  28.883  0.00  0.00    -0.038 C 
ATOM     50  H31 non d ame     -31.469  15.745  29.173  0.00  0.00     0.036 H 
ATOM     51  H32 non d ame     -33.272  16.251  29.412  0.00  0.00     0.036 H 
BRANCH  49  52
ATOM     52  C22 non d ame     -32.911  14.186  29.053  0.00  0.00     0.018 C 
ATOM     53  H33 non d ame     -33.746  14.180  29.753  0.00  0.00     0.048 H 
ATOM     54  H34 non d ame     -33.047  13.799  28.042  0.00  0.00     0.048 H 
BRANCH  52  55
ATOM     55  C23 non d ame     -31.801  13.313  29.701  0.00  0.00     0.259 C 
ATOM     56  O7  non d ame     -30.658  13.491  29.428  0.00  0.00    -0.265 OA
BRANCH  55  57
ATOM     57  O8  non d ame     -32.167  12.286  30.615  0.00  0.00    -0.317 OA
BRANCH  57  58
ATOM     58  C29 non d ame     -32.610  11.080  29.987  0.00  0.00     0.052 C 
ATOM     59  H47 non d ame     -33.057  11.387  29.042  0.00  0.00     0.082 H 
ATOM     60  H48 non d ame     -31.750  10.410  29.993  0.00  0.00     0.082 H 
BRANCH  58  61
ATOM     61  C35 non d ame     -33.721  10.458  30.876  0.00  0.00    -0.034 A 
ATOM     62  C30 non d ame     -34.242  11.179  31.946  0.00  0.00    -0.075 A 
ATOM     63  C31 non d ame     -35.240  10.620  32.744  0.00  0.00    -0.082 A 
ATOM     64  H49 non d ame     -33.869  12.180  32.159  0.00  0.00     0.084 H 
ATOM     65  C32 non d ame     -35.714   9.335  32.471  0.00  0.00    -0.083 A 
ATOM     66  H50 non d ame     -35.647  11.189  33.581  0.00  0.00     0.083 H 
ATOM     67  C33 non d ame     -35.189   8.618  31.404  0.00  0.00    -0.082 A 
ATOM     68  H51 non d ame     -36.494   8.892  33.090  0.00  0.00     0.083 H 
ATOM     69  C34 non d ame     -34.194   9.173  30.603  0.00  0.00    -0.075 A 
ATOM     70  H52 non d ame     -35.560   7.614  31.194  0.00  0.00     0.083 H 
ATOM     71  H53 non d ame     -33.787   8.604  29.766  0.00  0.00     0.084 H 
ENDBRANCH  58  61
ENDBRANCH  57  58
ENDBRANCH  55  57
ENDBRANCH  52  55
ENDBRANCH  49  52
ENDBRANCH  47  49
BRANCH  47  72
ATOM     72  C24 non d ame     -33.984  16.642  27.132  0.00  0.00    -0.039 C 
ATOM     73  H35 non d ame     -34.290  16.112  26.229  0.00  0.00     0.036 H 
ATOM     74  H36 non d ame     -34.550  16.517  28.055  0.00  0.00     0.036 H 
BRANCH  72  75
ATOM     75  C25 non d ame     -33.983  18.206  26.785  0.00  0.00    -0.001 C 
ATOM     76  C26 non d ame     -32.462  18.811  26.936  0.00  0.00    -0.035 C 
ATOM     77  C27 non d ame     -32.507  19.911  27.726  0.00  0.00     0.085 C 
ATOM     78  H38 non d ame     -31.838  18.118  27.499  0.00  0.00     0.036 H 
ATOM     79  H39 non d ame     -32.118  19.200  25.978  0.00  0.00     0.036 H 
ATOM     80  N5  non d ame     -33.861  19.921  28.393  0.00  0.00    -0.049 N 
ATOM     81  H40 non d ame     -31.738  19.756  28.485  0.00  0.00     0.075 H 
ATOM     82  H41 non d ame     -32.439  20.761  27.047  0.00  0.00     0.075 H 
ATOM     83  C28 non d ame     -34.765  18.861  27.577  0.00  0.00     0.193 C 
ATOM     84  H42 non d ame     -33.722  19.571  29.330  0.00  0.00     0.280 HD
ATOM     85  H43 non d ame     -34.243  20.846  28.251  0.00  0.00     0.280 HD
ATOM     86  H44 non d ame     -35.520  19.204  26.871  0.00  0.00     0.129 H 
ATOM     87  H37 non d ame     -34.514  18.424  25.859  0.00  0.00     0.046 H 
BRANCH  83  88
ATOM     88  O6  non d ame     -35.456  18.001  28.486  0.00  0.00    -0.369 OA
ATOM     89  H45 non d ame     -35.427  18.377  29.368  0.00  0.00     0.212 HD
ENDBRANCH  83  88
ENDBRANCH  72  75
ENDBRANCH  47  72
ENDBRANCH  45  47
ENDBRANCH   1  43
BRANCH   1  90
ATOM     90  C16 non d ame     -31.122  14.522  22.948  0.00  0.00    -0.035 C 
ATOM     91  H21 non d ame     -31.912  13.929  22.489  0.00  0.00     0.037 H 
ATOM     92  H22 non d ame     -31.216  15.606  23.000  0.00  0.00     0.037 H 
BRANCH  90  93
ATOM     93  C17 non d ame     -29.823  14.229  22.132  0.00  0.00    -0.059 C 
ATOM     94  H23 non d ame     -29.994  14.558  21.107  0.00  0.00     0.038 H 
BRANCH  93  95
ATOM     95  C18 non d ame     -28.590  15.014  22.685  0.00  0.00    -0.073 C 
ATOM     96  H24 non d ame     -28.871  15.534  23.600  0.00  0.00     0.028 H 
ATOM     97  H25 non d ame     -27.781  14.315  22.900  0.00  0.00     0.028 H 
ATOM     98  H26 non d ame     -28.257  15.738  21.943  0.00  0.00     0.028 H 
ENDBRANCH  93  95
BRANCH  93  99
ATOM     99  C19 non d ame     -29.534  12.726  22.085  0.00  0.00    -0.073 C 
ATOM    100  H27 non d ame     -30.447  12.173  22.309  0.00  0.00     0.028 H 
ATOM    101  H28 non d ame     -29.181  12.455  21.089  0.00  0.00     0.028 H 
ATOM    102  H29 non d ame     -28.769  12.480  22.820  0.00  0.00     0.028 H 
ENDBRANCH  93  99
ENDBRANCH  90  93
ENDBRANCH   1  90
TORSDOF 26
ENDMDL
MODEL 3
REMARK VINA RESULT:      -7.3      1.460      2.055
REMARK  26 active torsions:
REMARK  status: ('A' for Active; 'I' for Inactive)
REMARK    1  A    between atoms: C2_2  and  C3_3 
REMARK    2  A    between atoms: C4_6  and  C5_7 
REMARK       I    between atoms: C5_7  and  N2_9 
REMARK    3  A    between atoms: N2_9  and  C6_10 
REMARK    4  A    between atoms: C6_10  and  C7_11 
REMARK    5  A    between atoms: C6_10  and  C8_13 
REMARK       I    between atoms: C7_11  and  N3_14 
REMARK    6  A    between atoms: N3_14  and  C9_15 
REMARK    7  A    between atoms: C9_15  and  C10_16 
REMARK    8  A    between atoms: C9_15  and  C11_18 
REMARK       I    between atoms: C10_16  and  N4_21 
REMARK    9  A    between atoms: C11_18  and  C12_19 
REMARK   10  A    between atoms: C11_18  and  C13_20 
REMARK   11  A    between atoms: N4_21  and  C14_22 
REMARK   12  A    between atoms: C14_22  and  C15_23 
REMARK   13  A    between atoms: C14_22  and  C16_25 
REMARK       I    between atoms: C15_23  and  N6_40 
REMARK   14  A    between atoms: C16_25  and  C17_26 
REMARK   15  A    between atoms: C17_26  and  C18_27 
REMARK   16  A    between atoms: C17_26  and  C19_28 
REMARK   17  A    between atoms: C20_29  and  C21_30 
REMARK   18  A    between atoms: C20_29  and  C24_33 
REMARK   19  A    between atoms: C20_29  and  N6_40 
REMARK   20  A    between atoms: C21_30  and  C22_31 
REMARK   21  A    between atoms: C22_31  and  C23_32 
REMARK   22  A    between atoms: C23_32  and  O8_43 
REMARK   23  A    between atoms: C24_33  and  C25_34 
REMARK   24  A    between atoms: C28_38  and  O6_39 
REMARK   25  A    between atoms: C29_42  and  O8_43 
REMARK   26  A    between atoms: C29_42  and  C35_49 
ROOT
ATOM      1  C14 non d ame     -30.736  13.895  24.032  0.00  0.00     0.089 C 
ATOM      2  H20 non d ame     -29.658  13.911  23.866  0.00  0.00     0.087 H 
ENDROOT
BRANCH   1   3
ATOM      3  N4  non d ame     -31.146  12.501  24.108  0.00  0.00    -0.346 N 
ATOM      4  C10 non d ame     -30.506  11.468  23.214  0.00  0.00     0.241 C 
ATOM      5  O4  non d ame     -29.665  11.784  22.438  0.00  0.00    -0.271 OA
ATOM      6  H19 non d ame     -31.864  12.253  24.773  0.00  0.00     0.163 HD
BRANCH   4   7
ATOM      7  C9  non d ame     -30.938  10.029  23.311  0.00  0.00     0.092 C 
ATOM      8  H11 non d ame     -30.613   9.620  24.268  0.00  0.00     0.088 H 
BRANCH   7   9
ATOM      9  N3  non d ame     -32.401   9.955  23.283  0.00  0.00    -0.346 N 
ATOM     10  C7  non d ame     -33.120   9.458  24.430  0.00  0.00     0.240 C 
ATOM     11  O3  non d ame     -32.536   9.112  25.384  0.00  0.00    -0.271 OA
ATOM     12  H10 non d ame     -32.918  10.247  22.467  0.00  0.00     0.163 HD
BRANCH  10  13
ATOM     13  C6  non d ame     -34.678   9.378  24.393  0.00  0.00     0.086 C 
ATOM     14  H6  non d ame     -35.088   8.773  25.202  0.00  0.00     0.086 H 
BRANCH  13  15
ATOM     15  N2  non d ame     -35.222  10.716  24.558  0.00  0.00    -0.343 N 
ATOM     16  C5  non d ame     -35.786  11.112  25.851  0.00  0.00     0.273 C 
ATOM     17  O2  non d ame     -35.799  10.346  26.751  0.00  0.00    -0.266 OA
ATOM     18  H5  non d ame     -35.210  11.363  23.782  0.00  0.00     0.163 HD
BRANCH  16  19
ATOM     19  C4  non d ame     -36.362  12.523  26.039  0.00  0.00     0.154 A 
ATOM     20  C1  non d ame     -36.214  13.643  25.160  0.00  0.00    -0.017 A 
ATOM     21  C2  non d ame     -36.928  14.691  25.783  0.00  0.00     0.077 A 
ATOM     22  H1  non d ame     -35.672  13.688  24.216  0.00  0.00     0.091 H 
ATOM     23  O1  non d ame     -37.426  14.218  26.888  0.00  0.00    -0.218 OA
ATOM     24  N1  non d ame     -37.108  12.955  27.059  0.00  0.00    -0.123 NA
BRANCH  21  25
ATOM     25  C3  non d ame     -37.085  16.111  25.256  0.00  0.00    -0.029 C 
ATOM     26  H2  non d ame     -36.101  16.557  25.110  0.00  0.00     0.036 H 
ATOM     27  H3  non d ame     -37.618  16.089  24.305  0.00  0.00     0.036 H 
ATOM     28  H4  non d ame     -37.649  16.705  25.975  0.00  0.00     0.036 H 
ENDBRANCH  21  25
ENDBRANCH  16  19
ENDBRANCH  13  15
BRANCH  13  29
ATOM     29  C8  non d ame     -35.123   8.798  23.074  0.00  0.00    -0.049 C 
ATOM     30  H7  non d ame     -36.073   9.245  22.783  0.00  0.00     0.030 H 
ATOM     31  H8  non d ame     -34.373   9.011  22.313  0.00  0.00     0.030 H 
ATOM     32  H9  non d ame     -35.244   7.720  23.174  0.00  0.00     0.030 H 
ENDBRANCH  13  29
ENDBRANCH  10  13
ENDBRANCH   7   9
BRANCH   7  33
ATOM     33  C11 non d ame     -30.357   9.231  22.108  0.00  0.00    -0.033 C 
ATOM     34  H12 non d ame     -30.203   9.936  21.290  0.00  0.00     0.042 H 
BRANCH  33  35
ATOM     35  C12 non d ame     -28.970   8.605  22.455  0.00  0.00    -0.071 C 
ATOM     36  H13 non d ame     -28.564   9.092  23.341  0.00  0.00     0.028 H 
ATOM     37  H14 non d ame     -29.092   7.540  22.650  0.00  0.00     0.028 H 
ATOM     38  H15 non d ame     -28.287   8.746  21.618  0.00  0.00     0.028 H 
ENDBRANCH  33  35
BRANCH  33  39
ATOM     39  C13 non d ame     -31.365   8.140  21.621  0.00  0.00    -0.071 C 
ATOM     40  H16 non d ame     -31.590   7.461  22.443  0.00  0.00     0.028 H 
ATOM     41  H17 non d ame     -32.284   8.620  21.282  0.00  0.00     0.028 H 
ATOM     42  H18 non d ame     -30.924   7.581  20.796  0.00  0.00     0.028 H 
ENDBRANCH  33  39
ENDBRANCH   7  33
ENDBRANCH   4   7
ENDBRANCH   1   3
BRANCH   1  43
ATOM     43  C15 non d ame     -31.138  14.603  25.356  0.00  0.00     0.240 C 
ATOM     44  O5  non d ame     -30.706  14.210  26.391  0.00  0.00    -0.271 OA
ATOM     45  N6  non d ame     -32.055  15.778  25.334  0.00  0.00    -0.355 N 
ATOM     46  H46 non d ame     -32.425  16.124  24.460  0.00  0.00     0.162 HD
BRANCH  45  47
ATOM     47  C20 non d ame     -32.428  16.442  26.603  0.00  0.00     0.013 C 
ATOM     48  H30 non d ame     -31.597  16.324  27.299  0.00  0.00     0.072 H 
BRANCH  47  49
ATOM     49  C21 non d ame     -33.670  15.788  27.164  0.00  0.00    -0.038 C 
ATOM     50  H31 non d ame     -34.460  16.536  27.080  0.00  0.00     0.036 H 
ATOM     51  H32 non d ame     -33.763  14.836  26.642  0.00  0.00     0.036 H 
BRANCH  49  52
ATOM     52  C22 non d ame     -33.545  15.452  28.665  0.00  0.00     0.018 C 
ATOM     53  H33 non d ame     -34.234  16.122  29.176  0.00  0.00     0.048 H 
ATOM     54  H34 non d ame     -33.681  14.372  28.738  0.00  0.00     0.048 H 
BRANCH  52  55
ATOM     55  C23 non d ame     -32.140  15.747  29.259  0.00  0.00     0.259 C 
ATOM     56  O7  non d ame     -31.911  16.792  29.778  0.00  0.00    -0.265 OA
BRANCH  55  57
ATOM     57  O8  non d ame     -31.121  14.759  29.162  0.00  0.00    -0.317 OA
BRANCH  57  58
ATOM     58  C29 non d ame     -31.054  13.881  30.290  0.00  0.00     0.052 C 
ATOM     59  H47 non d ame     -29.997  13.650  30.421  0.00  0.00     0.082 H 
ATOM     60  H48 non d ame     -31.606  14.380  31.086  0.00  0.00     0.082 H 
BRANCH  58  61
ATOM     61  C35 non d ame     -31.800  12.571  29.922  0.00  0.00    -0.034 A 
ATOM     62  C30 non d ame     -31.801  12.116  28.608  0.00  0.00    -0.075 A 
ATOM     63  C31 non d ame     -32.472  10.939  28.277  0.00  0.00    -0.082 A 
ATOM     64  H49 non d ame     -31.278  12.680  27.837  0.00  0.00     0.084 H 
ATOM     65  C32 non d ame     -33.146  10.218  29.267  0.00  0.00    -0.083 A 
ATOM     66  H50 non d ame     -32.470  10.584  27.246  0.00  0.00     0.083 H 
ATOM     67  C33 non d ame     -33.145  10.678  30.576  0.00  0.00    -0.082 A 
ATOM     68  H51 non d ame     -33.672   9.297  29.016  0.00  0.00     0.083 H 
ATOM     69  C34 non d ame     -32.474  11.852  30.912  0.00  0.00    -0.075 A 
ATOM     70  H52 non d ame     -33.673  10.115  31.346  0.00  0.00     0.083 H 
ATOM     71  H53 non d ame     -32.477  12.206  31.943  0.00  0.00     0.084 H 
ENDBRANCH  58  61
ENDBRANCH  57  58
ENDBRANCH  55  57
ENDBRANCH  52  55
ENDBRANCH  49  52
ENDBRANCH  47  49
BRANCH  47  72
ATOM     72  C24 non d ame     -32.700  17.923  26.350  0.00  0.00    -0.039 C 
ATOM     73  H35 non d ame     -31.899  18.457  26.862  0.00  0.00     0.036 H 
ATOM     74  H36 non d ame     -32.813  18.017  25.270  0.00  0.00     0.036 H 
BRANCH  72  75
ATOM     75  C25 non d ame     -34.081  18.393  27.012  0.00  0.00    -0.001 C 
ATOM     76  C26 non d ame     -35.033  19.103  25.876  0.00  0.00    -0.035 C 
ATOM     77  C27 non d ame     -35.447  20.305  26.342  0.00  0.00     0.085 C 
ATOM     78  H38 non d ame     -34.441  19.360  24.998  0.00  0.00     0.036 H 
ATOM     79  H39 non d ame     -35.961  18.541  25.762  0.00  0.00     0.036 H 
ATOM     80  N5  non d ame     -34.602  20.625  27.551  0.00  0.00    -0.049 N 
ATOM     81  H40 non d ame     -35.219  21.019  25.550  0.00  0.00     0.075 H 
ATOM     82  H41 non d ame     -36.479  20.156  26.660  0.00  0.00     0.075 H 
ATOM     83  C28 non d ame     -33.878  19.243  27.964  0.00  0.00     0.193 C 
ATOM     84  H42 non d ame     -33.896  21.278  27.242  0.00  0.00     0.280 HD
ATOM     85  H43 non d ame     -35.243  20.885  28.287  0.00  0.00     0.280 HD
ATOM     86  H44 non d ame     -34.228  18.668  28.820  0.00  0.00     0.129 H 
ATOM     87  H37 non d ame     -34.534  17.612  27.622  0.00  0.00     0.046 H 
BRANCH  83  88
ATOM     88  O6  non d ame     -32.486  19.466  28.199  0.00  0.00    -0.369 OA
ATOM     89  H45 non d ame     -32.238  19.085  29.044  0.00  0.00     0.212 HD
ENDBRANCH  83  88
ENDBRANCH  72  75
ENDBRANCH  47  72
ENDBRANCH  45  47
ENDBRANCH   1  43
BRANCH   1  90
ATOM     90  C16 non d ame     -31.446  14.557  22.861  0.00  0.00    -0.035 C 
ATOM     91  H21 non d ame     -31.775  13.738  22.222  0.00  0.00     0.037 H 
ATOM     92  H22 non d ame     -32.180  15.226  23.310  0.00  0.00     0.037 H 
BRANCH  90  93
ATOM     93  C17 non d ame     -30.512  15.451  21.986  0.00  0.00    -0.059 C 
ATOM     94  H23 non d ame     -30.784  16.491  22.166  0.00  0.00     0.038 H 
BRANCH  93  95
ATOM     95  C18 non d ame     -29.007  15.279  22.365  0.00  0.00    -0.073 C 
ATOM     96  H24 non d ame     -28.928  14.710  23.291  0.00  0.00     0.028 H 
ATOM     97  H25 non d ame     -28.489  14.746  21.567  0.00  0.00     0.028 H 
ATOM     98  H26 non d ame     -28.551  16.260  22.501  0.00  0.00     0.028 H 
ENDBRANCH  93  95
BRANCH  93  99
ATOM     99  C19 non d ame     -30.732  15.176  20.495  0.00  0.00    -0.073 C 
ATOM    100  H27 non d ame     -31.446  15.896  20.094  0.00  0.00     0.028 H 
ATOM    101  H28 non d ame     -29.785  15.270  19.964  0.00  0.00     0.028 H 
ATOM    102  H29 non d ame     -31.121  14.166  20.366  0.00  0.00     0.028 H 
ENDBRANCH  93  99
ENDBRANCH  90  93
ENDBRANCH   1  90
TORSDOF 26
ENDMDL
MODEL 4
REMARK VINA RESULT:      -7.1      3.066      6.665
REMARK  26 active torsions:
REMARK  status: ('A' for Active; 'I' for Inactive)
REMARK    1  A    between atoms: C2_2  and  C3_3 
REMARK    2  A    between atoms: C4_6  and  C5_7 
REMARK       I    between atoms: C5_7  and  N2_9 
REMARK    3  A    between atoms: N2_9  and  C6_10 
REMARK    4  A    between atoms: C6_10  and  C7_11 
REMARK    5  A    between atoms: C6_10  and  C8_13 
REMARK       I    between atoms: C7_11  and  N3_14 
REMARK    6  A    between atoms: N3_14  and  C9_15 
REMARK    7  A    between atoms: C9_15  and  C10_16 
REMARK    8  A    between atoms: C9_15  and  C11_18 
REMARK       I    between atoms: C10_16  and  N4_21 
REMARK    9  A    between atoms: C11_18  and  C12_19 
REMARK   10  A    between atoms: C11_18  and  C13_20 
REMARK   11  A    between atoms: N4_21  and  C14_22 
REMARK   12  A    between atoms: C14_22  and  C15_23 
REMARK   13  A    between atoms: C14_22  and  C16_25 
REMARK       I    between atoms: C15_23  and  N6_40 
REMARK   14  A    between atoms: C16_25  and  C17_26 
REMARK   15  A    between atoms: C17_26  and  C18_27 
REMARK   16  A    between atoms: C17_26  and  C19_28 
REMARK   17  A    between atoms: C20_29  and  C21_30 
REMARK   18  A    between atoms: C20_29  and  C24_33 
REMARK   19  A    between atoms: C20_29  and  N6_40 
REMARK   20  A    between atoms: C21_30  and  C22_31 
REMARK   21  A    between atoms: C22_31  and  C23_32 
REMARK   22  A    between atoms: C23_32  and  O8_43 
REMARK   23  A    between atoms: C24_33  and  C25_34 
REMARK   24  A    between atoms: C28_38  and  O6_39 
REMARK   25  A    between atoms: C29_42  and  O8_43 
REMARK   26  A    between atoms: C29_42  and  C35_49 
ROOT
ATOM      1  C14 non d ame     -30.943  13.420  24.278  0.00  0.00     0.089 C 
ATOM      2  H20 non d ame     -29.989  13.344  24.801  0.00  0.00     0.087 H 
ENDROOT
BRANCH   1   3
ATOM      3  N4  non d ame     -31.500  12.078  24.188  0.00  0.00    -0.346 N 
ATOM      4  C10 non d ame     -31.499  11.170  25.392  0.00  0.00     0.241 C 
ATOM      5  O4  non d ame     -31.040  11.539  26.421  0.00  0.00    -0.271 OA
ATOM      6  H19 non d ame     -31.883  11.783  23.301  0.00  0.00     0.163 HD
BRANCH   4   7
ATOM      7  C9  non d ame     -32.086   9.787  25.281  0.00  0.00     0.092 C 
ATOM      8  H11 non d ame     -31.345   9.056  25.605  0.00  0.00     0.088 H 
BRANCH   7   9
ATOM      9  N3  non d ame     -33.234   9.669  26.182  0.00  0.00    -0.346 N 
ATOM     10  C7  non d ame     -33.244   8.656  27.208  0.00  0.00     0.240 C 
ATOM     11  O3  non d ame     -32.336   7.925  27.321  0.00  0.00    -0.271 OA
ATOM     12  H10 non d ame     -34.026  10.291  26.097  0.00  0.00     0.163 HD
BRANCH  10  13
ATOM     13  C6  non d ame     -34.472   8.533  28.164  0.00  0.00     0.086 C 
ATOM     14  H6  non d ame     -35.336   8.073  27.684  0.00  0.00     0.086 H 
BRANCH  13  15
ATOM     15  N2  non d ame     -34.114   7.676  29.283  0.00  0.00    -0.343 N 
ATOM     16  C5  non d ame     -34.854   6.432  29.504  0.00  0.00     0.273 C 
ATOM     17  O2  non d ame     -35.737   6.130  28.779  0.00  0.00    -0.266 OA
ATOM     18  H5  non d ame     -33.361   7.944  29.900  0.00  0.00     0.163 HD
BRANCH  16  19
ATOM     19  C4  non d ame     -34.486   5.517  30.682  0.00  0.00     0.154 A 
ATOM     20  C1  non d ame     -33.404   4.581  30.745  0.00  0.00    -0.017 A 
ATOM     21  C2  non d ame     -33.501   4.000  32.029  0.00  0.00     0.077 A 
ATOM     22  H1  non d ame     -32.664   4.358  29.977  0.00  0.00     0.091 H 
ATOM     23  O1  non d ame     -34.520   4.546  32.626  0.00  0.00    -0.218 OA
ATOM     24  N1  non d ame     -35.110   5.434  31.859  0.00  0.00    -0.123 NA
BRANCH  21  25
ATOM     25  C3  non d ame     -32.581   2.932  32.607  0.00  0.00    -0.029 C 
ATOM     26  H2  non d ame     -32.186   3.272  33.564  0.00  0.00     0.036 H 
ATOM     27  H3  non d ame     -33.142   2.010  32.753  0.00  0.00     0.036 H 
ATOM     28  H4  non d ame     -31.757   2.751  31.918  0.00  0.00     0.036 H 
ENDBRANCH  21  25
ENDBRANCH  16  19
ENDBRANCH  13  15
BRANCH  13  29
ATOM     29  C8  non d ame     -34.862   9.901  28.665  0.00  0.00    -0.049 C 
ATOM     30  H7  non d ame     -35.807   9.835  29.202  0.00  0.00     0.030 H 
ATOM     31  H8  non d ame     -34.088  10.275  29.336  0.00  0.00     0.030 H 
ATOM     32  H9  non d ame     -34.969  10.580  27.819  0.00  0.00     0.030 H 
ENDBRANCH  13  29
ENDBRANCH  10  13
ENDBRANCH   7   9
BRANCH   7  33
ATOM     33  C11 non d ame     -32.551   9.538  23.816  0.00  0.00    -0.033 C 
ATOM     34  H12 non d ame     -32.395  10.463  23.260  0.00  0.00     0.042 H 
BRANCH  33  35
ATOM     35  C12 non d ame     -31.696   8.428  23.128  0.00  0.00    -0.071 C 
ATOM     36  H13 non d ame     -30.644   8.578  23.369  0.00  0.00     0.028 H 
ATOM     37  H14 non d ame     -32.015   7.450  23.488  0.00  0.00     0.028 H 
ATOM     38  H15 non d ame     -31.833   8.481  22.048  0.00  0.00     0.028 H 
ENDBRANCH  33  35
BRANCH  33  39
ATOM     39  C13 non d ame     -34.074   9.193  23.764  0.00  0.00    -0.071 C 
ATOM     40  H16 non d ame     -34.265   8.296  24.354  0.00  0.00     0.028 H 
ATOM     41  H17 non d ame     -34.649  10.025  24.172  0.00  0.00     0.028 H 
ATOM     42  H18 non d ame     -34.372   9.020  22.731  0.00  0.00     0.028 H 
ENDBRANCH  33  39
ENDBRANCH   7  33
ENDBRANCH   4   7
ENDBRANCH   1   3
BRANCH   1  43
ATOM     43  C15 non d ame     -31.956  14.328  25.032  0.00  0.00     0.240 C 
ATOM     44  O5  non d ame     -33.010  14.572  24.540  0.00  0.00    -0.271 OA
ATOM     45  N6  non d ame     -31.616  14.885  26.371  0.00  0.00    -0.355 N 
ATOM     46  H46 non d ame     -30.726  14.680  26.802  0.00  0.00     0.162 HD
BRANCH  45  47
ATOM     47  C20 non d ame     -32.591  15.746  27.077  0.00  0.00     0.013 C 
ATOM     48  H30 non d ame     -33.577  15.553  26.652  0.00  0.00     0.072 H 
BRANCH  47  49
ATOM     49  C21 non d ame     -32.217  17.197  26.873  0.00  0.00    -0.038 C 
ATOM     50  H31 non d ame     -32.587  17.723  27.754  0.00  0.00     0.036 H 
ATOM     51  H32 non d ame     -31.151  17.196  26.646  0.00  0.00     0.036 H 
BRANCH  49  52
ATOM     52  C22 non d ame     -32.922  17.833  25.657  0.00  0.00     0.018 C 
ATOM     53  H33 non d ame     -32.134  18.300  25.068  0.00  0.00     0.048 H 
ATOM     54  H34 non d ame     -33.530  17.039  25.220  0.00  0.00     0.048 H 
BRANCH  52  55
ATOM     55  C23 non d ame     -33.910  18.972  26.031  0.00  0.00     0.259 C 
ATOM     56  O7  non d ame     -33.568  19.856  26.748  0.00  0.00    -0.265 OA
BRANCH  55  57
ATOM     57  O8  non d ame     -35.237  18.941  25.518  0.00  0.00    -0.317 OA
BRANCH  57  58
ATOM     58  C29 non d ame     -36.185  18.327  26.396  0.00  0.00     0.052 C 
ATOM     59  H47 non d ame     -35.771  18.434  27.398  0.00  0.00     0.082 H 
ATOM     60  H48 non d ame     -37.148  18.777  26.152  0.00  0.00     0.082 H 
BRANCH  58  61
ATOM     61  C35 non d ame     -36.249  16.815  26.051  0.00  0.00    -0.034 A 
ATOM     62  C30 non d ame     -36.054  15.864  27.048  0.00  0.00    -0.075 A 
ATOM     63  C31 non d ame     -36.111  14.506  26.737  0.00  0.00    -0.082 A 
ATOM     64  H49 non d ame     -35.856  16.183  28.071  0.00  0.00     0.084 H 
ATOM     65  C32 non d ame     -36.362  14.100  25.424  0.00  0.00    -0.083 A 
ATOM     66  H50 non d ame     -35.959  13.763  27.521  0.00  0.00     0.083 H 
ATOM     67  C33 non d ame     -36.552  15.052  24.432  0.00  0.00    -0.082 A 
ATOM     68  H51 non d ame     -36.409  13.040  25.174  0.00  0.00     0.083 H 
ATOM     69  C34 non d ame     -36.498  16.411  24.738  0.00  0.00    -0.075 A 
ATOM     70  H52 non d ame     -36.746  14.733  23.408  0.00  0.00     0.083 H 
ATOM     71  H53 non d ame     -36.650  17.152  23.953  0.00  0.00     0.084 H 
ENDBRANCH  58  61
ENDBRANCH  57  58
ENDBRANCH  55  57
ENDBRANCH  52  55
ENDBRANCH  49  52
ENDBRANCH  47  49
BRANCH  47  72
ATOM     72  C24 non d ame     -32.583  15.421  28.569  0.00  0.00    -0.039 C 
ATOM     73  H35 non d ame     -32.290  16.347  29.065  0.00  0.00     0.036 H 
ATOM     74  H36 non d ame     -33.557  14.978  28.774  0.00  0.00     0.036 H 
BRANCH  72  75
ATOM     75  C25 non d ame     -31.478  14.320  28.930  0.00  0.00    -0.001 C 
ATOM     76  C26 non d ame     -32.210  12.904  29.333  0.00  0.00    -0.035 C 
ATOM     77  C27 non d ame     -31.713  12.478  30.520  0.00  0.00     0.085 C 
ATOM     78  H38 non d ame     -33.265  13.076  29.545  0.00  0.00     0.036 H 
ATOM     79  H39 non d ame     -31.914  12.119  28.637  0.00  0.00     0.036 H 
ATOM     80  N5  non d ame     -30.953  13.636  31.120  0.00  0.00    -0.049 N 
ATOM     81  H40 non d ame     -32.584  12.266  31.140  0.00  0.00     0.075 H 
ATOM     82  H41 non d ame     -31.012  11.682  30.273  0.00  0.00     0.075 H 
ATOM     83  C28 non d ame     -30.746  14.700  29.924  0.00  0.00     0.193 C 
ATOM     84  H42 non d ame     -31.558  14.047  31.816  0.00  0.00     0.280 HD
ATOM     85  H43 non d ame     -30.048  13.274  31.389  0.00  0.00     0.280 HD
ATOM     86  H44 non d ame     -29.779  14.799  29.431  0.00  0.00     0.129 H 
ATOM     87  H37 non d ame     -30.683  14.273  28.186  0.00  0.00     0.046 H 
BRANCH  83  88
ATOM     88  O6  non d ame     -31.083  16.015  30.370  0.00  0.00    -0.369 OA
ATOM     89  H45 non d ame     -31.015  16.056  31.326  0.00  0.00     0.212 HD
ENDBRANCH  83  88
ENDBRANCH  72  75
ENDBRANCH  47  72
ENDBRANCH  45  47
ENDBRANCH   1  43
BRANCH   1  90
ATOM     90  C16 non d ame     -30.718  13.959  22.875  0.00  0.00    -0.035 C 
ATOM     91  H21 non d ame     -29.972  13.302  22.428  0.00  0.00     0.037 H 
ATOM     92  H22 non d ame     -31.711  14.035  22.432  0.00  0.00     0.037 H 
BRANCH  90  93
ATOM     93  C17 non d ame     -30.110  15.397  22.845  0.00  0.00    -0.059 C 
ATOM     94  H23 non d ame     -30.197  15.814  23.848  0.00  0.00     0.038 H 
BRANCH  93  95
ATOM     95  C18 non d ame     -28.596  15.389  22.461  0.00  0.00    -0.073 C 
ATOM     96  H24 non d ame     -28.094  16.226  22.946  0.00  0.00     0.028 H 
ATOM     97  H25 non d ame     -28.142  14.455  22.791  0.00  0.00     0.028 H 
ATOM     98  H26 non d ame     -28.494  15.480  21.380  0.00  0.00     0.028 H 
ENDBRANCH  93  95
BRANCH  93  99
ATOM     99  C19 non d ame     -30.905  16.307  21.905  0.00  0.00    -0.073 C 
ATOM    100  H27 non d ame     -31.919  15.921  21.796  0.00  0.00     0.028 H 
ATOM    101  H28 non d ame     -30.945  17.314  22.320  0.00  0.00     0.028 H 
ATOM    102  H29 non d ame     -30.420  16.336  20.930  0.00  0.00     0.028 H 
ENDBRANCH  93  99
ENDBRANCH  90  93
ENDBRANCH   1  90
TORSDOF 26
ENDMDL
MODEL 5
REMARK VINA RESULT:      -7.1      2.520      8.281
REMARK  26 active torsions:
REMARK  status: ('A' for Active; 'I' for Inactive)
REMARK    1  A    between atoms: C2_2  and  C3_3 
REMARK    2  A    between atoms: C4_6  and  C5_7 
REMARK       I    between atoms: C5_7  and  N2_9 
REMARK    3  A    between atoms: N2_9  and  C6_10 
REMARK    4  A    between atoms: C6_10  and  C7_11 
REMARK    5  A    between atoms: C6_10  and  C8_13 
REMARK       I    between atoms: C7_11  and  N3_14 
REMARK    6  A    between atoms: N3_14  and  C9_15 
REMARK    7  A    between atoms: C9_15  and  C10_16 
REMARK    8  A    between atoms: C9_15  and  C11_18 
REMARK       I    between atoms: C10_16  and  N4_21 
REMARK    9  A    between atoms: C11_18  and  C12_19 
REMARK   10  A    between atoms: C11_18  and  C13_20 
REMARK   11  A    between atoms: N4_21  and  C14_22 
REMARK   12  A    between atoms: C14_22  and  C15_23 
REMARK   13  A    between atoms: C14_22  and  C16_25 
REMARK       I    between atoms: C15_23  and  N6_40 
REMARK   14  A    between atoms: C16_25  and  C17_26 
REMARK   15  A    between atoms: C17_26  and  C18_27 
REMARK   16  A    between atoms: C17_26  and  C19_28 
REMARK   17  A    between atoms: C20_29  and  C21_30 
REMARK   18  A    between atoms: C20_29  and  C24_33 
REMARK   19  A    between atoms: C20_29  and  N6_40 
REMARK   20  A    between atoms: C21_30  and  C22_31 
REMARK   21  A    between atoms: C22_31  and  C23_32 
REMARK   22  A    between atoms: C23_32  and  O8_43 
REMARK   23  A    between atoms: C24_33  and  C25_34 
REMARK   24  A    between atoms: C28_38  and  O6_39 
REMARK   25  A    between atoms: C29_42  and  O8_43 
REMARK   26  A    between atoms: C29_42  and  C35_49 
ROOT
ATOM      1  C14 non d ame     -36.504  15.855  26.607  0.00  0.00     0.089 C 
ATOM      2  H20 non d ame     -37.123  16.381  27.334  0.00  0.00     0.087 H 
ENDROOT
BRANCH   1   3
ATOM      3  N4  non d ame     -35.115  16.037  26.999  0.00  0.00    -0.346 N 
ATOM      4  C10 non d ame     -34.720  17.188  27.891  0.00  0.00     0.241 C 
ATOM      5  O4  non d ame     -35.538  17.957  28.276  0.00  0.00    -0.271 OA
ATOM      6  H19 non d ame     -34.434  15.373  26.659  0.00  0.00     0.163 HD
BRANCH   4   7
ATOM      7  C9  non d ame     -33.279  17.358  28.292  0.00  0.00     0.092 C 
ATOM      8  H11 non d ame     -33.232  17.860  29.258  0.00  0.00     0.088 H 
BRANCH   7   9
ATOM      9  N3  non d ame     -32.658  16.041  28.457  0.00  0.00    -0.346 N 
ATOM     10  C7  non d ame     -31.743  15.807  29.547  0.00  0.00     0.240 C 
ATOM     11  O3  non d ame     -31.494  16.668  30.299  0.00  0.00    -0.271 OA
ATOM     12  H10 non d ame     -32.862  15.289  27.815  0.00  0.00     0.163 HD
BRANCH  10  13
ATOM     13  C6  non d ame     -31.083  14.403  29.716  0.00  0.00     0.086 C 
ATOM     14  H6  non d ame     -30.439  14.342  30.593  0.00  0.00     0.086 H 
BRANCH  13  15
ATOM     15  N2  non d ame     -32.129  13.410  29.899  0.00  0.00    -0.343 N 
ATOM     16  C5  non d ame     -31.824  12.162  30.603  0.00  0.00     0.273 C 
ATOM     17  O2  non d ame     -30.734  11.966  31.016  0.00  0.00    -0.266 OA
ATOM     18  H5  non d ame     -33.056  13.584  29.539  0.00  0.00     0.163 HD
BRANCH  16  19
ATOM     19  C4  non d ame     -32.920  11.105  30.805  0.00  0.00     0.154 A 
ATOM     20  C1  non d ame     -33.314  10.081  29.885  0.00  0.00    -0.017 A 
ATOM     21  C2  non d ame     -34.352   9.382  30.542  0.00  0.00     0.077 A 
ATOM     22  H1  non d ame     -32.911   9.878  28.893  0.00  0.00     0.091 H 
ATOM     23  O1  non d ame     -34.523   9.945  31.703  0.00  0.00    -0.218 OA
ATOM     24  N1  non d ame     -33.700  10.952  31.878  0.00  0.00    -0.123 NA
BRANCH  21  25
ATOM     25  C3  non d ame     -35.124   8.191  29.993  0.00  0.00    -0.029 C 
ATOM     26  H2  non d ame     -35.837   7.843  30.741  0.00  0.00     0.036 H 
ATOM     27  H3  non d ame     -35.661   8.489  29.092  0.00  0.00     0.036 H 
ATOM     28  H4  non d ame     -34.430   7.387  29.752  0.00  0.00     0.036 H 
ENDBRANCH  21  25
ENDBRANCH  16  19
ENDBRANCH  13  15
BRANCH  13  29
ATOM     29  C8  non d ame     -30.269  14.076  28.489  0.00  0.00    -0.049 C 
ATOM     30  H7  non d ame     -30.742  13.257  27.947  0.00  0.00     0.030 H 
ATOM     31  H8  non d ame     -30.215  14.954  27.845  0.00  0.00     0.030 H 
ATOM     32  H9  non d ame     -29.263  13.782  28.788  0.00  0.00     0.030 H 
ENDBRANCH  13  29
ENDBRANCH  10  13
ENDBRANCH   7   9
BRANCH   7  33
ATOM     33  C11 non d ame     -32.523  18.150  27.185  0.00  0.00    -0.033 C 
ATOM     34  H12 non d ame     -31.475  17.850  27.225  0.00  0.00     0.042 H 
BRANCH  33  35
ATOM     35  C12 non d ame     -33.059  17.794  25.763  0.00  0.00    -0.071 C 
ATOM     36  H13 non d ame     -34.081  17.424  25.842  0.00  0.00     0.028 H 
ATOM     37  H14 non d ame     -33.044  18.686  25.137  0.00  0.00     0.028 H 
ATOM     38  H15 non d ame     -32.427  17.026  25.318  0.00  0.00     0.028 H 
ENDBRANCH  33  35
BRANCH  33  39
ATOM     39  C13 non d ame     -32.595  19.688  27.449  0.00  0.00    -0.071 C 
ATOM     40  H16 non d ame     -32.975  20.193  26.561  0.00  0.00     0.028 H 
ATOM     41  H17 non d ame     -33.262  19.882  28.291  0.00  0.00     0.028 H 
ATOM     42  H18 non d ame     -31.599  20.064  27.683  0.00  0.00     0.028 H 
ENDBRANCH  33  39
ENDBRANCH   7  33
ENDBRANCH   4   7
ENDBRANCH   1   3
BRANCH   1  43
ATOM     43  C15 non d ame     -36.812  14.331  26.567  0.00  0.00     0.240 C 
ATOM     44  O5  non d ame     -37.865  13.930  26.947  0.00  0.00    -0.271 OA
ATOM     45  N6  non d ame     -35.798  13.371  26.046  0.00  0.00    -0.355 N 
ATOM     46  H46 non d ame     -34.902  13.700  25.715  0.00  0.00     0.162 HD
BRANCH  45  47
ATOM     47  C20 non d ame     -36.106  11.924  26.012  0.00  0.00     0.013 C 
ATOM     48  H30 non d ame     -37.003  11.759  26.609  0.00  0.00     0.072 H 
BRANCH  47  49
ATOM     49  C21 non d ame     -34.946  11.153  26.599  0.00  0.00    -0.038 C 
ATOM     50  H31 non d ame     -34.769  11.589  27.584  0.00  0.00     0.036 H 
ATOM     51  H32 non d ame     -35.216  10.101  26.510  0.00  0.00     0.036 H 
BRANCH  49  52
ATOM     52  C22 non d ame     -33.638  11.337  25.800  0.00  0.00     0.018 C 
ATOM     53  H33 non d ame     -32.994  10.508  26.092  0.00  0.00     0.048 H 
ATOM     54  H34 non d ame     -33.942  11.449  24.758  0.00  0.00     0.048 H 
BRANCH  52  55
ATOM     55  C23 non d ame     -32.860  12.632  26.161  0.00  0.00     0.259 C 
ATOM     56  O7  non d ame     -33.189  13.294  27.091  0.00  0.00    -0.265 OA
BRANCH  55  57
ATOM     57  O8  non d ame     -31.755  13.029  25.356  0.00  0.00    -0.317 OA
BRANCH  57  58
ATOM     58  C29 non d ame     -31.717  14.430  25.072  0.00  0.00     0.052 C 
ATOM     59  H47 non d ame     -32.756  14.756  25.055  0.00  0.00     0.082 H 
ATOM     60  H48 non d ame     -31.022  14.859  25.795  0.00  0.00     0.082 H 
BRANCH  58  61
ATOM     61  C35 non d ame     -31.121  14.615  23.651  0.00  0.00    -0.034 A 
ATOM     62  C30 non d ame     -31.399  15.768  22.924  0.00  0.00    -0.075 A 
ATOM     63  C31 non d ame     -30.864  15.934  21.646  0.00  0.00    -0.082 A 
ATOM     64  H49 non d ame     -32.035  16.542  23.353  0.00  0.00     0.084 H 
ATOM     65  C32 non d ame     -30.051  14.939  21.096  0.00  0.00    -0.083 A 
ATOM     66  H50 non d ame     -31.082  16.840  21.080  0.00  0.00     0.083 H 
ATOM     67  C33 non d ame     -29.780  13.789  21.824  0.00  0.00    -0.082 A 
ATOM     68  H51 non d ame     -29.629  15.062  20.099  0.00  0.00     0.083 H 
ATOM     69  C34 non d ame     -30.310  13.620  23.101  0.00  0.00    -0.075 A 
ATOM     70  H52 non d ame     -29.147  13.014  21.391  0.00  0.00     0.083 H 
ATOM     71  H53 non d ame     -30.091  12.714  23.667  0.00  0.00     0.084 H 
ENDBRANCH  58  61
ENDBRANCH  57  58
ENDBRANCH  55  57
ENDBRANCH  52  55
ENDBRANCH  49  52
ENDBRANCH  47  49
BRANCH  47  72
ATOM     72  C24 non d ame     -36.339  11.478  24.570  0.00  0.00    -0.039 C 
ATOM     73  H35 non d ame     -35.752  12.164  23.957  0.00  0.00     0.036 H 
ATOM     74  H36 non d ame     -36.117  10.411  24.558  0.00  0.00     0.036 H 
BRANCH  72  75
ATOM     75  C25 non d ame     -37.871  11.648  24.137  0.00  0.00    -0.001 C 
ATOM     76  C26 non d ame     -38.394  10.282  23.386  0.00  0.00    -0.035 C 
ATOM     77  C27 non d ame     -38.967  10.625  22.207  0.00  0.00     0.085 C 
ATOM     78  H38 non d ame     -37.544   9.670  23.089  0.00  0.00     0.036 H 
ATOM     79  H39 non d ame     -39.217   9.838  23.948  0.00  0.00     0.036 H 
ATOM     80  N5  non d ame     -38.589  12.060  21.934  0.00  0.00    -0.049 N 
ATOM     81  H40 non d ame     -38.497   9.985  21.459  0.00  0.00     0.075 H 
ATOM     82  H41 non d ame     -40.041  10.567  22.376  0.00  0.00     0.075 H 
ATOM     83  C28 non d ame     -38.021  12.644  23.328  0.00  0.00     0.193 C 
ATOM     84  H42 non d ame     -37.834  12.036  21.264  0.00  0.00     0.280 HD
ATOM     85  H43 non d ame     -39.447  12.544  21.709  0.00  0.00     0.280 HD
ATOM     86  H44 non d ame     -38.630  13.307  23.940  0.00  0.00     0.129 H 
ATOM     87  H37 non d ame     -38.489  12.037  24.947  0.00  0.00     0.046 H 
BRANCH  83  88
ATOM     88  O6  non d ame     -36.797  13.347  23.106  0.00  0.00    -0.369 OA
ATOM     89  H45 non d ame     -36.115  12.726  22.839  0.00  0.00     0.212 HD
ENDBRANCH  83  88
ENDBRANCH  72  75
ENDBRANCH  47  72
ENDBRANCH  45  47
ENDBRANCH   1  43
BRANCH   1  90
ATOM     90  C16 non d ame     -36.712  16.455  25.225  0.00  0.00    -0.035 C 
ATOM     91  H21 non d ame     -35.711  16.646  24.840  0.00  0.00     0.037 H 
ATOM     92  H22 non d ame     -37.372  15.761  24.705  0.00  0.00     0.037 H 
BRANCH  90  93
ATOM     93  C17 non d ame     -37.447  17.833  25.244  0.00  0.00    -0.059 C 
ATOM     94  H23 non d ame     -37.880  17.964  26.235  0.00  0.00     0.038 H 
BRANCH  93  95
ATOM     95  C18 non d ame     -36.469  19.025  24.989  0.00  0.00    -0.073 C 
ATOM     96  H24 non d ame     -36.831  19.909  25.513  0.00  0.00     0.028 H 
ATOM     97  H25 non d ame     -35.477  18.766  25.359  0.00  0.00     0.028 H 
ATOM     98  H26 non d ame     -36.417  19.230  23.921  0.00  0.00     0.028 H 
ENDBRANCH  93  95
BRANCH  93  99
ATOM     99  C19 non d ame     -38.600  17.851  24.237  0.00  0.00    -0.073 C 
ATOM    100  H27 non d ame     -38.842  18.882  23.979  0.00  0.00     0.028 H 
ATOM    101  H28 non d ame     -38.306  17.312  23.337  0.00  0.00     0.028 H 
ATOM    102  H29 non d ame     -39.474  17.372  24.677  0.00  0.00     0.028 H 
ENDBRANCH  93  99
ENDBRANCH  90  93
ENDBRANCH   1  90
TORSDOF 26
ENDMDL
MODEL 6
REMARK VINA RESULT:      -7.1      2.855      7.175
REMARK  26 active torsions:
REMARK  status: ('A' for Active; 'I' for Inactive)
REMARK    1  A    between atoms: C2_2  and  C3_3 
REMARK    2  A    between atoms: C4_6  and  C5_7 
REMARK       I    between atoms: C5_7  and  N2_9 
REMARK    3  A    between atoms: N2_9  and  C6_10 
REMARK    4  A    between atoms: C6_10  and  C7_11 
REMARK    5  A    between atoms: C6_10  and  C8_13 
REMARK       I    between atoms: C7_11  and  N3_14 
REMARK    6  A    between atoms: N3_14  and  C9_15 
REMARK    7  A    between atoms: C9_15  and  C10_16 
REMARK    8  A    between atoms: C9_15  and  C11_18 
REMARK       I    between atoms: C10_16  and  N4_21 
REMARK    9  A    between atoms: C11_18  and  C12_19 
REMARK   10  A    between atoms: C11_18  and  C13_20 
REMARK   11  A    between atoms: N4_21  and  C14_22 
REMARK   12  A    between atoms: C14_22  and  C15_23 
REMARK   13  A    between atoms: C14_22  and  C16_25 
REMARK       I    between atoms: C15_23  and  N6_40 
REMARK   14  A    between atoms: C16_25  and  C17_26 
REMARK   15  A    between atoms: C17_26  and  C18_27 
REMARK   16  A    between atoms: C17_26  and  C19_28 
REMARK   17  A    between atoms: C20_29  and  C21_30 
REMARK   18  A    between atoms: C20_29  and  C24_33 
REMARK   19  A    between atoms: C20_29  and  N6_40 
REMARK   20  A    between atoms: C21_30  and  C22_31 
REMARK   21  A    between atoms: C22_31  and  C23_32 
REMARK   22  A    between atoms: C23_32  and  O8_43 
REMARK   23  A    between atoms: C24_33  and  C25_34 
REMARK   24  A    between atoms: C28_38  and  O6_39 
REMARK   25  A    between atoms: C29_42  and  O8_43 
REMARK   26  A    between atoms: C29_42  and  C35_49 
ROOT
ATOM      1  C14 non d ame     -31.174  13.900  24.665  0.00  0.00     0.089 C 
ATOM      2  H20 non d ame     -30.166  13.871  25.079  0.00  0.00     0.087 H 
ENDROOT
BRANCH   1   3
ATOM      3  N4  non d ame     -31.505  12.554  24.223  0.00  0.00    -0.346 N 
ATOM      4  C10 non d ame     -31.320  11.380  25.153  0.00  0.00     0.241 C 
ATOM      5  O4  non d ame     -30.900  11.544  26.250  0.00  0.00    -0.271 OA
ATOM      6  H19 non d ame     -31.858  12.436  23.285  0.00  0.00     0.163 HD
BRANCH   4   7
ATOM      7  C9  non d ame     -31.673   9.994  24.680  0.00  0.00     0.092 C 
ATOM      8  H11 non d ame     -30.989   9.276  25.132  0.00  0.00     0.088 H 
BRANCH   7   9
ATOM      9  N3  non d ame     -33.024   9.652  25.133  0.00  0.00    -0.346 N 
ATOM     10  C7  non d ame     -33.206   8.870  26.331  0.00  0.00     0.240 C 
ATOM     11  O3  non d ame     -32.276   8.507  26.942  0.00  0.00    -0.271 OA
ATOM     12  H10 non d ame     -33.836   9.957  24.616  0.00  0.00     0.163 HD
BRANCH  10  13
ATOM     13  C6  non d ame     -34.647   8.506  26.808  0.00  0.00     0.086 C 
ATOM     14  H6  non d ame     -35.109   7.731  26.197  0.00  0.00     0.086 H 
BRANCH  13  15
ATOM     15  N2  non d ame     -34.577   7.982  28.161  0.00  0.00    -0.343 N 
ATOM     16  C5  non d ame     -34.691   6.538  28.382  0.00  0.00     0.273 C 
ATOM     17  O2  non d ame     -34.841   5.808  27.465  0.00  0.00    -0.266 OA
ATOM     18  H5  non d ame     -34.452   8.613  28.940  0.00  0.00     0.163 HD
BRANCH  16  19
ATOM     19  C4  non d ame     -34.617   5.970  29.808  0.00  0.00     0.154 A 
ATOM     20  C1  non d ame     -33.843   4.853  30.255  0.00  0.00    -0.017 A 
ATOM     21  C2  non d ame     -34.124   4.744  31.635  0.00  0.00     0.077 A 
ATOM     22  H1  non d ame     -33.180   4.217  29.668  0.00  0.00     0.091 H 
ATOM     23  O1  non d ame     -34.961   5.694  31.936  0.00  0.00    -0.218 OA
ATOM     24  N1  non d ame     -35.264   6.422  30.886  0.00  0.00    -0.123 NA
BRANCH  21  25
ATOM     25  C3  non d ame     -33.552   3.707  32.593  0.00  0.00    -0.029 C 
ATOM     26  H2  non d ame     -32.889   3.035  32.048  0.00  0.00     0.036 H 
ATOM     27  H3  non d ame     -32.991   4.210  33.380  0.00  0.00     0.036 H 
ATOM     28  H4  non d ame     -34.365   3.134  33.036  0.00  0.00     0.036 H 
ENDBRANCH  21  25
ENDBRANCH  16  19
ENDBRANCH  13  15
BRANCH  13  29
ATOM     29  C8  non d ame     -35.516   9.738  26.775  0.00  0.00    -0.049 C 
ATOM     30  H7  non d ame     -35.624  10.080  25.746  0.00  0.00     0.030 H 
ATOM     31  H8  non d ame     -36.498   9.499  27.183  0.00  0.00     0.030 H 
ATOM     32  H9  non d ame     -35.055  10.524  27.374  0.00  0.00     0.030 H 
ENDBRANCH  13  29
ENDBRANCH  10  13
ENDBRANCH   7   9
BRANCH   7  33
ATOM     33  C11 non d ame     -31.623   9.949  23.125  0.00  0.00    -0.033 C 
ATOM     34  H12 non d ame     -32.011  10.899  22.756  0.00  0.00     0.042 H 
BRANCH  33  35
ATOM     35  C12 non d ame     -30.158   9.806  22.606  0.00  0.00    -0.071 C 
ATOM     36  H13 non d ame     -30.146   9.905  21.521  0.00  0.00     0.028 H 
ATOM     37  H14 non d ame     -29.539  10.586  23.049  0.00  0.00     0.028 H 
ATOM     38  H15 non d ame     -29.766   8.828  22.886  0.00  0.00     0.028 H 
ENDBRANCH  33  35
BRANCH  33  39
ATOM     39  C13 non d ame     -32.534   8.808  22.569  0.00  0.00    -0.071 C 
ATOM     40  H16 non d ame     -33.012   9.140  21.647  0.00  0.00     0.028 H 
ATOM     41  H17 non d ame     -31.928   7.924  22.367  0.00  0.00     0.028 H 
ATOM     42  H18 non d ame     -33.298   8.561  23.306  0.00  0.00     0.028 H 
ENDBRANCH  33  39
ENDBRANCH   7  33
ENDBRANCH   4   7
ENDBRANCH   1   3
BRANCH   1  43
ATOM     43  C15 non d ame     -32.228  14.350  25.716  0.00  0.00     0.240 C 
ATOM     44  O5  non d ame     -33.359  14.512  25.387  0.00  0.00    -0.271 OA
ATOM     45  N6  non d ame     -31.831  14.570  27.136  0.00  0.00    -0.355 N 
ATOM     46  H46 non d ame     -30.875  14.430  27.428  0.00  0.00     0.162 HD
BRANCH  45  47
ATOM     47  C20 non d ame     -32.846  14.995  28.124  0.00  0.00     0.013 C 
ATOM     48  H30 non d ame     -33.829  14.746  27.724  0.00  0.00     0.072 H 
BRANCH  47  49
ATOM     49  C21 non d ame     -32.739  16.488  28.339  0.00  0.00    -0.038 C 
ATOM     50  H31 non d ame     -32.981  16.653  29.390  0.00  0.00     0.036 H 
ATOM     51  H32 non d ame     -31.760  16.771  27.954  0.00  0.00     0.036 H 
BRANCH  49  52
ATOM     52  C22 non d ame     -33.778  17.287  27.523  0.00  0.00     0.018 C 
ATOM     53  H33 non d ame     -34.461  16.547  27.109  0.00  0.00     0.048 H 
ATOM     54  H34 non d ame     -34.153  18.058  28.198  0.00  0.00     0.048 H 
BRANCH  52  55
ATOM     55  C23 non d ame     -33.174  18.041  26.306  0.00  0.00     0.259 C 
ATOM     56  O7  non d ame     -32.146  17.685  25.825  0.00  0.00    -0.265 OA
BRANCH  55  57
ATOM     57  O8  non d ame     -33.855  19.173  25.779  0.00  0.00    -0.317 OA
BRANCH  57  58
ATOM     58  C29 non d ame     -34.975  19.595  26.563  0.00  0.00     0.052 C 
ATOM     59  H47 non d ame     -35.097  18.835  27.335  0.00  0.00     0.082 H 
ATOM     60  H48 non d ame     -34.768  20.628  26.842  0.00  0.00     0.082 H 
BRANCH  58  61
ATOM     61  C35 non d ame     -36.232  19.576  25.652  0.00  0.00    -0.034 A 
ATOM     62  C30 non d ame     -37.022  20.715  25.532  0.00  0.00    -0.075 A 
ATOM     63  C31 non d ame     -38.151  20.697  24.714  0.00  0.00    -0.082 A 
ATOM     64  H49 non d ame     -36.757  21.620  26.077  0.00  0.00     0.084 H 
ATOM     65  C32 non d ame     -38.491  19.534  24.018  0.00  0.00    -0.083 A 
ATOM     66  H50 non d ame     -38.768  21.592  24.620  0.00  0.00     0.083 H 
ATOM     67  C33 non d ame     -37.702  18.399  24.144  0.00  0.00    -0.082 A 
ATOM     68  H51 non d ame     -39.372  19.513  23.376  0.00  0.00     0.083 H 
ATOM     69  C34 non d ame     -36.571  18.413  24.959  0.00  0.00    -0.075 A 
ATOM     70  H52 non d ame     -37.971  17.493  23.602  0.00  0.00     0.083 H 
ATOM     71  H53 non d ame     -35.956  17.518  25.052  0.00  0.00     0.084 H 
ENDBRANCH  58  61
ENDBRANCH  57  58
ENDBRANCH  55  57
ENDBRANCH  52  55
ENDBRANCH  49  52
ENDBRANCH  47  49
BRANCH  47  72
ATOM     72  C24 non d ame     -32.614  14.271  29.448  0.00  0.00    -0.039 C 
ATOM     73  H35 non d ame     -31.913  14.898  30.002  0.00  0.00     0.036 H 
ATOM     74  H36 non d ame     -33.608  14.079  29.852  0.00  0.00     0.036 H 
BRANCH  72  75
ATOM     75  C25 non d ame     -31.908  12.850  29.231  0.00  0.00    -0.001 C 
ATOM     76  C26 non d ame     -33.043  11.661  29.203  0.00  0.00    -0.035 C 
ATOM     77  C27 non d ame     -32.680  10.690  30.076  0.00  0.00     0.085 C 
ATOM     78  H38 non d ame     -33.983  12.031  29.610  0.00  0.00     0.036 H 
ATOM     79  H39 non d ame     -33.028  11.153  28.238  0.00  0.00     0.036 H 
ATOM     80  N5  non d ame     -31.576  11.259  30.934  0.00  0.00    -0.049 N 
ATOM     81  H40 non d ame     -33.558  10.514  30.697  0.00  0.00     0.075 H 
ATOM     82  H41 non d ame     -32.274   9.885  29.464  0.00  0.00     0.075 H 
ATOM     83  C28 non d ame     -31.070  12.594  30.180  0.00  0.00     0.193 C 
ATOM     84  H42 non d ame     -32.003  11.527  31.810  0.00  0.00     0.280 HD
ATOM     85  H43 non d ame     -30.828  10.581  30.924  0.00  0.00     0.280 HD
ATOM     86  H44 non d ame     -30.134  12.594  29.623  0.00  0.00     0.129 H 
ATOM     87  H37 non d ame     -31.187  12.867  28.414  0.00  0.00     0.046 H 
BRANCH  83  88
ATOM     88  O6  non d ame     -30.961  13.674  31.109  0.00  0.00    -0.369 OA
ATOM     89  H45 non d ame     -30.894  13.324  32.000  0.00  0.00     0.212 HD
ENDBRANCH  83  88
ENDBRANCH  72  75
ENDBRANCH  47  72
ENDBRANCH  45  47
ENDBRANCH   1  43
BRANCH   1  90
ATOM     90  C16 non d ame     -31.212  14.838  23.469  0.00  0.00    -0.035 C 
ATOM     91  H21 non d ame     -32.219  14.747  23.062  0.00  0.00     0.037 H 
ATOM     92  H22 non d ame     -30.862  15.799  23.844  0.00  0.00     0.037 H 
BRANCH  90  93
ATOM     93  C17 non d ame     -30.236  14.429  22.320  0.00  0.00    -0.059 C 
ATOM     94  H23 non d ame     -30.274  13.345  22.223  0.00  0.00     0.038 H 
BRANCH  93  95
ATOM     95  C18 non d ame     -30.651  15.046  20.947  0.00  0.00    -0.073 C 
ATOM     96  H24 non d ame     -29.952  14.721  20.176  0.00  0.00     0.028 H 
ATOM     97  H25 non d ame     -31.656  14.713  20.687  0.00  0.00     0.028 H 
ATOM     98  H26 non d ame     -30.636  16.133  21.017  0.00  0.00     0.028 H 
ENDBRANCH  93  95
BRANCH  93  99
ATOM     99  C19 non d ame     -28.793  14.803  22.671  0.00  0.00    -0.073 C 
ATOM    100  H27 non d ame     -28.691  15.889  22.684  0.00  0.00     0.028 H 
ATOM    101  H28 non d ame     -28.543  14.405  23.655  0.00  0.00     0.028 H 
ATOM    102  H29 non d ame     -28.117  14.383  21.927  0.00  0.00     0.028 H 
ENDBRANCH  93  99
ENDBRANCH  90  93
ENDBRANCH   1  90
TORSDOF 26
ENDMDL
MODEL 7
REMARK VINA RESULT:      -7.1      3.349      6.746
REMARK  26 active torsions:
REMARK  status: ('A' for Active; 'I' for Inactive)
REMARK    1  A    between atoms: C2_2  and  C3_3 
REMARK    2  A    between atoms: C4_6  and  C5_7 
REMARK       I    between atoms: C5_7  and  N2_9 
REMARK    3  A    between atoms: N2_9  and  C6_10 
REMARK    4  A    between atoms: C6_10  and  C7_11 
REMARK    5  A    between atoms: C6_10  and  C8_13 
REMARK       I    between atoms: C7_11  and  N3_14 
REMARK    6  A    between atoms: N3_14  and  C9_15 
REMARK    7  A    between atoms: C9_15  and  C10_16 
REMARK    8  A    between atoms: C9_15  and  C11_18 
REMARK       I    between atoms: C10_16  and  N4_21 
REMARK    9  A    between atoms: C11_18  and  C12_19 
REMARK   10  A    between atoms: C11_18  and  C13_20 
REMARK   11  A    between atoms: N4_21  and  C14_22 
REMARK   12  A    between atoms: C14_22  and  C15_23 
REMARK   13  A    between atoms: C14_22  and  C16_25 
REMARK       I    between atoms: C15_23  and  N6_40 
REMARK   14  A    between atoms: C16_25  and  C17_26 
REMARK   15  A    between atoms: C17_26  and  C18_27 
REMARK   16  A    between atoms: C17_26  and  C19_28 
REMARK   17  A    between atoms: C20_29  and  C21_30 
REMARK   18  A    between atoms: C20_29  and  C24_33 
REMARK   19  A    between atoms: C20_29  and  N6_40 
REMARK   20  A    between atoms: C21_30  and  C22_31 
REMARK   21  A    between atoms: C22_31  and  C23_32 
REMARK   22  A    between atoms: C23_32  and  O8_43 
REMARK   23  A    between atoms: C24_33  and  C25_34 
REMARK   24  A    between atoms: C28_38  and  O6_39 
REMARK   25  A    between atoms: C29_42  and  O8_43 
REMARK   26  A    between atoms: C29_42  and  C35_49 
ROOT
ATOM      1  C14 non d ame     -32.962  10.411  25.585  0.00  0.00     0.089 C 
ATOM      2  H20 non d ame     -33.671  10.483  24.760  0.00  0.00     0.087 H 
ENDROOT
BRANCH   1   3
ATOM      3  N4  non d ame     -32.387   9.075  25.552  0.00  0.00    -0.346 N 
ATOM      4  C10 non d ame     -33.078   7.966  24.798  0.00  0.00     0.241 C 
ATOM      5  O4  non d ame     -34.099   8.172  24.230  0.00  0.00    -0.271 OA
ATOM      6  H19 non d ame     -31.519   8.919  26.044  0.00  0.00     0.163 HD
BRANCH   4   7
ATOM      7  C9  non d ame     -32.465   6.591  24.770  0.00  0.00     0.092 C 
ATOM      8  H11 non d ame     -31.404   6.666  25.010  0.00  0.00     0.088 H 
BRANCH   7   9
ATOM      9  N3  non d ame     -33.086   5.756  25.802  0.00  0.00    -0.346 N 
ATOM     10  C7  non d ame     -32.651   5.862  27.173  0.00  0.00     0.240 C 
ATOM     11  O3  non d ame     -31.800   6.613  27.462  0.00  0.00    -0.271 OA
ATOM     12  H10 non d ame     -33.819   5.103  25.567  0.00  0.00     0.163 HD
BRANCH  10  13
ATOM     13  C6  non d ame     -33.313   4.969  28.267  0.00  0.00     0.086 C 
ATOM     14  H6  non d ame     -32.683   4.844  29.147  0.00  0.00     0.086 H 
BRANCH  13  15
ATOM     15  N2  non d ame     -34.537   5.609  28.720  0.00  0.00    -0.343 N 
ATOM     16  C5  non d ame     -34.915   5.526  30.133  0.00  0.00     0.273 C 
ATOM     17  O2  non d ame     -34.229   4.940  30.896  0.00  0.00    -0.266 OA
ATOM     18  H5  non d ame     -35.120   6.105  28.060  0.00  0.00     0.163 HD
BRANCH  16  19
ATOM     19  C4  non d ame     -36.205   6.200  30.626  0.00  0.00     0.154 A 
ATOM     20  C1  non d ame     -36.472   7.603  30.704  0.00  0.00    -0.017 A 
ATOM     21  C2  non d ame     -37.786   7.695  31.217  0.00  0.00     0.077 A 
ATOM     22  H1  non d ame     -35.814   8.428  30.433  0.00  0.00     0.091 H 
ATOM     23  O1  non d ame     -38.214   6.480  31.404  0.00  0.00    -0.218 OA
ATOM     24  N1  non d ame     -37.309   5.591  31.067  0.00  0.00    -0.123 NA
BRANCH  21  25
ATOM     25  C3  non d ame     -38.557   8.978  31.496  0.00  0.00    -0.029 C 
ATOM     26  H2  non d ame     -38.077   9.810  30.980  0.00  0.00     0.036 H 
ATOM     27  H3  non d ame     -39.581   8.872  31.138  0.00  0.00     0.036 H 
ATOM     28  H4  non d ame     -38.565   9.172  32.568  0.00  0.00     0.036 H 
ENDBRANCH  21  25
ENDBRANCH  16  19
ENDBRANCH  13  15
BRANCH  13  29
ATOM     29  C8  non d ame     -33.624   3.611  27.691  0.00  0.00    -0.049 C 
ATOM     30  H7  non d ame     -33.854   3.710  26.631  0.00  0.00     0.030 H 
ATOM     31  H8  non d ame     -32.760   2.958  27.815  0.00  0.00     0.030 H 
ATOM     32  H9  non d ame     -34.481   3.183  28.211  0.00  0.00     0.030 H 
ENDBRANCH  13  29
ENDBRANCH  10  13
ENDBRANCH   7   9
BRANCH   7  33
ATOM     33  C11 non d ame     -32.702   5.947  23.373  0.00  0.00    -0.033 C 
ATOM     34  H12 non d ame     -33.536   6.472  22.906  0.00  0.00     0.042 H 
BRANCH  33  35
ATOM     35  C12 non d ame     -31.459   6.122  22.446  0.00  0.00    -0.071 C 
ATOM     36  H13 non d ame     -31.568   5.486  21.567  0.00  0.00     0.028 H 
ATOM     37  H14 non d ame     -31.384   7.163  22.134  0.00  0.00     0.028 H 
ATOM     38  H15 non d ame     -30.558   5.839  22.989  0.00  0.00     0.028 H 
ENDBRANCH  33  35
BRANCH  33  39
ATOM     39  C13 non d ame     -33.098   4.441  23.511  0.00  0.00    -0.071 C 
ATOM     40  H16 non d ame     -32.383   3.935  24.161  0.00  0.00     0.028 H 
ATOM     41  H17 non d ame     -34.097   4.365  23.940  0.00  0.00     0.028 H 
ATOM     42  H18 non d ame     -33.090   3.972  22.528  0.00  0.00     0.028 H 
ENDBRANCH  33  39
ENDBRANCH   7  33
ENDBRANCH   4   7
ENDBRANCH   1   3
BRANCH   1  43
ATOM     43  C15 non d ame     -31.811  11.449  25.465  0.00  0.00     0.240 C 
ATOM     44  O5  non d ame     -30.745  11.206  25.930  0.00  0.00    -0.271 OA
ATOM     45  N6  non d ame     -32.035  12.744  24.760  0.00  0.00    -0.355 N 
ATOM     46  H46 non d ame     -32.935  12.959  24.356  0.00  0.00     0.162 HD
BRANCH  45  47
ATOM     47  C20 non d ame     -30.929  13.721  24.652  0.00  0.00     0.013 C 
ATOM     48  H30 non d ame     -30.123  13.388  25.306  0.00  0.00     0.072 H 
BRANCH  47  49
ATOM     49  C21 non d ame     -31.421  15.082  25.088  0.00  0.00    -0.038 C 
ATOM     50  H31 non d ame     -30.984  15.251  26.074  0.00  0.00     0.036 H 
ATOM     51  H32 non d ame     -31.187  15.757  24.266  0.00  0.00     0.036 H 
BRANCH  49  52
ATOM     52  C22 non d ame     -32.952  15.135  25.275  0.00  0.00     0.018 C 
ATOM     53  H33 non d ame     -33.352  15.512  24.334  0.00  0.00     0.048 H 
ATOM     54  H34 non d ame     -33.240  14.145  25.631  0.00  0.00     0.048 H 
BRANCH  52  55
ATOM     55  C23 non d ame     -33.416  16.135  26.369  0.00  0.00     0.259 C 
ATOM     56  O7  non d ame     -34.515  16.588  26.347  0.00  0.00    -0.265 OA
BRANCH  55  57
ATOM     57  O8  non d ame     -32.507  16.518  27.394  0.00  0.00    -0.317 OA
BRANCH  57  58
ATOM     58  C29 non d ame     -32.892  16.090  28.704  0.00  0.00     0.052 C 
ATOM     59  H47 non d ame     -32.446  16.807  29.392  0.00  0.00     0.082 H 
ATOM     60  H48 non d ame     -33.975  15.969  28.668  0.00  0.00     0.082 H 
BRANCH  58  61
ATOM     61  C35 non d ame     -32.252  14.699  28.960  0.00  0.00    -0.034 A 
ATOM     62  C30 non d ame     -32.985  13.701  29.595  0.00  0.00    -0.075 A 
ATOM     63  C31 non d ame     -32.409  12.452  29.826  0.00  0.00    -0.082 A 
ATOM     64  H49 non d ame     -34.009  13.897  29.912  0.00  0.00     0.084 H 
ATOM     65  C32 non d ame     -31.095  12.204  29.422  0.00  0.00    -0.083 A 
ATOM     66  H50 non d ame     -32.987  11.672  30.323  0.00  0.00     0.083 H 
ATOM     67  C33 non d ame     -30.366  13.204  28.792  0.00  0.00    -0.082 A 
ATOM     68  H51 non d ame     -30.638  11.230  29.598  0.00  0.00     0.083 H 
ATOM     69  C34 non d ame     -30.938  14.453  28.557  0.00  0.00    -0.075 A 
ATOM     70  H52 non d ame     -29.340  13.008  28.480  0.00  0.00     0.083 H 
ATOM     71  H53 non d ame     -30.360  15.232  28.061  0.00  0.00     0.084 H 
ENDBRANCH  58  61
ENDBRANCH  57  58
ENDBRANCH  55  57
ENDBRANCH  52  55
ENDBRANCH  49  52
ENDBRANCH  47  49
BRANCH  47  72
ATOM     72  C24 non d ame     -30.443  13.793  23.206  0.00  0.00    -0.039 C 
ATOM     73  H35 non d ame     -29.465  13.308  23.205  0.00  0.00     0.036 H 
ATOM     74  H36 non d ame     -31.255  13.382  22.607  0.00  0.00     0.036 H 
BRANCH  72  75
ATOM     75  C25 non d ame     -30.222  15.306  22.730  0.00  0.00    -0.001 C 
ATOM     76  C26 non d ame     -31.279  15.673  21.526  0.00  0.00    -0.035 C 
ATOM     77  C27 non d ame     -30.591  16.200  20.485  0.00  0.00     0.085 C 
ATOM     78  H38 non d ame     -31.707  14.760  21.112  0.00  0.00     0.036 H 
ATOM     79  H39 non d ame     -31.932  16.489  21.838  0.00  0.00     0.036 H 
ATOM     80  N5  non d ame     -29.129  15.923  20.738  0.00  0.00    -0.049 N 
ATOM     81  H40 non d ame     -30.912  15.638  19.608  0.00  0.00     0.075 H 
ATOM     82  H41 non d ame     -30.762  17.275  20.537  0.00  0.00     0.075 H 
ATOM     83  C28 non d ame     -29.021  15.487  22.289  0.00  0.00     0.193 C 
ATOM     84  H42 non d ame     -28.883  15.130  20.163  0.00  0.00     0.280 HD
ATOM     85  H43 non d ame     -28.646  16.803  20.617  0.00  0.00     0.280 HD
ATOM     86  H44 non d ame     -28.639  16.182  23.035  0.00  0.00     0.129 H 
ATOM     87  H37 non d ame     -30.164  15.999  23.569  0.00  0.00     0.046 H 
BRANCH  83  88
ATOM     88  O6  non d ame     -28.217  14.312  22.416  0.00  0.00    -0.369 OA
ATOM     89  H45 non d ame     -27.348  14.552  22.744  0.00  0.00     0.212 HD
ENDBRANCH  83  88
ENDBRANCH  72  75
ENDBRANCH  47  72
ENDBRANCH  45  47
ENDBRANCH   1  43
BRANCH   1  90
ATOM     90  C16 non d ame     -33.690  10.605  26.907  0.00  0.00    -0.035 C 
ATOM     91  H21 non d ame     -32.964  11.074  27.570  0.00  0.00     0.037 H 
ATOM     92  H22 non d ame     -34.613  11.126  26.654  0.00  0.00     0.037 H 
BRANCH  90  93
ATOM     93  C17 non d ame     -34.111   9.266  27.592  0.00  0.00    -0.059 C 
ATOM     94  H23 non d ame     -33.605   8.454  27.072  0.00  0.00     0.038 H 
BRANCH  93  95
ATOM     95  C18 non d ame     -33.682   9.212  29.093  0.00  0.00    -0.073 C 
ATOM     96  H24 non d ame     -33.114   8.300  29.277  0.00  0.00     0.028 H 
ATOM     97  H25 non d ame     -33.060  10.078  29.325  0.00  0.00     0.028 H 
ATOM     98  H26 non d ame     -34.568   9.222  29.726  0.00  0.00     0.028 H 
ENDBRANCH  93  95
BRANCH  93  99
ATOM     99  C19 non d ame     -35.617   9.030  27.449  0.00  0.00    -0.073 C 
ATOM    100  H27 non d ame     -36.076   9.891  26.962  0.00  0.00     0.028 H 
ATOM    101  H28 non d ame     -35.789   8.138  26.845  0.00  0.00     0.028 H 
ATOM    102  H29 non d ame     -36.059   8.891  28.435  0.00  0.00     0.028 H 
ENDBRANCH  93  99
ENDBRANCH  90  93
ENDBRANCH   1  90
TORSDOF 26
ENDMDL
MODEL 8
REMARK VINA RESULT:      -7.1      2.917      5.767
REMARK  26 active torsions:
REMARK  status: ('A' for Active; 'I' for Inactive)
REMARK    1  A    between atoms: C2_2  and  C3_3 
REMARK    2  A    between atoms: C4_6  and  C5_7 
REMARK       I    between atoms: C5_7  and  N2_9 
REMARK    3  A    between atoms: N2_9  and  C6_10 
REMARK    4  A    between atoms: C6_10  and  C7_11 
REMARK    5  A    between atoms: C6_10  and  C8_13 
REMARK       I    between atoms: C7_11  and  N3_14 
REMARK    6  A    between atoms: N3_14  and  C9_15 
REMARK    7  A    between atoms: C9_15  and  C10_16 
REMARK    8  A    between atoms: C9_15  and  C11_18 
REMARK       I    between atoms: C10_16  and  N4_21 
REMARK    9  A    between atoms: C11_18  and  C12_19 
REMARK   10  A    between atoms: C11_18  and  C13_20 
REMARK   11  A    between atoms: N4_21  and  C14_22 
REMARK   12  A    between atoms: C14_22  and  C15_23 
REMARK   13  A    between atoms: C14_22  and  C16_25 
REMARK       I    between atoms: C15_23  and  N6_40 
REMARK   14  A    between atoms: C16_25  and  C17_26 
REMARK   15  A    between atoms: C17_26  and  C18_27 
REMARK   16  A    between atoms: C17_26  and  C19_28 
REMARK   17  A    between atoms: C20_29  and  C21_30 
REMARK   18  A    between atoms: C20_29  and  C24_33 
REMARK   19  A    between atoms: C20_29  and  N6_40 
REMARK   20  A    between atoms: C21_30  and  C22_31 
REMARK   21  A    between atoms: C22_31  and  C23_32 
REMARK   22  A    between atoms: C23_32  and  O8_43 
REMARK   23  A    between atoms: C24_33  and  C25_34 
REMARK   24  A    between atoms: C28_38  and  O6_39 
REMARK   25  A    between atoms: C29_42  and  O8_43 
REMARK   26  A    between atoms: C29_42  and  C35_49 
ROOT
ATOM      1  C14 non d ame     -30.912  14.105  24.134  0.00  0.00     0.089 C 
ATOM      2  H20 non d ame     -29.875  13.768  24.134  0.00  0.00     0.087 H 
ENDROOT
BRANCH   1   3
ATOM      3  N4  non d ame     -31.752  12.935  24.343  0.00  0.00    -0.346 N 
ATOM      4  C10 non d ame     -31.229  11.555  24.030  0.00  0.00     0.241 C 
ATOM      5  O4  non d ame     -30.130  11.412  23.606  0.00  0.00    -0.271 OA
ATOM      6  H19 non d ame     -32.685  13.079  24.703  0.00  0.00     0.163 HD
BRANCH   4   7
ATOM      7  C9  non d ame     -32.110  10.356  24.258  0.00  0.00     0.092 C 
ATOM      8  H11 non d ame     -32.854  10.300  23.462  0.00  0.00     0.088 H 
BRANCH   7   9
ATOM      9  N3  non d ame     -31.304   9.135  24.185  0.00  0.00    -0.346 N 
ATOM     10  C7  non d ame     -31.267   8.367  22.965  0.00  0.00     0.240 C 
ATOM     11  O3  non d ame     -31.882   8.717  22.032  0.00  0.00    -0.271 OA
ATOM     12  H10 non d ame     -30.770   8.819  24.981  0.00  0.00     0.163 HD
BRANCH  10  13
ATOM     13  C6  non d ame     -30.408   7.066  22.894  0.00  0.00     0.086 C 
ATOM     14  H6  non d ame     -30.575   6.404  23.744  0.00  0.00     0.086 H 
BRANCH  13  15
ATOM     15  N2  non d ame     -30.784   6.318  21.705  0.00  0.00    -0.343 N 
ATOM     16  C5  non d ame     -31.868   5.335  21.785  0.00  0.00     0.273 C 
ATOM     17  O2  non d ame     -32.428   5.152  22.809  0.00  0.00    -0.266 OA
ATOM     18  H5  non d ame     -30.297   6.478  20.835  0.00  0.00     0.163 HD
BRANCH  16  19
ATOM     19  C4  non d ame     -32.276   4.538  20.536  0.00  0.00     0.154 A 
ATOM     20  C1  non d ame     -32.485   3.126  20.441  0.00  0.00    -0.017 A 
ATOM     21  C2  non d ame     -32.843   2.901  19.093  0.00  0.00     0.077 A 
ATOM     22  H1  non d ame     -32.390   2.378  21.228  0.00  0.00     0.091 H 
ATOM     23  O1  non d ame     -32.840   4.056  18.493  0.00  0.00    -0.218 OA
ATOM     24  N1  non d ame     -32.512   5.026  19.315  0.00  0.00    -0.123 NA
BRANCH  21  25
ATOM     25  C3  non d ame     -33.172   1.555  18.460  0.00  0.00    -0.029 C 
ATOM     26  H2  non d ame     -33.052   1.623  17.379  0.00  0.00     0.036 H 
ATOM     27  H3  non d ame     -32.498   0.794  18.853  0.00  0.00     0.036 H 
ATOM     28  H4  non d ame     -34.201   1.286  18.695  0.00  0.00     0.036 H 
ENDBRANCH  21  25
ENDBRANCH  16  19
ENDBRANCH  13  15
BRANCH  13  29
ATOM     29  C8  non d ame     -28.946   7.428  22.835  0.00  0.00    -0.049 C 
ATOM     30  H7  non d ame     -28.640   7.537  21.795  0.00  0.00     0.030 H 
ATOM     31  H8  non d ame     -28.784   8.369  23.361  0.00  0.00     0.030 H 
ATOM     32  H9  non d ame     -28.358   6.641  23.307  0.00  0.00     0.030 H 
ENDBRANCH  13  29
ENDBRANCH  10  13
ENDBRANCH   7   9
BRANCH   7  33
ATOM     33  C11 non d ame     -32.769  10.457  25.665  0.00  0.00    -0.033 C 
ATOM     34  H12 non d ame     -32.465  11.409  26.102  0.00  0.00     0.042 H 
BRANCH  33  35
ATOM     35  C12 non d ame     -34.326  10.461  25.566  0.00  0.00    -0.071 C 
ATOM     36  H13 non d ame     -34.734   9.696  26.227  0.00  0.00     0.028 H 
ATOM     37  H14 non d ame     -34.706  11.438  25.864  0.00  0.00     0.028 H 
ATOM     38  H15 non d ame     -34.626  10.251  24.540  0.00  0.00     0.028 H 
ENDBRANCH  33  35
BRANCH  33  39
ATOM     39  C13 non d ame     -32.263   9.314  26.602  0.00  0.00    -0.071 C 
ATOM     40  H16 non d ame     -32.665   8.359  26.261  0.00  0.00     0.028 H 
ATOM     41  H17 non d ame     -31.173   9.279  26.579  0.00  0.00     0.028 H 
ATOM     42  H18 non d ame     -32.597   9.505  27.622  0.00  0.00     0.028 H 
ENDBRANCH  33  39
ENDBRANCH   7  33
ENDBRANCH   4   7
ENDBRANCH   1   3
BRANCH   1  43
ATOM     43  C15 non d ame     -31.196  15.129  25.270  0.00  0.00     0.240 C 
ATOM     44  O5  non d ame     -30.812  16.248  25.165  0.00  0.00    -0.271 OA
ATOM     45  N6  non d ame     -31.957  14.716  26.483  0.00  0.00    -0.355 N 
ATOM     46  H46 non d ame     -32.294  13.769  26.580  0.00  0.00     0.162 HD
BRANCH  45  47
ATOM     47  C20 non d ame     -32.222  15.702  27.554  0.00  0.00     0.013 C 
ATOM     48  H30 non d ame     -31.588  16.570  27.374  0.00  0.00     0.072 H 
BRANCH  47  49
ATOM     49  C21 non d ame     -31.888  15.086  28.894  0.00  0.00    -0.038 C 
ATOM     50  H31 non d ame     -30.824  14.846  28.850  0.00  0.00     0.036 H 
ATOM     51  H32 non d ame     -32.258  15.788  29.640  0.00  0.00     0.036 H 
BRANCH  49  52
ATOM     52  C22 non d ame     -32.626  13.754  29.142  0.00  0.00     0.018 C 
ATOM     53  H33 non d ame     -33.013  13.816  30.158  0.00  0.00     0.048 H 
ATOM     54  H34 non d ame     -33.314  13.637  28.303  0.00  0.00     0.048 H 
BRANCH  52  55
ATOM     55  C23 non d ame     -31.699  12.508  29.112  0.00  0.00     0.259 C 
ATOM     56  O7  non d ame     -30.797  12.446  28.340  0.00  0.00    -0.265 OA
BRANCH  55  57
ATOM     57  O8  non d ame     -31.947  11.432  30.008  0.00  0.00    -0.317 OA
BRANCH  57  58
ATOM     58  C29 non d ame     -32.880  11.744  31.048  0.00  0.00     0.052 C 
ATOM     59  H47 non d ame     -32.306  11.727  31.974  0.00  0.00     0.082 H 
ATOM     60  H48 non d ame     -33.378  12.661  30.732  0.00  0.00     0.082 H 
BRANCH  58  61
ATOM     61  C35 non d ame     -33.935  10.607  31.103  0.00  0.00    -0.034 A 
ATOM     62  C30 non d ame     -34.839  10.547  32.158  0.00  0.00    -0.075 A 
ATOM     63  C31 non d ame     -35.787   9.525  32.208  0.00  0.00    -0.082 A 
ATOM     64  H49 non d ame     -34.806  11.299  32.946  0.00  0.00     0.084 H 
ATOM     65  C32 non d ame     -35.826   8.559  31.198  0.00  0.00    -0.083 A 
ATOM     66  H50 non d ame     -36.495   9.481  33.036  0.00  0.00     0.083 H 
ATOM     67  C33 non d ame     -34.919   8.622  30.149  0.00  0.00    -0.082 A 
ATOM     68  H51 non d ame     -36.564   7.758  31.229  0.00  0.00     0.083 H 
ATOM     69  C34 non d ame     -33.972   9.643  30.094  0.00  0.00    -0.075 A 
ATOM     70  H52 non d ame     -34.951   7.866  29.363  0.00  0.00     0.083 H 
ATOM     71  H53 non d ame     -33.264   9.685  29.266  0.00  0.00     0.084 H 
ENDBRANCH  58  61
ENDBRANCH  57  58
ENDBRANCH  55  57
ENDBRANCH  52  55
ENDBRANCH  49  52
ENDBRANCH  47  49
BRANCH  47  72
ATOM     72  C24 non d ame     -33.694  16.107  27.531  0.00  0.00    -0.039 C 
ATOM     73  H35 non d ame     -34.181  15.391  26.868  0.00  0.00     0.036 H 
ATOM     74  H36 non d ame     -33.993  16.171  28.577  0.00  0.00     0.036 H 
BRANCH  72  75
ATOM     75  C25 non d ame     -33.899  17.561  26.891  0.00  0.00    -0.001 C 
ATOM     76  C26 non d ame     -32.521  18.443  27.054  0.00  0.00    -0.035 C 
ATOM     77  C27 non d ame     -32.832  19.639  27.610  0.00  0.00     0.085 C 
ATOM     78  H38 non d ame     -31.866  17.981  27.792  0.00  0.00     0.036 H 
ATOM     79  H39 non d ame     -32.132  18.713  26.072  0.00  0.00     0.036 H 
ATOM     80  N5  non d ame     -34.240  19.526  28.142  0.00  0.00    -0.049 N 
ATOM     81  H40 non d ame     -32.144  19.758  28.448  0.00  0.00     0.075 H 
ATOM     82  H41 non d ame     -32.819  20.355  26.789  0.00  0.00     0.075 H 
ATOM     83  C28 non d ame     -34.863  18.196  27.471  0.00  0.00     0.193 C 
ATOM     84  H42 non d ame     -34.159  19.376  29.138  0.00  0.00     0.280 HD
ATOM     85  H43 non d ame     -34.743  20.329  27.792  0.00  0.00     0.280 HD
ATOM     86  H44 non d ame     -35.573  18.271  26.649  0.00  0.00     0.129 H 
ATOM     87  H37 non d ame     -34.345  17.516  25.897  0.00  0.00     0.046 H 
BRANCH  83  88
ATOM     88  O6  non d ame     -35.512  17.400  28.465  0.00  0.00    -0.369 OA
ATOM     89  H45 non d ame     -35.848  16.596  28.062  0.00  0.00     0.212 HD
ENDBRANCH  83  88
ENDBRANCH  72  75
ENDBRANCH  47  72
ENDBRANCH  45  47
ENDBRANCH   1  43
BRANCH   1  90
ATOM     90  C16 non d ame     -31.252  14.725  22.789  0.00  0.00    -0.035 C 
ATOM     91  H21 non d ame     -32.073  14.127  22.394  0.00  0.00     0.037 H 
ATOM     92  H22 non d ame     -31.399  15.786  22.989  0.00  0.00     0.037 H 
BRANCH  90  93
ATOM     93  C17 non d ame     -30.095  14.630  21.744  0.00  0.00    -0.059 C 
ATOM     94  H23 non d ame     -30.023  13.590  21.424  0.00  0.00     0.038 H 
BRANCH  93  95
ATOM     95  C18 non d ame     -30.373  15.500  20.477  0.00  0.00    -0.073 C 
ATOM     96  H24 non d ame     -31.362  15.952  20.555  0.00  0.00     0.028 H 
ATOM     97  H25 non d ame     -29.621  16.287  20.404  0.00  0.00     0.028 H 
ATOM     98  H26 non d ame     -30.328  14.873  19.587  0.00  0.00     0.028 H 
ENDBRANCH  93  95
BRANCH  93  99
ATOM     99  C19 non d ame     -28.753  15.005  22.378  0.00  0.00    -0.073 C 
ATOM    100  H27 non d ame     -28.122  14.117  22.446  0.00  0.00     0.028 H 
ATOM    101  H28 non d ame     -28.257  15.755  21.763  0.00  0.00     0.028 H 
ATOM    102  H29 non d ame     -28.923  15.408  23.376  0.00  0.00     0.028 H 
ENDBRANCH  93  99
ENDBRANCH  90  93
ENDBRANCH   1  90
TORSDOF 26
ENDMDL
MODEL 9
REMARK VINA RESULT:      -7.1      3.330      8.284
REMARK  26 active torsions:
REMARK  status: ('A' for Active; 'I' for Inactive)
REMARK    1  A    between atoms: C2_2  and  C3_3 
REMARK    2  A    between atoms: C4_6  and  C5_7 
REMARK       I    between atoms: C5_7  and  N2_9 
REMARK    3  A    between atoms: N2_9  and  C6_10 
REMARK    4  A    between atoms: C6_10  and  C7_11 
REMARK    5  A    between atoms: C6_10  and  C8_13 
REMARK       I    between atoms: C7_11  and  N3_14 
REMARK    6  A    between atoms: N3_14  and  C9_15 
REMARK    7  A    between atoms: C9_15  and  C10_16 
REMARK    8  A    between atoms: C9_15  and  C11_18 
REMARK       I    between atoms: C10_16  and  N4_21 
REMARK    9  A    between atoms: C11_18  and  C12_19 
REMARK   10  A    between atoms: C11_18  and  C13_20 
REMARK   11  A    between atoms: N4_21  and  C14_22 
REMARK   12  A    between atoms: C14_22  and  C15_23 
REMARK   13  A    between atoms: C14_22  and  C16_25 
REMARK       I    between atoms: C15_23  and  N6_40 
REMARK   14  A    between atoms: C16_25  and  C17_26 
REMARK   15  A    between atoms: C17_26  and  C18_27 
REMARK   16  A    between atoms: C17_26  and  C19_28 
REMARK   17  A    between atoms: C20_29  and  C21_30 
REMARK   18  A    between atoms: C20_29  and  C24_33 
REMARK   19  A    between atoms: C20_29  and  N6_40 
REMARK   20  A    between atoms: C21_30  and  C22_31 
REMARK   21  A    between atoms: C22_31  and  C23_32 
REMARK   22  A    between atoms: C23_32  and  O8_43 
REMARK   23  A    between atoms: C24_33  and  C25_34 
REMARK   24  A    between atoms: C28_38  and  O6_39 
REMARK   25  A    between atoms: C29_42  and  O8_43 
REMARK   26  A    between atoms: C29_42  and  C35_49 
ROOT
ATOM      1  C14 non d ame     -32.922  10.195  25.733  0.00  0.00     0.089 C 
ATOM      2  H20 non d ame     -32.509   9.195  25.863  0.00  0.00     0.087 H 
ENDROOT
BRANCH   1   3
ATOM      3  N4  non d ame     -33.725  10.495  26.909  0.00  0.00    -0.346 N 
ATOM      4  C10 non d ame     -33.467   9.777  28.211  0.00  0.00     0.241 C 
ATOM      5  O4  non d ame     -32.610   8.960  28.285  0.00  0.00    -0.271 OA
ATOM      6  H19 non d ame     -34.451  11.192  26.824  0.00  0.00     0.163 HD
BRANCH   4   7
ATOM      7  C9  non d ame     -34.303  10.104  29.419  0.00  0.00     0.092 C 
ATOM      8  H11 non d ame     -35.127  10.754  29.121  0.00  0.00     0.088 H 
BRANCH   7   9
ATOM      9  N3  non d ame     -34.893   8.874  29.954  0.00  0.00    -0.346 N 
ATOM     10  C7  non d ame     -36.216   8.471  29.543  0.00  0.00     0.240 C 
ATOM     11  O3  non d ame     -36.820   9.127  28.785  0.00  0.00    -0.271 OA
ATOM     12  H10 non d ame     -34.385   8.299  30.610  0.00  0.00     0.163 HD
BRANCH  10  13
ATOM     13  C6  non d ame     -36.840   7.162  30.118  0.00  0.00     0.086 C 
ATOM     14  H6  non d ame     -37.349   6.568  29.358  0.00  0.00     0.086 H 
BRANCH  13  15
ATOM     15  N2  non d ame     -35.776   6.328  30.653  0.00  0.00    -0.343 N 
ATOM     16  C5  non d ame     -34.985   5.497  29.743  0.00  0.00     0.273 C 
ATOM     17  O2  non d ame     -35.213   5.504  28.584  0.00  0.00    -0.266 OA
ATOM     18  H5  non d ame     -35.591   6.326  31.646  0.00  0.00     0.163 HD
BRANCH  16  19
ATOM     19  C4  non d ame     -33.856   4.612  30.296  0.00  0.00     0.154 A 
ATOM     20  C1  non d ame     -33.623   4.261  31.663  0.00  0.00    -0.017 A 
ATOM     21  C2  non d ame     -32.474   3.440  31.637  0.00  0.00     0.077 A 
ATOM     22  H1  non d ame     -34.197   4.559  32.540  0.00  0.00     0.091 H 
ATOM     23  O1  non d ame     -32.101   3.335  30.394  0.00  0.00    -0.218 OA
ATOM     24  N1  non d ame     -32.892   4.011  29.594  0.00  0.00    -0.123 NA
BRANCH  21  25
ATOM     25  C3  non d ame     -31.799   2.795  32.840  0.00  0.00    -0.029 C 
ATOM     26  H2  non d ame     -30.799   3.212  32.963  0.00  0.00     0.036 H 
ATOM     27  H3  non d ame     -32.387   2.993  33.736  0.00  0.00     0.036 H 
ATOM     28  H4  non d ame     -31.726   1.720  32.683  0.00  0.00     0.036 H 
ENDBRANCH  21  25
ENDBRANCH  16  19
ENDBRANCH  13  15
BRANCH  13  29
ATOM     29  C8  non d ame     -37.824   7.507  31.207  0.00  0.00    -0.049 C 
ATOM     30  H7  non d ame     -38.808   7.674  30.769  0.00  0.00     0.030 H 
ATOM     31  H8  non d ame     -37.880   6.683  31.920  0.00  0.00     0.030 H 
ATOM     32  H9  non d ame     -37.496   8.410  31.721  0.00  0.00     0.030 H 
ENDBRANCH  13  29
ENDBRANCH  10  13
ENDBRANCH   7   9
BRANCH   7  33
ATOM     33  C11 non d ame     -33.406  10.762  30.508  0.00  0.00    -0.033 C 
ATOM     34  H12 non d ame     -32.606  10.059  30.743  0.00  0.00     0.042 H 
BRANCH  33  35
ATOM     35  C12 non d ame     -32.740  12.072  29.982  0.00  0.00    -0.071 C 
ATOM     36  H13 non d ame     -31.887  12.323  30.611  0.00  0.00     0.028 H 
ATOM     37  H14 non d ame     -32.404  11.922  28.957  0.00  0.00     0.028 H 
ATOM     38  H15 non d ame     -33.465  12.885  30.013  0.00  0.00     0.028 H 
ENDBRANCH  33  35
BRANCH  33  39
ATOM     39  C13 non d ame     -34.217  11.024  31.817  0.00  0.00    -0.071 C 
ATOM     40  H16 non d ame     -33.756  11.841  32.373  0.00  0.00     0.028 H 
ATOM     41  H17 non d ame     -35.243  11.292  31.563  0.00  0.00     0.028 H 
ATOM     42  H18 non d ame     -34.219  10.123  32.430  0.00  0.00     0.028 H 
ENDBRANCH  33  39
ENDBRANCH   7  33
ENDBRANCH   4   7
ENDBRANCH   1   3
BRANCH   1  43
ATOM     43  C15 non d ame     -31.812  11.277  25.602  0.00  0.00     0.240 C 
ATOM     44  O5  non d ame     -30.789  11.147  26.192  0.00  0.00    -0.271 OA
ATOM     45  N6  non d ame     -32.020  12.469  24.732  0.00  0.00    -0.355 N 
ATOM     46  H46 non d ame     -32.884  12.587  24.221  0.00  0.00     0.162 HD
BRANCH  45  47
ATOM     47  C20 non d ame     -30.954  13.488  24.616  0.00  0.00     0.013 C 
ATOM     48  H30 non d ame     -30.088  13.131  25.173  0.00  0.00     0.072 H 
BRANCH  47  49
ATOM     49  C21 non d ame     -31.444  14.793  25.203  0.00  0.00    -0.038 C 
ATOM     50  H31 non d ame     -30.703  15.541  24.918  0.00  0.00     0.036 H 
ATOM     51  H32 non d ame     -32.477  14.895  24.872  0.00  0.00     0.036 H 
BRANCH  49  52
ATOM     52  C22 non d ame     -31.479  14.780  26.746  0.00  0.00     0.018 C 
ATOM     53  H33 non d ame     -30.913  13.900  27.047  0.00  0.00     0.048 H 
ATOM     54  H34 non d ame     -31.148  15.773  27.056  0.00  0.00     0.048 H 
BRANCH  52  55
ATOM     55  C23 non d ame     -32.903  14.599  27.340  0.00  0.00     0.259 C 
ATOM     56  O7  non d ame     -33.626  13.751  26.927  0.00  0.00    -0.265 OA
BRANCH  55  57
ATOM     57  O8  non d ame     -33.342  15.471  28.375  0.00  0.00    -0.317 OA
BRANCH  57  58
ATOM     58  C29 non d ame     -34.447  16.302  28.006  0.00  0.00     0.052 C 
ATOM     59  H47 non d ame     -34.992  15.746  27.243  0.00  0.00     0.082 H 
ATOM     60  H48 non d ame     -34.939  16.573  28.940  0.00  0.00     0.082 H 
BRANCH  58  61
ATOM     61  C35 non d ame     -33.879  17.594  27.359  0.00  0.00    -0.034 A 
ATOM     62  C30 non d ame     -34.369  18.033  26.133  0.00  0.00    -0.075 A 
ATOM     63  C31 non d ame     -33.858  19.193  25.551  0.00  0.00    -0.082 A 
ATOM     64  H49 non d ame     -35.152  17.468  25.627  0.00  0.00     0.084 H 
ATOM     65  C32 non d ame     -32.852  19.914  26.200  0.00  0.00    -0.083 A 
ATOM     66  H50 non d ame     -34.246  19.535  24.591  0.00  0.00     0.083 H 
ATOM     67  C33 non d ame     -32.364  19.470  27.422  0.00  0.00    -0.082 A 
ATOM     68  H51 non d ame     -32.448  20.822  25.753  0.00  0.00     0.083 H 
ATOM     69  C34 non d ame     -32.873  18.313  28.007  0.00  0.00    -0.075 A 
ATOM     70  H52 non d ame     -31.577  20.034  27.924  0.00  0.00     0.083 H 
ATOM     71  H53 non d ame     -32.485  17.972  28.967  0.00  0.00     0.084 H 
ENDBRANCH  58  61
ENDBRANCH  57  58
ENDBRANCH  55  57
ENDBRANCH  52  55
ENDBRANCH  49  52
ENDBRANCH  47  49
BRANCH  47  72
ATOM     72  C24 non d ame     -30.593  13.693  23.147  0.00  0.00    -0.039 C 
ATOM     73  H35 non d ame     -29.692  13.100  22.985  0.00  0.00     0.036 H 
ATOM     74  H36 non d ame     -31.502  13.465  22.590  0.00  0.00     0.036 H 
BRANCH  72  75
ATOM     75  C25 non d ame     -30.218  15.219  22.836  0.00  0.00    -0.001 C 
ATOM     76  C26 non d ame     -31.307  15.859  21.783  0.00  0.00    -0.035 C 
ATOM     77  C27 non d ame     -30.636  16.432  20.755  0.00  0.00     0.085 C 
ATOM     78  H38 non d ame     -31.876  15.063  21.303  0.00  0.00     0.036 H 
ATOM     79  H39 non d ame     -31.827  16.698  22.247  0.00  0.00     0.036 H 
ATOM     80  N5  non d ame     -29.206  15.957  20.843  0.00  0.00    -0.049 N 
ATOM     81  H40 non d ame     -31.089  16.028  19.850  0.00  0.00     0.075 H 
ATOM     82  H41 non d ame     -30.666  17.504  20.949  0.00  0.00     0.075 H 
ATOM     83  C28 non d ame     -29.040  15.315  22.315  0.00  0.00     0.193 C 
ATOM     84  H42 non d ame     -29.105  15.221  20.158  0.00  0.00     0.280 HD
ATOM     85  H43 non d ame     -28.626  16.782  20.785  0.00  0.00     0.280 HD
ATOM     86  H44 non d ame     -28.519  15.859  23.101  0.00  0.00     0.129 H 
ATOM     87  H37 non d ame     -30.012  15.787  23.743  0.00  0.00     0.046 H 
BRANCH  83  88
ATOM     88  O6  non d ame     -28.384  14.048  22.229  0.00  0.00    -0.369 OA
ATOM     89  H45 non d ame     -28.436  13.721  21.328  0.00  0.00     0.212 HD
ENDBRANCH  83  88
ENDBRANCH  72  75
ENDBRANCH  47  72
ENDBRANCH  45  47
ENDBRANCH   1  43
BRANCH   1  90
ATOM     90  C16 non d ame     -33.815  10.227  24.502  0.00  0.00    -0.035 C 
ATOM     91  H21 non d ame     -34.834  10.167  24.883  0.00  0.00     0.037 H 
ATOM     92  H22 non d ame     -33.496  11.103  23.937  0.00  0.00     0.037 H 
BRANCH  90  93
ATOM     93  C17 non d ame     -33.625   8.998  23.558  0.00  0.00    -0.059 C 
ATOM     94  H23 non d ame     -34.454   8.992  22.851  0.00  0.00     0.038 H 
BRANCH  93  95
ATOM     95  C18 non d ame     -32.298   9.085  22.737  0.00  0.00    -0.073 C 
ATOM     96  H24 non d ame     -31.825   8.104  22.707  0.00  0.00     0.028 H 
ATOM     97  H25 non d ame     -32.520   9.412  21.721  0.00  0.00     0.028 H 
ATOM     98  H26 non d ame     -31.625   9.799  23.209  0.00  0.00     0.028 H 
ENDBRANCH  93  95
BRANCH  93  99
ATOM     99  C19 non d ame     -33.692   7.687  24.346  0.00  0.00    -0.073 C 
ATOM    100  H27 non d ame     -32.985   6.972  23.924  0.00  0.00     0.028 H 
ATOM    101  H28 non d ame     -33.436   7.877  25.389  0.00  0.00     0.028 H 
ATOM    102  H29 non d ame     -34.700   7.280  24.289  0.00  0.00     0.028 H 
ENDBRANCH  93  99
ENDBRANCH  90  93
ENDBRANCH   1  90
TORSDOF 26
ENDMDL
MODEL 10
REMARK VINA RESULT:      -7.1      3.397      7.408
REMARK  26 active torsions:
REMARK  status: ('A' for Active; 'I' for Inactive)
REMARK    1  A    between atoms: C2_2  and  C3_3 
REMARK    2  A    between atoms: C4_6  and  C5_7 
REMARK       I    between atoms: C5_7  and  N2_9 
REMARK    3  A    between atoms: N2_9  and  C6_10 
REMARK    4  A    between atoms: C6_10  and  C7_11 
REMARK    5  A    between atoms: C6_10  and  C8_13 
REMARK       I    between atoms: C7_11  and  N3_14 
REMARK    6  A    between atoms: N3_14  and  C9_15 
REMARK    7  A    between atoms: C9_15  and  C10_16 
REMARK    8  A    between atoms: C9_15  and  C11_18 
REMARK       I    between atoms: C10_16  and  N4_21 
REMARK    9  A    between atoms: C11_18  and  C12_19 
REMARK   10  A    between atoms: C11_18  and  C13_20 
REMARK   11  A    between atoms: N4_21  and  C14_22 
REMARK   12  A    between atoms: C14_22  and  C15_23 
REMARK   13  A    between atoms: C14_22  and  C16_25 
REMARK       I    between atoms: C15_23  and  N6_40 
REMARK   14  A    between atoms: C16_25  and  C17_26 
REMARK   15  A    between atoms: C17_26  and  C18_27 
REMARK   16  A    between atoms: C17_26  and  C19_28 
REMARK   17  A    between atoms: C20_29  and  C21_30 
REMARK   18  A    between atoms: C20_29  and  C24_33 
REMARK   19  A    between atoms: C20_29  and  N6_40 
REMARK   20  A    between atoms: C21_30  and  C22_31 
REMARK   21  A    between atoms: C22_31  and  C23_32 
REMARK   22  A    between atoms: C23_32  and  O8_43 
REMARK   23  A    between atoms: C24_33  and  C25_34 
REMARK   24  A    between atoms: C28_38  and  O6_39 
REMARK   25  A    between atoms: C29_42  and  O8_43 
REMARK   26  A    between atoms: C29_42  and  C35_49 
ROOT
ATOM      1  C14 non d ame     -32.974  10.334  25.501  0.00  0.00     0.089 C 
ATOM      2  H20 non d ame     -33.662  10.407  24.658  0.00  0.00     0.087 H 
ENDROOT
BRANCH   1   3
ATOM      3  N4  non d ame     -32.395   8.999  25.477  0.00  0.00    -0.346 N 
ATOM      4  C10 non d ame     -33.156   7.848  24.867  0.00  0.00     0.241 C 
ATOM      5  O4  non d ame     -34.235   8.020  24.405  0.00  0.00    -0.271 OA
ATOM      6  H19 non d ame     -31.476   8.873  25.877  0.00  0.00     0.163 HD
BRANCH   4   7
ATOM      7  C9  non d ame     -32.538   6.475  24.846  0.00  0.00     0.092 C 
ATOM      8  H11 non d ame     -31.478   6.555  25.086  0.00  0.00     0.088 H 
BRANCH   7   9
ATOM      9  N3  non d ame     -33.156   5.644  25.882  0.00  0.00    -0.346 N 
ATOM     10  C7  non d ame     -32.703   5.740  27.248  0.00  0.00     0.240 C 
ATOM     11  O3  non d ame     -31.841   6.479  27.530  0.00  0.00    -0.271 OA
ATOM     12  H10 non d ame     -33.900   5.000  25.654  0.00  0.00     0.163 HD
BRANCH  10  13
ATOM     13  C6  non d ame     -33.363   4.850  28.347  0.00  0.00     0.086 C 
ATOM     14  H6  non d ame     -32.739   4.743  29.234  0.00  0.00     0.086 H 
BRANCH  13  15
ATOM     15  N2  non d ame     -34.600   5.478  28.782  0.00  0.00    -0.343 N 
ATOM     16  C5  non d ame     -34.934   5.503  30.208  0.00  0.00     0.273 C 
ATOM     17  O2  non d ame     -34.203   5.012  30.996  0.00  0.00    -0.266 OA
ATOM     18  H5  non d ame     -35.220   5.891  28.101  0.00  0.00     0.163 HD
BRANCH  16  19
ATOM     19  C4  non d ame     -36.237   6.165  30.681  0.00  0.00     0.154 A 
ATOM     20  C1  non d ame     -36.523   7.565  30.741  0.00  0.00    -0.017 A 
ATOM     21  C2  non d ame     -37.842   7.646  31.241  0.00  0.00     0.077 A 
ATOM     22  H1  non d ame     -35.874   8.396  30.466  0.00  0.00     0.091 H 
ATOM     23  O1  non d ame     -38.256   6.429  31.439  0.00  0.00    -0.218 OA
ATOM     24  N1  non d ame     -37.337   5.547  31.121  0.00  0.00    -0.123 NA
BRANCH  21  25
ATOM     25  C3  non d ame     -38.632   8.922  31.499  0.00  0.00    -0.029 C 
ATOM     26  H2  non d ame     -39.628   8.827  31.065  0.00  0.00     0.036 H 
ATOM     27  H3  non d ame     -38.719   9.086  32.573  0.00  0.00     0.036 H 
ATOM     28  H4  non d ame     -38.117   9.767  31.042  0.00  0.00     0.036 H 
ENDBRANCH  21  25
ENDBRANCH  16  19
ENDBRANCH  13  15
BRANCH  13  29
ATOM     29  C8  non d ame     -33.650   3.481  27.784  0.00  0.00    -0.049 C 
ATOM     30  H7  non d ame     -34.393   2.981  28.404  0.00  0.00     0.030 H 
ATOM     31  H8  non d ame     -34.032   3.579  26.768  0.00  0.00     0.030 H 
ATOM     32  H9  non d ame     -32.731   2.893  27.772  0.00  0.00     0.030 H 
ENDBRANCH  13  29
ENDBRANCH  10  13
ENDBRANCH   7   9
BRANCH   7  33
ATOM     33  C11 non d ame     -32.773   5.823  23.452  0.00  0.00    -0.033 C 
ATOM     34  H12 non d ame     -33.635   6.315  23.000  0.00  0.00     0.042 H 
BRANCH  33  35
ATOM     35  C12 non d ame     -31.554   6.048  22.504  0.00  0.00    -0.071 C 
ATOM     36  H13 non d ame     -31.661   7.007  21.997  0.00  0.00     0.028 H 
ATOM     37  H14 non d ame     -30.635   6.047  23.090  0.00  0.00     0.028 H 
ATOM     38  H15 non d ame     -31.515   5.249  21.765  0.00  0.00     0.028 H 
ENDBRANCH  33  35
BRANCH  33  39
ATOM     39  C13 non d ame     -33.106   4.303  23.595  0.00  0.00    -0.071 C 
ATOM     40  H16 non d ame     -34.118   4.187  23.983  0.00  0.00     0.028 H 
ATOM     41  H17 non d ame     -33.033   3.821  22.619  0.00  0.00     0.028 H 
ATOM     42  H18 non d ame     -32.398   3.839  24.281  0.00  0.00     0.028 H 
ENDBRANCH  33  39
ENDBRANCH   7  33
ENDBRANCH   4   7
ENDBRANCH   1   3
BRANCH   1  43
ATOM     43  C15 non d ame     -31.823  11.375  25.413  0.00  0.00     0.240 C 
ATOM     44  O5  non d ame     -30.755  11.115  25.865  0.00  0.00    -0.271 OA
ATOM     45  N6  non d ame     -32.048  12.694  24.755  0.00  0.00    -0.355 N 
ATOM     46  H46 non d ame     -32.950  12.923  24.362  0.00  0.00     0.162 HD
BRANCH  45  47
ATOM     47  C20 non d ame     -30.943  13.674  24.677  0.00  0.00     0.013 C 
ATOM     48  H30 non d ame     -30.139  13.324  25.326  0.00  0.00     0.072 H 
BRANCH  47  49
ATOM     49  C21 non d ame     -31.437  15.023  25.148  0.00  0.00    -0.038 C 
ATOM     50  H31 non d ame     -31.053  15.139  26.163  0.00  0.00     0.036 H 
ATOM     51  H32 non d ame     -31.147  15.729  24.371  0.00  0.00     0.036 H 
BRANCH  49  52
ATOM     52  C22 non d ame     -32.975  15.095  25.254  0.00  0.00     0.018 C 
ATOM     53  H33 non d ame     -33.241  16.118  24.994  0.00  0.00     0.048 H 
ATOM     54  H34 non d ame     -33.351  14.265  24.652  0.00  0.00     0.048 H 
BRANCH  52  55
ATOM     55  C23 non d ame     -33.516  14.861  26.691  0.00  0.00     0.259 C 
ATOM     56  O7  non d ame     -32.910  14.192  27.463  0.00  0.00    -0.265 OA
BRANCH  55  57
ATOM     57  O8  non d ame     -34.756  15.446  27.072  0.00  0.00    -0.317 OA
BRANCH  57  58
ATOM     58  C29 non d ame     -34.637  16.458  28.077  0.00  0.00     0.052 C 
ATOM     59  H47 non d ame     -35.656  16.684  28.389  0.00  0.00     0.082 H 
ATOM     60  H48 non d ame     -33.917  16.073  28.799  0.00  0.00     0.082 H 
BRANCH  58  61
ATOM     61  C35 non d ame     -34.035  17.725  27.412  0.00  0.00    -0.034 A 
ATOM     62  C30 non d ame     -34.654  18.289  26.301  0.00  0.00    -0.075 A 
ATOM     63  C31 non d ame     -34.113  19.427  25.704  0.00  0.00    -0.082 A 
ATOM     64  H49 non d ame     -35.561  17.840  25.897  0.00  0.00     0.084 H 
ATOM     65  C32 non d ame     -32.948  19.999  26.220  0.00  0.00    -0.083 A 
ATOM     66  H50 non d ame     -34.601  19.867  24.833  0.00  0.00     0.083 H 
ATOM     67  C33 non d ame     -32.332  19.431  27.327  0.00  0.00    -0.082 A 
ATOM     68  H51 non d ame     -32.519  20.890  25.760  0.00  0.00     0.083 H 
ATOM     69  C34 non d ame     -32.870  18.295  27.929  0.00  0.00    -0.075 A 
ATOM     70  H52 non d ame     -31.422  19.879  27.727  0.00  0.00     0.083 H 
ATOM     71  H53 non d ame     -32.382  17.856  28.799  0.00  0.00     0.084 H 
ENDBRANCH  58  61
ENDBRANCH  57  58
ENDBRANCH  55  57
ENDBRANCH  52  55
ENDBRANCH  49  52
ENDBRANCH  47  49
BRANCH  47  72
ATOM     72  C24 non d ame     -30.451  13.784  23.236  0.00  0.00    -0.039 C 
ATOM     73  H35 non d ame     -29.482  13.284  23.221  0.00  0.00     0.036 H 
ATOM     74  H36 non d ame     -31.268  13.407  22.621  0.00  0.00     0.036 H 
BRANCH  72  75
ATOM     75  C25 non d ame     -30.203  15.308  22.810  0.00  0.00    -0.001 C 
ATOM     76  C26 non d ame     -31.286  15.749  21.654  0.00  0.00    -0.035 C 
ATOM     77  C27 non d ame     -30.615  16.298  20.613  0.00  0.00     0.085 C 
ATOM     78  H38 non d ame     -31.751  14.864  21.220  0.00  0.00     0.036 H 
ATOM     79  H39 non d ame     -31.907  16.569  22.017  0.00  0.00     0.036 H 
ATOM     80  N5  non d ame     -29.154  15.972  20.809  0.00  0.00    -0.049 N 
ATOM     81  H40 non d ame     -30.979  15.777  19.726  0.00  0.00     0.075 H 
ATOM     82  H41 non d ame     -30.756  17.374  20.710  0.00  0.00     0.075 H 
ATOM     83  C28 non d ame     -29.011  15.475  22.339  0.00  0.00     0.193 C 
ATOM     84  H42 non d ame     -28.948  15.196  20.198  0.00  0.00     0.280 HD
ATOM     85  H43 non d ame     -28.652  16.843  20.707  0.00  0.00     0.280 HD
ATOM     86  H44 non d ame     -28.588  16.131  23.098  0.00  0.00     0.129 H 
ATOM     87  H37 non d ame     -30.101  15.967  23.672  0.00  0.00     0.046 H 
BRANCH  83  88
ATOM     88  O6  non d ame     -28.237  14.275  22.396  0.00  0.00    -0.369 OA
ATOM     89  H45 non d ame     -27.352  14.479  22.706  0.00  0.00     0.212 HD
ENDBRANCH  83  88
ENDBRANCH  72  75
ENDBRANCH  47  72
ENDBRANCH  45  47
ENDBRANCH   1  43
BRANCH   1  90
ATOM     90  C16 non d ame     -33.734  10.520  26.804  0.00  0.00    -0.035 C 
ATOM     91  H21 non d ame     -33.798  11.598  26.950  0.00  0.00     0.037 H 
ATOM     92  H22 non d ame     -34.645   9.932  26.694  0.00  0.00     0.037 H 
BRANCH  90  93
ATOM     93  C17 non d ame     -32.988   9.951  28.053  0.00  0.00    -0.059 C 
ATOM     94  H23 non d ame     -32.114   9.407  27.697  0.00  0.00     0.038 H 
BRANCH  93  95
ATOM     95  C18 non d ame     -32.489  11.083  29.007  0.00  0.00    -0.073 C 
ATOM     96  H24 non d ame     -33.223  11.889  29.030  0.00  0.00     0.028 H 
ATOM     97  H25 non d ame     -32.362  10.680  30.013  0.00  0.00     0.028 H 
ATOM     98  H26 non d ame     -31.536  11.468  28.648  0.00  0.00     0.028 H 
ENDBRANCH  93  95
BRANCH  93  99
ATOM     99  C19 non d ame     -33.869   8.952  28.807  0.00  0.00    -0.073 C 
ATOM    100  H27 non d ame     -34.001   9.288  29.837  0.00  0.00     0.028 H 
ATOM    101  H28 non d ame     -34.843   8.886  28.321  0.00  0.00     0.028 H 
ATOM    102  H29 non d ame     -33.394   7.972  28.802  0.00  0.00     0.028 H 
ENDBRANCH  93  99
ENDBRANCH  90  93
ENDBRANCH   1  90
TORSDOF 26
ENDMDL
MODEL 11
REMARK VINA RESULT:      -7.0      2.288      6.017
REMARK  26 active torsions:
REMARK  status: ('A' for Active; 'I' for Inactive)
REMARK    1  A    between atoms: C2_2  and  C3_3 
REMARK    2  A    between atoms: C4_6  and  C5_7 
REMARK       I    between atoms: C5_7  and  N2_9 
REMARK    3  A    between atoms: N2_9  and  C6_10 
REMARK    4  A    between atoms: C6_10  and  C7_11 
REMARK    5  A    between atoms: C6_10  and  C8_13 
REMARK       I    between atoms: C7_11  and  N3_14 
REMARK    6  A    between atoms: N3_14  and  C9_15 
REMARK    7  A    between atoms: C9_15  and  C10_16 
REMARK    8  A    between atoms: C9_15  and  C11_18 
REMARK       I    between atoms: C10_16  and  N4_21 
REMARK    9  A    between atoms: C11_18  and  C12_19 
REMARK   10  A    between atoms: C11_18  and  C13_20 
REMARK   11  A    between atoms: N4_21  and  C14_22 
REMARK   12  A    between atoms: C14_22  and  C15_23 
REMARK   13  A    between atoms: C14_22  and  C16_25 
REMARK       I    between atoms: C15_23  and  N6_40 
REMARK   14  A    between atoms: C16_25  and  C17_26 
REMARK   15  A    between atoms: C17_26  and  C18_27 
REMARK   16  A    between atoms: C17_26  and  C19_28 
REMARK   17  A    between atoms: C20_29  and  C21_30 
REMARK   18  A    between atoms: C20_29  and  C24_33 
REMARK   19  A    between atoms: C20_29  and  N6_40 
REMARK   20  A    between atoms: C21_30  and  C22_31 
REMARK   21  A    between atoms: C22_31  and  C23_32 
REMARK   22  A    between atoms: C23_32  and  O8_43 
REMARK   23  A    between atoms: C24_33  and  C25_34 
REMARK   24  A    between atoms: C28_38  and  O6_39 
REMARK   25  A    between atoms: C29_42  and  O8_43 
REMARK   26  A    between atoms: C29_42  and  C35_49 
ROOT
ATOM      1  C14 non d ame     -31.269  14.472  24.199  0.00  0.00     0.089 C 
ATOM      2  H20 non d ame     -30.285  14.574  24.659  0.00  0.00     0.087 H 
ENDROOT
BRANCH   1   3
ATOM      3  N4  non d ame     -31.500  13.054  23.971  0.00  0.00    -0.346 N 
ATOM      4  C10 non d ame     -31.278  12.057  25.080  0.00  0.00     0.241 C 
ATOM      5  O4  non d ame     -30.908  12.419  26.148  0.00  0.00    -0.271 OA
ATOM      6  H19 non d ame     -31.812  12.765  23.054  0.00  0.00     0.163 HD
BRANCH   4   7
ATOM      7  C9  non d ame     -31.528  10.593  24.827  0.00  0.00     0.092 C 
ATOM      8  H11 non d ame     -30.863  10.001  25.457  0.00  0.00     0.088 H 
BRANCH   7   9
ATOM      9  N3  non d ame     -32.902  10.258  25.212  0.00  0.00    -0.346 N 
ATOM     10  C7  non d ame     -33.143   9.329  26.288  0.00  0.00     0.240 C 
ATOM     11  O3  non d ame     -32.242   8.841  26.855  0.00  0.00    -0.271 OA
ATOM     12  H10 non d ame     -33.689  10.670  24.731  0.00  0.00     0.163 HD
BRANCH  10  13
ATOM     13  C6  non d ame     -34.608   8.974  26.691  0.00  0.00     0.086 C 
ATOM     14  H6  non d ame     -34.716   8.782  27.759  0.00  0.00     0.086 H 
BRANCH  13  15
ATOM     15  N2  non d ame     -35.468  10.104  26.382  0.00  0.00    -0.343 N 
ATOM     16  C5  non d ame     -35.678  11.147  27.389  0.00  0.00     0.273 C 
ATOM     17  O2  non d ame     -35.153  11.067  28.444  0.00  0.00    -0.266 OA
ATOM     18  H5  non d ame     -35.917  10.163  25.479  0.00  0.00     0.163 HD
BRANCH  16  19
ATOM     19  C4  non d ame     -36.584  12.348  27.076  0.00  0.00     0.154 A 
ATOM     20  C1  non d ame     -36.198  13.592  26.484  0.00  0.00    -0.017 A 
ATOM     21  C2  non d ame     -37.390  14.347  26.412  0.00  0.00     0.077 A 
ATOM     22  H1  non d ame     -35.205  13.901  26.158  0.00  0.00     0.091 H 
ATOM     23  O1  non d ame     -38.344  13.612  26.905  0.00  0.00    -0.218 OA
ATOM     24  N1  non d ame     -37.898  12.441  27.299  0.00  0.00    -0.123 NA
BRANCH  21  25
ATOM     25  C3  non d ame     -37.531  15.758  25.858  0.00  0.00    -0.029 C 
ATOM     26  H2  non d ame     -37.308  16.481  26.643  0.00  0.00     0.036 H 
ATOM     27  H3  non d ame     -36.835  15.895  25.031  0.00  0.00     0.036 H 
ATOM     28  H4  non d ame     -38.550  15.910  25.505  0.00  0.00     0.036 H 
ENDBRANCH  21  25
ENDBRANCH  16  19
ENDBRANCH  13  15
BRANCH  13  29
ATOM     29  C8  non d ame     -35.061   7.756  25.927  0.00  0.00    -0.049 C 
ATOM     30  H7  non d ame     -35.008   7.957  24.858  0.00  0.00     0.030 H 
ATOM     31  H8  non d ame     -34.413   6.913  26.171  0.00  0.00     0.030 H 
ATOM     32  H9  non d ame     -36.088   7.516  26.202  0.00  0.00     0.030 H 
ENDBRANCH  13  29
ENDBRANCH  10  13
ENDBRANCH   7   9
BRANCH   7  33
ATOM     33  C11 non d ame     -31.326  10.287  23.314  0.00  0.00    -0.033 C 
ATOM     34  H12 non d ame     -31.558  11.198  22.761  0.00  0.00     0.042 H 
BRANCH  33  35
ATOM     35  C12 non d ame     -29.843   9.913  23.002  0.00  0.00    -0.071 C 
ATOM     36  H13 non d ame     -29.716   8.834  23.084  0.00  0.00     0.028 H 
ATOM     37  H14 non d ame     -29.594  10.233  21.990  0.00  0.00     0.028 H 
ATOM     38  H15 non d ame     -29.185  10.412  23.713  0.00  0.00     0.028 H 
ENDBRANCH  33  35
BRANCH  33  39
ATOM     39  C13 non d ame     -32.306   9.169  22.834  0.00  0.00    -0.071 C 
ATOM     40  H16 non d ame     -31.851   8.616  22.011  0.00  0.00     0.028 H 
ATOM     41  H17 non d ame     -32.512   8.487  23.660  0.00  0.00     0.028 H 
ATOM     42  H18 non d ame     -33.237   9.622  22.498  0.00  0.00     0.028 H 
ENDBRANCH  33  39
ENDBRANCH   7  33
ENDBRANCH   4   7
ENDBRANCH   1   3
BRANCH   1  43
ATOM     43  C15 non d ame     -32.404  15.019  25.111  0.00  0.00     0.240 C 
ATOM     44  O5  non d ame     -33.518  15.072  24.700  0.00  0.00    -0.271 OA
ATOM     45  N6  non d ame     -32.104  15.467  26.500  0.00  0.00    -0.355 N 
ATOM     46  H46 non d ame     -31.162  15.422  26.862  0.00  0.00     0.162 HD
BRANCH  45  47
ATOM     47  C20 non d ame     -33.195  15.983  27.356  0.00  0.00     0.013 C 
ATOM     48  H30 non d ame     -34.143  15.695  26.901  0.00  0.00     0.072 H 
BRANCH  47  49
ATOM     49  C21 non d ame     -33.098  17.490  27.436  0.00  0.00    -0.038 C 
ATOM     50  H31 non d ame     -33.609  17.770  28.358  0.00  0.00     0.036 H 
ATOM     51  H32 non d ame     -32.041  17.724  27.306  0.00  0.00     0.036 H 
BRANCH  49  52
ATOM     52  C22 non d ame     -33.847  18.201  26.289  0.00  0.00     0.018 C 
ATOM     53  H33 non d ame     -33.204  18.110  25.414  0.00  0.00     0.048 H 
ATOM     54  H34 non d ame     -34.848  17.766  26.277  0.00  0.00     0.048 H 
BRANCH  52  55
ATOM     55  C23 non d ame     -34.045  19.725  26.519  0.00  0.00     0.259 C 
ATOM     56  O7  non d ame     -33.107  20.439  26.667  0.00  0.00    -0.265 OA
BRANCH  55  57
ATOM     57  O8  non d ame     -35.363  20.257  26.565  0.00  0.00    -0.317 OA
BRANCH  57  58
ATOM     58  C29 non d ame     -36.391  19.286  26.343  0.00  0.00     0.052 C 
ATOM     59  H47 non d ame     -35.873  18.342  26.180  0.00  0.00     0.082 H 
ATOM     60  H48 non d ame     -37.082  19.392  27.179  0.00  0.00     0.082 H 
BRANCH  58  61
ATOM     61  C35 non d ame     -37.137  19.668  25.037  0.00  0.00    -0.034 A 
ATOM     62  C30 non d ame     -37.132  18.797  23.952  0.00  0.00    -0.075 A 
ATOM     63  C31 non d ame     -37.802  19.141  22.778  0.00  0.00    -0.082 A 
ATOM     64  H49 non d ame     -36.602  17.847  24.020  0.00  0.00     0.084 H 
ATOM     65  C32 non d ame     -38.477  20.361  22.692  0.00  0.00    -0.083 A 
ATOM     66  H50 non d ame     -37.797  18.456  21.930  0.00  0.00     0.083 H 
ATOM     67  C33 non d ame     -38.477  21.228  23.776  0.00  0.00    -0.082 A 
ATOM     68  H51 non d ame     -39.005  20.636  21.778  0.00  0.00     0.083 H 
ATOM     69  C34 non d ame     -37.810  20.888  24.951  0.00  0.00    -0.075 A 
ATOM     70  H52 non d ame     -39.003  22.180  23.705  0.00  0.00     0.083 H 
ATOM     71  H53 non d ame     -37.816  21.574  25.799  0.00  0.00     0.084 H 
ENDBRANCH  58  61
ENDBRANCH  57  58
ENDBRANCH  55  57
ENDBRANCH  52  55
ENDBRANCH  49  52
ENDBRANCH  47  49
BRANCH  47  72
ATOM     72  C24 non d ame     -33.077  15.389  28.758  0.00  0.00    -0.039 C 
ATOM     73  H35 non d ame     -32.964  16.244  29.426  0.00  0.00     0.036 H 
ATOM     74  H36 non d ame     -33.934  14.725  28.864  0.00  0.00     0.036 H 
BRANCH  72  75
ATOM     75  C25 non d ame     -31.760  14.491  28.912  0.00  0.00    -0.001 C 
ATOM     76  C26 non d ame     -32.177  12.955  29.327  0.00  0.00    -0.035 C 
ATOM     77  C27 non d ame     -31.458  12.587  30.415  0.00  0.00     0.085 C 
ATOM     78  H38 non d ame     -33.207  12.930  29.682  0.00  0.00     0.036 H 
ATOM     79  H39 non d ame     -31.848  12.258  28.557  0.00  0.00     0.036 H 
ATOM     80  N5  non d ame     -30.832  13.841  30.976  0.00  0.00    -0.049 N 
ATOM     81  H40 non d ame     -32.187  12.203  31.130  0.00  0.00     0.075 H 
ATOM     82  H41 non d ame     -30.670  11.936  30.037  0.00  0.00     0.075 H 
ATOM     83  C28 non d ame     -30.976  14.963  29.824  0.00  0.00     0.193 C 
ATOM     84  H42 non d ame     -31.399  14.116  31.765  0.00  0.00     0.280 HD
ATOM     85  H43 non d ame     -29.851  13.637  31.106  0.00  0.00     0.280 HD
ATOM     86  H44 non d ame     -30.117  15.248  29.218  0.00  0.00     0.129 H 
ATOM     87  H37 non d ame     -31.078  14.610  28.071  0.00  0.00     0.046 H 
BRANCH  83  88
ATOM     88  O6  non d ame     -31.471  16.182  30.382  0.00  0.00    -0.369 OA
ATOM     89  H45 non d ame     -32.263  16.451  29.911  0.00  0.00     0.212 HD
ENDBRANCH  83  88
ENDBRANCH  72  75
ENDBRANCH  47  72
ENDBRANCH  45  47
ENDBRANCH   1  43
BRANCH   1  90
ATOM     90  C16 non d ame     -31.290  15.199  22.864  0.00  0.00    -0.035 C 
ATOM     91  H21 non d ame     -32.250  14.949  22.414  0.00  0.00     0.037 H 
ATOM     92  H22 non d ame     -31.051  16.237  23.097  0.00  0.00     0.037 H 
BRANCH  90  93
ATOM     93  C17 non d ame     -30.194  14.708  21.865  0.00  0.00    -0.059 C 
ATOM     94  H23 non d ame     -30.258  13.621  21.812  0.00  0.00     0.038 H 
BRANCH  93  95
ATOM     95  C18 non d ame     -30.416  15.271  20.425  0.00  0.00    -0.073 C 
ATOM     96  H24 non d ame     -29.989  14.582  19.696  0.00  0.00     0.028 H 
ATOM     97  H25 non d ame     -31.484  15.380  20.238  0.00  0.00     0.028 H 
ATOM     98  H26 non d ame     -29.930  16.242  20.335  0.00  0.00     0.028 H 
ENDBRANCH  93  95
BRANCH  93  99
ATOM     99  C19 non d ame     -28.793  15.056  22.376  0.00  0.00    -0.073 C 
ATOM    100  H27 non d ame     -28.073  14.338  21.980  0.00  0.00     0.028 H 
ATOM    101  H28 non d ame     -28.524  16.059  22.045  0.00  0.00     0.028 H 
ATOM    102  H29 non d ame     -28.784  15.018  23.464  0.00  0.00     0.028 H 
ENDBRANCH  93  99
ENDBRANCH  90  93
ENDBRANCH   1  90
TORSDOF 26
ENDMDL
MODEL 12
REMARK VINA RESULT:      -7.0      1.942      5.555
REMARK  26 active torsions:
REMARK  status: ('A' for Active; 'I' for Inactive)
REMARK    1  A    between atoms: C2_2  and  C3_3 
REMARK    2  A    between atoms: C4_6  and  C5_7 
REMARK       I    between atoms: C5_7  and  N2_9 
REMARK    3  A    between atoms: N2_9  and  C6_10 
REMARK    4  A    between atoms: C6_10  and  C7_11 
REMARK    5  A    between atoms: C6_10  and  C8_13 
REMARK       I    between atoms: C7_11  and  N3_14 
REMARK    6  A    between atoms: N3_14  and  C9_15 
REMARK    7  A    between atoms: C9_15  and  C10_16 
REMARK    8  A    between atoms: C9_15  and  C11_18 
REMARK       I    between atoms: C10_16  and  N4_21 
REMARK    9  A    between atoms: C11_18  and  C12_19 
REMARK   10  A    between atoms: C11_18  and  C13_20 
REMARK   11  A    between atoms: N4_21  and  C14_22 
REMARK   12  A    between atoms: C14_22  and  C15_23 
REMARK   13  A    between atoms: C14_22  and  C16_25 
REMARK       I    between atoms: C15_23  and  N6_40 
REMARK   14  A    between atoms: C16_25  and  C17_26 
REMARK   15  A    between atoms: C17_26  and  C18_27 
REMARK   16  A    between atoms: C17_26  and  C19_28 
REMARK   17  A    between atoms: C20_29  and  C21_30 
REMARK   18  A    between atoms: C20_29  and  C24_33 
REMARK   19  A    between atoms: C20_29  and  N6_40 
REMARK   20  A    between atoms: C21_30  and  C22_31 
REMARK   21  A    between atoms: C22_31  and  C23_32 
REMARK   22  A    between atoms: C23_32  and  O8_43 
REMARK   23  A    between atoms: C24_33  and  C25_34 
REMARK   24  A    between atoms: C28_38  and  O6_39 
REMARK   25  A    between atoms: C29_42  and  O8_43 
REMARK   26  A    between atoms: C29_42  and  C35_49 
ROOT
ATOM      1  C14 non d ame     -32.634   9.795  25.060  0.00  0.00     0.089 C 
ATOM      2  H20 non d ame     -32.403   9.018  25.790  0.00  0.00     0.087 H 
ENDROOT
BRANCH   1   3
ATOM      3  N4  non d ame     -33.980  10.273  25.342  0.00  0.00    -0.346 N 
ATOM      4  C10 non d ame     -34.969   9.386  26.056  0.00  0.00     0.241 C 
ATOM      5  O4  non d ame     -34.661   8.291  26.390  0.00  0.00    -0.271 OA
ATOM      6  H19 non d ame     -34.223  11.208  25.047  0.00  0.00     0.163 HD
BRANCH   4   7
ATOM      7  C9  non d ame     -36.355   9.900  26.345  0.00  0.00     0.092 C 
ATOM      8  H11 non d ame     -36.485   9.995  27.424  0.00  0.00     0.088 H 
BRANCH   7   9
ATOM      9  N3  non d ame     -36.511  11.238  25.769  0.00  0.00    -0.346 N 
ATOM     10  C7  non d ame     -37.032  12.314  26.577  0.00  0.00     0.240 C 
ATOM     11  O3  non d ame     -37.333  12.119  27.691  0.00  0.00    -0.271 OA
ATOM     12  H10 non d ame     -36.257  11.421  24.809  0.00  0.00     0.163 HD
BRANCH  10  13
ATOM     13  C6  non d ame     -37.198  13.737  25.957  0.00  0.00     0.086 C 
ATOM     14  H6  non d ame     -38.067  14.267  26.347  0.00  0.00     0.086 H 
BRANCH  13  15
ATOM     15  N2  non d ame     -36.035  14.538  26.299  0.00  0.00    -0.343 N 
ATOM     16  C5  non d ame     -36.214  15.794  27.031  0.00  0.00     0.273 C 
ATOM     17  O2  non d ame     -37.298  16.152  27.338  0.00  0.00    -0.266 OA
ATOM     18  H5  non d ame     -35.113  14.227  26.030  0.00  0.00     0.163 HD
BRANCH  16  19
ATOM     19  C4  non d ame     -34.993  16.650  27.400  0.00  0.00     0.154 A 
ATOM     20  C1  non d ame     -34.391  17.683  26.613  0.00  0.00    -0.017 A 
ATOM     21  C2  non d ame     -33.311  18.153  27.395  0.00  0.00     0.077 A 
ATOM     22  H1  non d ame     -34.689  18.036  25.626  0.00  0.00     0.091 H 
ATOM     23  O1  non d ame     -33.306  17.466  28.500  0.00  0.00    -0.218 OA
ATOM     24  N1  non d ame     -34.277  16.583  28.526  0.00  0.00    -0.123 NA
BRANCH  21  25
ATOM     25  C3  non d ame     -32.337  19.260  27.013  0.00  0.00    -0.029 C 
ATOM     26  H2  non d ame     -31.839  19.000  26.079  0.00  0.00     0.036 H 
ATOM     27  H3  non d ame     -32.882  20.195  26.886  0.00  0.00     0.036 H 
ATOM     28  H4  non d ame     -31.593  19.376  27.800  0.00  0.00     0.036 H 
ENDBRANCH  21  25
ENDBRANCH  16  19
ENDBRANCH  13  15
BRANCH  13  29
ATOM     29  C8  non d ame     -37.326  13.624  24.459  0.00  0.00    -0.049 C 
ATOM     30  H7  non d ame     -37.754  12.656  24.202  0.00  0.00     0.030 H 
ATOM     31  H8  non d ame     -37.975  14.418  24.089  0.00  0.00     0.030 H 
ATOM     32  H9  non d ame     -36.340  13.718  24.002  0.00  0.00     0.030 H 
ENDBRANCH  13  29
ENDBRANCH  10  13
ENDBRANCH   7   9
BRANCH   7  33
ATOM     33  C11 non d ame     -37.405   8.941  25.713  0.00  0.00    -0.033 C 
ATOM     34  H12 non d ame     -36.911   7.986  25.531  0.00  0.00     0.042 H 
BRANCH  33  35
ATOM     35  C12 non d ame     -38.594   8.674  26.689  0.00  0.00    -0.071 C 
ATOM     36  H13 non d ame     -38.219   8.202  27.597  0.00  0.00     0.028 H 
ATOM     37  H14 non d ame     -39.074   9.619  26.942  0.00  0.00     0.028 H 
ATOM     38  H15 non d ame     -39.317   8.015  26.210  0.00  0.00     0.028 H 
ENDBRANCH  33  35
BRANCH  33  39
ATOM     39  C13 non d ame     -37.912   9.491  24.341  0.00  0.00    -0.071 C 
ATOM     40  H16 non d ame     -37.082   9.529  23.636  0.00  0.00     0.028 H 
ATOM     41  H17 non d ame     -38.691   8.835  23.951  0.00  0.00     0.028 H 
ATOM     42  H18 non d ame     -38.318  10.493  24.479  0.00  0.00     0.028 H 
ENDBRANCH  33  39
ENDBRANCH   7  33
ENDBRANCH   4   7
ENDBRANCH   1   3
BRANCH   1  43
ATOM     43  C15 non d ame     -31.652  10.997  25.149  0.00  0.00     0.240 C 
ATOM     44  O5  non d ame     -30.734  10.956  25.903  0.00  0.00    -0.271 OA
ATOM     45  N6  non d ame     -31.850  12.198  24.288  0.00  0.00    -0.355 N 
ATOM     46  H46 non d ame     -32.624  12.242  23.640  0.00  0.00     0.162 HD
BRANCH  45  47
ATOM     47  C20 non d ame     -30.907  13.333  24.383  0.00  0.00     0.013 C 
ATOM     48  H30 non d ame     -30.142  13.073  25.115  0.00  0.00     0.072 H 
BRANCH  47  49
ATOM     49  C21 non d ame     -31.654  14.568  24.834  0.00  0.00    -0.038 C 
ATOM     50  H31 non d ame     -31.217  15.397  24.274  0.00  0.00     0.036 H 
ATOM     51  H32 non d ame     -32.711  14.330  24.719  0.00  0.00     0.036 H 
BRANCH  49  52
ATOM     52  C22 non d ame     -31.438  14.888  26.328  0.00  0.00     0.018 C 
ATOM     53  H33 non d ame     -30.403  14.623  26.540  0.00  0.00     0.048 H 
ATOM     54  H34 non d ame     -31.775  15.917  26.461  0.00  0.00     0.048 H 
BRANCH  52  55
ATOM     55  C23 non d ame     -32.306  14.027  27.286  0.00  0.00     0.259 C 
ATOM     56  O7  non d ame     -33.309  13.520  26.899  0.00  0.00    -0.265 OA
BRANCH  55  57
ATOM     57  O8  non d ame     -31.897  13.861  28.639  0.00  0.00    -0.317 OA
BRANCH  57  58
ATOM     58  C29 non d ame     -31.240  12.618  28.899  0.00  0.00     0.052 C 
ATOM     59  H47 non d ame     -30.971  12.216  27.922  0.00  0.00     0.082 H 
ATOM     60  H48 non d ame     -30.463  12.842  29.630  0.00  0.00     0.082 H 
BRANCH  58  61
ATOM     61  C35 non d ame     -32.269  11.660  29.557  0.00  0.00    -0.034 A 
ATOM     62  C30 non d ame     -32.699  10.525  28.876  0.00  0.00    -0.075 A 
ATOM     63  C31 non d ame     -33.624   9.665  29.467  0.00  0.00    -0.082 A 
ATOM     64  H49 non d ame     -32.312  10.310  27.880  0.00  0.00     0.084 H 
ATOM     65  C32 non d ame     -34.121   9.945  30.743  0.00  0.00    -0.083 A 
ATOM     66  H50 non d ame     -33.958   8.776  28.931  0.00  0.00     0.083 H 
ATOM     67  C33 non d ame     -33.692  11.080  31.417  0.00  0.00    -0.082 A 
ATOM     68  H51 non d ame     -34.844   9.277  31.212  0.00  0.00     0.083 H 
ATOM     69  C34 non d ame     -32.766  11.941  30.831  0.00  0.00    -0.075 A 
ATOM     70  H52 non d ame     -34.083  11.297  32.411  0.00  0.00     0.083 H 
ATOM     71  H53 non d ame     -32.433  12.830  31.368  0.00  0.00     0.084 H 
ENDBRANCH  58  61
ENDBRANCH  57  58
ENDBRANCH  55  57
ENDBRANCH  52  55
ENDBRANCH  49  52
ENDBRANCH  47  49
BRANCH  47  72
ATOM     72  C24 non d ame     -30.269  13.591  23.020  0.00  0.00    -0.039 C 
ATOM     73  H35 non d ame     -29.238  13.247  23.113  0.00  0.00     0.036 H 
ATOM     74  H36 non d ame     -30.936  13.123  22.295  0.00  0.00     0.036 H 
BRANCH  72  75
ATOM     75  C25 non d ame     -30.218  15.154  22.675  0.00  0.00    -0.001 C 
ATOM     76  C26 non d ame     -31.222  15.482  21.416  0.00  0.00    -0.035 C 
ATOM     77  C27 non d ame     -30.534  16.178  20.479  0.00  0.00     0.085 C 
ATOM     78  H38 non d ame     -31.491  14.560  20.902  0.00  0.00     0.036 H 
ATOM     79  H39 non d ame     -31.999  16.179  21.729  0.00  0.00     0.036 H 
ATOM     80  N5  non d ame     -29.071  16.070  20.835  0.00  0.00    -0.049 N 
ATOM     81  H40 non d ame     -30.710  15.654  19.539  0.00  0.00     0.075 H 
ATOM     82  H41 non d ame     -30.851  17.214  20.593  0.00  0.00     0.075 H 
ATOM     83  C28 non d ame     -29.022  15.523  22.353  0.00  0.00     0.193 C 
ATOM     84  H42 non d ame     -28.679  15.366  20.227  0.00  0.00     0.280 HD
ATOM     85  H43 non d ame     -28.703  17.011  20.820  0.00  0.00     0.280 HD
ATOM     86  H44 non d ame     -28.794  16.197  23.178  0.00  0.00     0.129 H 
ATOM     87  H37 non d ame     -30.317  15.777  23.564  0.00  0.00     0.046 H 
BRANCH  83  88
ATOM     88  O6  non d ame     -28.081  14.454  22.462  0.00  0.00    -0.369 OA
ATOM     89  H45 non d ame     -28.054  14.142  23.370  0.00  0.00     0.212 HD
ENDBRANCH  83  88
ENDBRANCH  72  75
ENDBRANCH  47  72
ENDBRANCH  45  47
ENDBRANCH   1  43
BRANCH   1  90
ATOM     90  C16 non d ame     -32.600   9.210  23.657  0.00  0.00    -0.035 C 
ATOM     91  H21 non d ame     -33.487   8.580  23.585  0.00  0.00     0.037 H 
ATOM     92  H22 non d ame     -32.483  10.064  22.991  0.00  0.00     0.037 H 
BRANCH  90  93
ATOM     93  C17 non d ame     -31.376   8.276  23.397  0.00  0.00    -0.059 C 
ATOM     94  H23 non d ame     -30.591   8.554  24.100  0.00  0.00     0.038 H 
BRANCH  93  95
ATOM     95  C18 non d ame     -31.720   6.771  23.637  0.00  0.00    -0.073 C 
ATOM     96  H24 non d ame     -31.377   6.180  22.789  0.00  0.00     0.028 H 
ATOM     97  H25 non d ame     -31.224   6.426  24.545  0.00  0.00     0.028 H 
ATOM     98  H26 non d ame     -32.798   6.658  23.747  0.00  0.00     0.028 H 
ENDBRANCH  93  95
BRANCH  93  99
ATOM     99  C19 non d ame     -30.817   8.487  21.987  0.00  0.00    -0.073 C 
ATOM    100  H27 non d ame     -31.425   7.937  21.268  0.00  0.00     0.028 H 
ATOM    101  H28 non d ame     -30.840   9.549  21.742  0.00  0.00     0.028 H 
ATOM    102  H29 non d ame     -29.790   8.128  21.945  0.00  0.00     0.028 H 
ENDBRANCH  93  99
ENDBRANCH  90  93
ENDBRANCH   1  90
TORSDOF 26
ENDMDL
MODEL 13
REMARK VINA RESULT:      -7.0      2.722      6.598
REMARK  26 active torsions:
REMARK  status: ('A' for Active; 'I' for Inactive)
REMARK    1  A    between atoms: C2_2  and  C3_3 
REMARK    2  A    between atoms: C4_6  and  C5_7 
REMARK       I    between atoms: C5_7  and  N2_9 
REMARK    3  A    between atoms: N2_9  and  C6_10 
REMARK    4  A    between atoms: C6_10  and  C7_11 
REMARK    5  A    between atoms: C6_10  and  C8_13 
REMARK       I    between atoms: C7_11  and  N3_14 
REMARK    6  A    between atoms: N3_14  and  C9_15 
REMARK    7  A    between atoms: C9_15  and  C10_16 
REMARK    8  A    between atoms: C9_15  and  C11_18 
REMARK       I    between atoms: C10_16  and  N4_21 
REMARK    9  A    between atoms: C11_18  and  C12_19 
REMARK   10  A    between atoms: C11_18  and  C13_20 
REMARK   11  A    between atoms: N4_21  and  C14_22 
REMARK   12  A    between atoms: C14_22  and  C15_23 
REMARK   13  A    between atoms: C14_22  and  C16_25 
REMARK       I    between atoms: C15_23  and  N6_40 
REMARK   14  A    between atoms: C16_25  and  C17_26 
REMARK   15  A    between atoms: C17_26  and  C18_27 
REMARK   16  A    between atoms: C17_26  and  C19_28 
REMARK   17  A    between atoms: C20_29  and  C21_30 
REMARK   18  A    between atoms: C20_29  and  C24_33 
REMARK   19  A    between atoms: C20_29  and  N6_40 
REMARK   20  A    between atoms: C21_30  and  C22_31 
REMARK   21  A    between atoms: C22_31  and  C23_32 
REMARK   22  A    between atoms: C23_32  and  O8_43 
REMARK   23  A    between atoms: C24_33  and  C25_34 
REMARK   24  A    between atoms: C28_38  and  O6_39 
REMARK   25  A    between atoms: C29_42  and  O8_43 
REMARK   26  A    between atoms: C29_42  and  C35_49 
ROOT
ATOM      1  C14 non d ame     -33.762   9.888  24.879  0.00  0.00     0.089 C 
ATOM      2  H20 non d ame     -34.201   9.196  24.160  0.00  0.00     0.087 H 
ENDROOT
BRANCH   1   3
ATOM      3  N4  non d ame     -34.584  11.089  24.889  0.00  0.00    -0.346 N 
ATOM      4  C10 non d ame     -36.064  11.001  24.610  0.00  0.00     0.241 C 
ATOM      5  O4  non d ame     -36.570   9.954  24.376  0.00  0.00    -0.271 OA
ATOM      6  H19 non d ame     -34.134  11.971  25.088  0.00  0.00     0.163 HD
BRANCH   4   7
ATOM      7  C9  non d ame     -36.901  12.253  24.630  0.00  0.00     0.092 C 
ATOM      8  H11 non d ame     -37.559  12.231  25.498  0.00  0.00     0.088 H 
BRANCH   7   9
ATOM      9  N3  non d ame     -36.029  13.422  24.777  0.00  0.00    -0.346 N 
ATOM     10  C7  non d ame     -36.000  14.147  26.024  0.00  0.00     0.240 C 
ATOM     11  O3  non d ame     -36.674  13.805  26.918  0.00  0.00    -0.271 OA
ATOM     12  H10 non d ame     -35.444  13.730  24.015  0.00  0.00     0.163 HD
BRANCH  10  13
ATOM     13  C6  non d ame     -35.072  15.393  26.174  0.00  0.00     0.086 C 
ATOM     14  H6  non d ame     -34.576  15.434  27.143  0.00  0.00     0.086 H 
BRANCH  13  15
ATOM     15  N2  non d ame     -34.021  15.320  25.172  0.00  0.00    -0.343 N 
ATOM     16  C5  non d ame     -32.637  15.092  25.593  0.00  0.00     0.273 C 
ATOM     17  O2  non d ame     -32.379  14.970  26.740  0.00  0.00    -0.266 OA
ATOM     18  H5  non d ame     -34.250  15.430  24.194  0.00  0.00     0.163 HD
BRANCH  16  19
ATOM     19  C4  non d ame     -31.517  15.012  24.545  0.00  0.00     0.154 A 
ATOM     20  C1  non d ame     -31.103  13.858  23.807  0.00  0.00    -0.017 A 
ATOM     21  C2  non d ame     -30.048  14.311  22.984  0.00  0.00     0.077 A 
ATOM     22  H1  non d ame     -31.505  12.846  23.862  0.00  0.00     0.091 H 
ATOM     23  O1  non d ame     -29.886  15.579  23.226  0.00  0.00    -0.218 OA
ATOM     24  N1  non d ame     -30.731  16.010  24.134  0.00  0.00    -0.123 NA
BRANCH  21  25
ATOM     25  C3  non d ame     -29.251  13.470  21.996  0.00  0.00    -0.029 C 
ATOM     26  H2  non d ame     -29.917  12.763  21.500  0.00  0.00     0.036 H 
ATOM     27  H3  non d ame     -28.794  14.121  21.250  0.00  0.00     0.036 H 
ATOM     28  H4  non d ame     -28.473  12.924  22.527  0.00  0.00     0.036 H 
ENDBRANCH  21  25
ENDBRANCH  16  19
ENDBRANCH  13  15
BRANCH  13  29
ATOM     29  C8  non d ame     -35.881  16.651  25.985  0.00  0.00    -0.049 C 
ATOM     30  H7  non d ame     -36.886  16.391  25.655  0.00  0.00     0.030 H 
ATOM     31  H8  non d ame     -35.937  17.192  26.930  0.00  0.00     0.030 H 
ATOM     32  H9  non d ame     -35.403  17.281  25.234  0.00  0.00     0.030 H 
ENDBRANCH  13  29
ENDBRANCH  10  13
ENDBRANCH   7   9
BRANCH   7  33
ATOM     33  C11 non d ame     -37.696  12.367  23.297  0.00  0.00    -0.033 C 
ATOM     34  H12 non d ame     -37.311  11.604  22.619  0.00  0.00     0.042 H 
BRANCH  33  35
ATOM     35  C12 non d ame     -39.215  12.081  23.513  0.00  0.00    -0.071 C 
ATOM     36  H13 non d ame     -39.390  11.006  23.482  0.00  0.00     0.028 H 
ATOM     37  H14 non d ame     -39.523  12.472  24.482  0.00  0.00     0.028 H 
ATOM     38  H15 non d ame     -39.791  12.565  22.725  0.00  0.00     0.028 H 
ENDBRANCH  33  35
BRANCH  33  39
ATOM     39  C13 non d ame     -37.471  13.762  22.629  0.00  0.00    -0.071 C 
ATOM     40  H16 non d ame     -37.066  13.624  21.626  0.00  0.00     0.028 H 
ATOM     41  H17 non d ame     -38.422  14.293  22.567  0.00  0.00     0.028 H 
ATOM     42  H18 non d ame     -36.771  14.343  23.228  0.00  0.00     0.028 H 
ENDBRANCH  33  39
ENDBRANCH   7  33
ENDBRANCH   4   7
ENDBRANCH   1   3
BRANCH   1  43
ATOM     43  C15 non d ame     -33.728   9.299  26.318  0.00  0.00     0.240 C 
ATOM     44  O5  non d ame     -33.317   8.198  26.496  0.00  0.00    -0.271 OA
ATOM     45  N6  non d ame     -34.199  10.110  27.476  0.00  0.00    -0.355 N 
ATOM     46  H46 non d ame     -34.546  11.049  27.337  0.00  0.00     0.162 HD
BRANCH  45  47
ATOM     47  C20 non d ame     -34.159   9.537  28.839  0.00  0.00     0.013 C 
ATOM     48  H30 non d ame     -34.103   8.452  28.744  0.00  0.00     0.072 H 
BRANCH  47  49
ATOM     49  C21 non d ame     -35.417   9.926  29.582  0.00  0.00    -0.038 C 
ATOM     50  H31 non d ame     -35.105  10.665  30.322  0.00  0.00     0.036 H 
ATOM     51  H32 non d ame     -36.141  10.196  28.814  0.00  0.00     0.036 H 
BRANCH  49  52
ATOM     52  C22 non d ame     -36.034   8.752  30.372  0.00  0.00     0.018 C 
ATOM     53  H33 non d ame     -37.048   9.063  30.618  0.00  0.00     0.048 H 
ATOM     54  H34 non d ame     -35.870   7.865  29.758  0.00  0.00     0.048 H 
BRANCH  52  55
ATOM     55  C23 non d ame     -35.331   8.470  31.728  0.00  0.00     0.259 C 
ATOM     56  O7  non d ame     -35.019   9.366  32.444  0.00  0.00    -0.265 OA
BRANCH  55  57
ATOM     57  O8  non d ame     -35.048   7.126  32.100  0.00  0.00    -0.317 OA
BRANCH  57  58
ATOM     58  C29 non d ame     -35.579   6.149  31.200  0.00  0.00     0.052 C 
ATOM     59  H47 non d ame     -36.303   5.578  31.780  0.00  0.00     0.082 H 
ATOM     60  H48 non d ame     -35.901   6.704  30.319  0.00  0.00     0.082 H 
BRANCH  58  61
ATOM     61  C35 non d ame     -34.423   5.200  30.787  0.00  0.00    -0.034 A 
ATOM     62  C30 non d ame     -34.089   5.053  29.444  0.00  0.00    -0.075 A 
ATOM     63  C31 non d ame     -33.050   4.200  29.072  0.00  0.00    -0.082 A 
ATOM     64  H49 non d ame     -34.640   5.605  28.683  0.00  0.00     0.084 H 
ATOM     65  C32 non d ame     -32.346   3.491  30.049  0.00  0.00    -0.083 A 
ATOM     66  H50 non d ame     -32.790   4.088  28.019  0.00  0.00     0.083 H 
ATOM     67  C33 non d ame     -32.685   3.638  31.387  0.00  0.00    -0.082 A 
ATOM     68  H51 non d ame     -31.532   2.823  29.767  0.00  0.00     0.083 H 
ATOM     69  C34 non d ame     -33.721   4.491  31.763  0.00  0.00    -0.075 A 
ATOM     70  H52 non d ame     -32.135   3.082  32.147  0.00  0.00     0.083 H 
ATOM     71  H53 non d ame     -33.980   4.603  32.816  0.00  0.00     0.084 H 
ENDBRANCH  58  61
ENDBRANCH  57  58
ENDBRANCH  55  57
ENDBRANCH  52  55
ENDBRANCH  49  52
ENDBRANCH  47  49
BRANCH  47  72
ATOM     72  C24 non d ame     -32.938  10.068  29.587  0.00  0.00    -0.039 C 
ATOM     73  H35 non d ame     -33.121   9.837  30.638  0.00  0.00     0.036 H 
ATOM     74  H36 non d ame     -32.076   9.638  29.077  0.00  0.00     0.036 H 
BRANCH  72  75
ATOM     75  C25 non d ame     -32.815  11.660  29.466  0.00  0.00    -0.001 C 
ATOM     76  C26 non d ame     -31.466  12.052  28.612  0.00  0.00    -0.035 C 
ATOM     77  C27 non d ame     -30.750  12.959  29.320  0.00  0.00     0.085 C 
ATOM     78  H38 non d ame     -30.799  11.193  28.550  0.00  0.00     0.036 H 
ATOM     79  H39 non d ame     -31.741  12.596  27.708  0.00  0.00     0.036 H 
ATOM     80  N5  non d ame     -31.316  12.973  30.719  0.00  0.00    -0.049 N 
ATOM     81  H40 non d ame     -29.733  12.565  29.352  0.00  0.00     0.075 H 
ATOM     82  H41 non d ame     -30.947  13.920  28.847  0.00  0.00     0.075 H 
ATOM     83  C28 non d ame     -32.738  12.213  30.631  0.00  0.00     0.193 C 
ATOM     84  H42 non d ame     -30.691  12.421  31.287  0.00  0.00     0.280 HD
ATOM     85  H43 non d ame     -31.483  13.943  30.949  0.00  0.00     0.280 HD
ATOM     86  H44 non d ame     -33.669  12.777  30.644  0.00  0.00     0.129 H 
ATOM     87  H37 non d ame     -33.750  12.125  29.156  0.00  0.00     0.046 H 
BRANCH  83  88
ATOM     88  O6  non d ame     -32.853  11.260  31.689  0.00  0.00    -0.369 OA
ATOM     89  H45 non d ame     -32.768  10.373  31.332  0.00  0.00     0.212 HD
ENDBRANCH  83  88
ENDBRANCH  72  75
ENDBRANCH  47  72
ENDBRANCH  45  47
ENDBRANCH   1  43
BRANCH   1  90
ATOM     90  C16 non d ame     -32.352  10.257  24.444  0.00  0.00    -0.035 C 
ATOM     91  H21 non d ame     -32.376  11.332  24.269  0.00  0.00     0.037 H 
ATOM     92  H22 non d ame     -31.697   9.844  25.210  0.00  0.00     0.037 H 
BRANCH  90  93
ATOM     93  C17 non d ame     -31.921   9.601  23.093  0.00  0.00    -0.059 C 
ATOM     94  H23 non d ame     -32.578   9.986  22.314  0.00  0.00     0.038 H 
BRANCH  93  95
ATOM     95  C18 non d ame     -30.453   9.964  22.704  0.00  0.00    -0.073 C 
ATOM     96  H24 non d ame     -29.964  10.453  23.547  0.00  0.00     0.028 H 
ATOM     97  H25 non d ame     -29.909   9.055  22.447  0.00  0.00     0.028 H 
ATOM     98  H26 non d ame     -30.459  10.637  21.848  0.00  0.00     0.028 H 
ENDBRANCH  93  95
BRANCH  93  99
ATOM     99  C19 non d ame     -32.112   8.082  23.138  0.00  0.00    -0.073 C 
ATOM    100  H27 non d ame     -32.666   7.759  22.256  0.00  0.00     0.028 H 
ATOM    101  H28 non d ame     -31.138   7.593  23.153  0.00  0.00     0.028 H 
ATOM    102  H29 non d ame     -32.668   7.812  24.035  0.00  0.00     0.028 H 
ENDBRANCH  93  99
ENDBRANCH  90  93
ENDBRANCH   1  90
TORSDOF 26
ENDMDL
MODEL 14
REMARK VINA RESULT:      -7.0      2.439      8.818
REMARK  26 active torsions:
REMARK  status: ('A' for Active; 'I' for Inactive)
REMARK    1  A    between atoms: C2_2  and  C3_3 
REMARK    2  A    between atoms: C4_6  and  C5_7 
REMARK       I    between atoms: C5_7  and  N2_9 
REMARK    3  A    between atoms: N2_9  and  C6_10 
REMARK    4  A    between atoms: C6_10  and  C7_11 
REMARK    5  A    between atoms: C6_10  and  C8_13 
REMARK       I    between atoms: C7_11  and  N3_14 
REMARK    6  A    between atoms: N3_14  and  C9_15 
REMARK    7  A    between atoms: C9_15  and  C10_16 
REMARK    8  A    between atoms: C9_15  and  C11_18 
REMARK       I    between atoms: C10_16  and  N4_21 
REMARK    9  A    between atoms: C11_18  and  C12_19 
REMARK   10  A    between atoms: C11_18  and  C13_20 
REMARK   11  A    between atoms: N4_21  and  C14_22 
REMARK   12  A    between atoms: C14_22  and  C15_23 
REMARK   13  A    between atoms: C14_22  and  C16_25 
REMARK       I    between atoms: C15_23  and  N6_40 
REMARK   14  A    between atoms: C16_25  and  C17_26 
REMARK   15  A    between atoms: C17_26  and  C18_27 
REMARK   16  A    between atoms: C17_26  and  C19_28 
REMARK   17  A    between atoms: C20_29  and  C21_30 
REMARK   18  A    between atoms: C20_29  and  C24_33 
REMARK   19  A    between atoms: C20_29  and  N6_40 
REMARK   20  A    between atoms: C21_30  and  C22_31 
REMARK   21  A    between atoms: C22_31  and  C23_32 
REMARK   22  A    between atoms: C23_32  and  O8_43 
REMARK   23  A    between atoms: C24_33  and  C25_34 
REMARK   24  A    between atoms: C28_38  and  O6_39 
REMARK   25  A    between atoms: C29_42  and  O8_43 
REMARK   26  A    between atoms: C29_42  and  C35_49 
ROOT
ATOM      1  C14 non d ame     -37.393  13.843  25.066  0.00  0.00     0.089 C 
ATOM      2  H20 non d ame     -38.398  13.891  25.485  0.00  0.00     0.087 H 
ENDROOT
BRANCH   1   3
ATOM      3  N4  non d ame     -36.809  15.171  25.177  0.00  0.00    -0.346 N 
ATOM      4  C10 non d ame     -37.341  16.156  26.188  0.00  0.00     0.241 C 
ATOM      5  O4  non d ame     -38.243  15.858  26.898  0.00  0.00    -0.271 OA
ATOM      6  H19 non d ame     -36.043  15.406  24.561  0.00  0.00     0.163 HD
BRANCH   4   7
ATOM      7  C9  non d ame     -36.720  17.524  26.293  0.00  0.00     0.092 C 
ATOM      8  H11 non d ame     -37.184  18.067  27.117  0.00  0.00     0.088 H 
BRANCH   7   9
ATOM      9  N3  non d ame     -35.295  17.392  26.608  0.00  0.00    -0.346 N 
ATOM     10  C7  non d ame     -34.738  18.095  27.737  0.00  0.00     0.240 C 
ATOM     11  O3  non d ame     -35.423  18.774  28.402  0.00  0.00    -0.271 OA
ATOM     12  H10 non d ame     -34.692  16.812  26.043  0.00  0.00     0.163 HD
BRANCH  10  13
ATOM     13  C6  non d ame     -33.220  17.953  28.066  0.00  0.00     0.086 C 
ATOM     14  H6  non d ame     -32.954  18.390  29.029  0.00  0.00     0.086 H 
BRANCH  13  15
ATOM     15  N2  non d ame     -32.885  16.541  28.144  0.00  0.00    -0.343 N 
ATOM     16  C5  non d ame     -32.051  16.057  29.247  0.00  0.00     0.273 C 
ATOM     17  O2  non d ame     -31.653  16.812  30.064  0.00  0.00    -0.266 OA
ATOM     18  H5  non d ame     -33.227  15.903  27.439  0.00  0.00     0.163 HD
BRANCH  16  19
ATOM     19  C4  non d ame     -31.691  14.566  29.342  0.00  0.00     0.154 A 
ATOM     20  C1  non d ame     -32.537  13.498  29.780  0.00  0.00    -0.017 A 
ATOM     21  C2  non d ame     -31.738  12.337  29.681  0.00  0.00     0.077 A 
ATOM     22  H1  non d ame     -33.571  13.556  30.120  0.00  0.00     0.091 H 
ATOM     23  O1  non d ame     -30.573  12.706  29.234  0.00  0.00    -0.218 OA
ATOM     24  N1  non d ame     -30.521  14.002  29.030  0.00  0.00    -0.123 NA
BRANCH  21  25
ATOM     25  C3  non d ame     -32.163  10.917  30.030  0.00  0.00    -0.029 C 
ATOM     26  H2  non d ame     -31.289  10.267  30.036  0.00  0.00     0.036 H 
ATOM     27  H3  non d ame     -32.627  10.909  31.017  0.00  0.00     0.036 H 
ATOM     28  H4  non d ame     -32.877  10.559  29.290  0.00  0.00     0.036 H 
ENDBRANCH  21  25
ENDBRANCH  16  19
ENDBRANCH  13  15
BRANCH  13  29
ATOM     29  C8  non d ame     -32.404  18.618  26.986  0.00  0.00    -0.049 C 
ATOM     30  H7  non d ame     -32.371  17.975  26.108  0.00  0.00     0.030 H 
ATOM     31  H8  non d ame     -32.863  19.571  26.721  0.00  0.00     0.030 H 
ATOM     32  H9  non d ame     -31.391  18.791  27.350  0.00  0.00     0.030 H 
ENDBRANCH  13  29
ENDBRANCH  10  13
ENDBRANCH   7   9
BRANCH   7  33
ATOM     33  C11 non d ame     -36.882  18.272  24.937  0.00  0.00    -0.033 C 
ATOM     34  H12 non d ame     -36.313  17.720  24.188  0.00  0.00     0.042 H 
BRANCH  33  35
ATOM     35  C12 non d ame     -38.372  18.293  24.473  0.00  0.00    -0.071 C 
ATOM     36  H13 non d ame     -38.545  17.478  23.770  0.00  0.00     0.028 H 
ATOM     37  H14 non d ame     -39.023  18.172  25.338  0.00  0.00     0.028 H 
ATOM     38  H15 non d ame     -38.587  19.244  23.986  0.00  0.00     0.028 H 
ENDBRANCH  33  35
BRANCH  33  39
ATOM     39  C13 non d ame     -36.294  19.717  25.022  0.00  0.00    -0.071 C 
ATOM     40  H16 non d ame     -35.395  19.781  24.408  0.00  0.00     0.028 H 
ATOM     41  H17 non d ame     -37.033  20.432  24.659  0.00  0.00     0.028 H 
ATOM     42  H18 non d ame     -36.045  19.948  26.057  0.00  0.00     0.028 H 
ENDBRANCH  33  39
ENDBRANCH   7  33
ENDBRANCH   4   7
ENDBRANCH   1   3
BRANCH   1  43
ATOM     43  C15 non d ame     -36.485  12.837  25.829  0.00  0.00     0.240 C 
ATOM     44  O5  non d ame     -36.666  12.639  26.987  0.00  0.00    -0.271 OA
ATOM     45  N6  non d ame     -35.397  12.112  25.115  0.00  0.00    -0.355 N 
ATOM     46  H46 non d ame     -35.237  12.268  24.129  0.00  0.00     0.162 HD
BRANCH  45  47
ATOM     47  C20 non d ame     -34.543  11.157  25.854  0.00  0.00     0.013 C 
ATOM     48  H30 non d ame     -35.185  10.580  26.520  0.00  0.00     0.072 H 
BRANCH  47  49
ATOM     49  C21 non d ame     -33.517  11.922  26.658  0.00  0.00    -0.038 C 
ATOM     50  H31 non d ame     -34.064  12.738  27.134  0.00  0.00     0.036 H 
ATOM     51  H32 non d ame     -33.008  11.178  27.270  0.00  0.00     0.036 H 
BRANCH  49  52
ATOM     52  C22 non d ame     -32.433  12.579  25.778  0.00  0.00     0.018 C 
ATOM     53  H33 non d ame     -31.481  12.321  26.239  0.00  0.00     0.048 H 
ATOM     54  H34 non d ame     -32.648  12.259  24.757  0.00  0.00     0.048 H 
BRANCH  52  55
ATOM     55  C23 non d ame     -32.494  14.131  25.761  0.00  0.00     0.259 C 
ATOM     56  O7  non d ame     -33.541  14.694  25.745  0.00  0.00    -0.265 OA
BRANCH  55  57
ATOM     57  O8  non d ame     -31.282  14.877  25.751  0.00  0.00    -0.317 OA
BRANCH  57  58
ATOM     58  C29 non d ame     -31.319  16.034  24.911  0.00  0.00     0.052 C 
ATOM     59  H47 non d ame     -32.373  16.291  24.809  0.00  0.00     0.082 H 
ATOM     60  H48 non d ame     -30.625  16.746  25.357  0.00  0.00     0.082 H 
BRANCH  58  61
ATOM     61  C35 non d ame     -30.775  15.630  23.514  0.00  0.00    -0.034 A 
ATOM     62  C30 non d ame     -29.722  14.725  23.412  0.00  0.00    -0.075 A 
ATOM     63  C31 non d ame     -29.233  14.362  22.158  0.00  0.00    -0.082 A 
ATOM     64  H49 non d ame     -29.280  14.302  24.314  0.00  0.00     0.084 H 
ATOM     65  C32 non d ame     -29.800  14.908  21.003  0.00  0.00    -0.083 A 
ATOM     66  H50 non d ame     -28.409  13.652  22.081  0.00  0.00     0.083 H 
ATOM     67  C33 non d ame     -30.848  15.812  21.110  0.00  0.00    -0.082 A 
ATOM     68  H51 non d ame     -29.424  14.629  20.019  0.00  0.00     0.083 H 
ATOM     69  C34 non d ame     -31.341  16.177  22.361  0.00  0.00    -0.075 A 
ATOM     70  H52 non d ame     -31.287  16.239  20.207  0.00  0.00     0.083 H 
ATOM     71  H53 non d ame     -32.165  16.887  22.437  0.00  0.00     0.084 H 
ENDBRANCH  58  61
ENDBRANCH  57  58
ENDBRANCH  55  57
ENDBRANCH  52  55
ENDBRANCH  49  52
ENDBRANCH  47  49
BRANCH  47  72
ATOM     72  C24 non d ame     -33.832  10.230  24.870  0.00  0.00    -0.039 C 
ATOM     73  H35 non d ame     -34.448  10.237  23.969  0.00  0.00     0.036 H 
ATOM     74  H36 non d ame     -32.803  10.585  24.829  0.00  0.00     0.036 H 
BRANCH  72  75
ATOM     75  C25 non d ame     -33.790   8.720  25.402  0.00  0.00    -0.001 C 
ATOM     76  C26 non d ame     -34.395   8.648  26.929  0.00  0.00    -0.035 C 
ATOM     77  C27 non d ame     -33.511   7.994  27.719  0.00  0.00     0.085 C 
ATOM     78  H38 non d ame     -34.435   9.647  27.363  0.00  0.00     0.036 H 
ATOM     79  H39 non d ame     -35.278   8.008  26.951  0.00  0.00     0.036 H 
ATOM     80  N5  non d ame     -32.215   7.903  26.950  0.00  0.00    -0.049 N 
ATOM     81  H40 non d ame     -33.363   8.639  28.587  0.00  0.00     0.075 H 
ATOM     82  H41 non d ame     -33.919   6.992  27.848  0.00  0.00     0.075 H 
ATOM     83  C28 non d ame     -32.581   8.263  25.419  0.00  0.00     0.193 C 
ATOM     84  H42 non d ame     -31.612   8.626  27.315  0.00  0.00     0.280 HD
ATOM     85  H43 non d ame     -31.926   6.935  26.992  0.00  0.00     0.280 HD
ATOM     86  H44 non d ame     -32.656   7.479  24.668  0.00  0.00     0.129 H 
ATOM     87  H37 non d ame     -34.191   8.014  24.676  0.00  0.00     0.046 H 
BRANCH  83  88
ATOM     88  O6  non d ame     -31.642   9.205  24.897  0.00  0.00    -0.369 OA
ATOM     89  H45 non d ame     -32.109   9.983  24.584  0.00  0.00     0.212 HD
ENDBRANCH  83  88
ENDBRANCH  72  75
ENDBRANCH  47  72
ENDBRANCH  45  47
ENDBRANCH   1  43
BRANCH   1  90
ATOM     90  C16 non d ame     -37.465  13.455  23.598  0.00  0.00    -0.035 C 
ATOM     91  H21 non d ame     -36.906  14.225  23.067  0.00  0.00     0.037 H 
ATOM     92  H22 non d ame     -37.135  12.417  23.557  0.00  0.00     0.037 H 
BRANCH  90  93
ATOM     93  C17 non d ame     -38.913  13.480  23.013  0.00  0.00    -0.059 C 
ATOM     94  H23 non d ame     -39.292  12.459  23.021  0.00  0.00     0.038 H 
BRANCH  93  95
ATOM     95  C18 non d ame     -39.880  14.355  23.873  0.00  0.00    -0.073 C 
ATOM     96  H24 non d ame     -39.535  15.388  23.871  0.00  0.00     0.028 H 
ATOM     97  H25 non d ame     -40.885  14.308  23.451  0.00  0.00     0.028 H 
ATOM     98  H26 non d ame     -39.899  13.979  24.895  0.00  0.00     0.028 H 
ENDBRANCH  93  95
BRANCH  93  99
ATOM     99  C19 non d ame     -38.905  13.951  21.556  0.00  0.00    -0.073 C 
ATOM    100  H27 non d ame     -39.476  14.876  21.469  0.00  0.00     0.028 H 
ATOM    101  H28 non d ame     -37.878  14.128  21.236  0.00  0.00     0.028 H 
ATOM    102  H29 non d ame     -39.354  13.185  20.924  0.00  0.00     0.028 H 
ENDBRANCH  93  99
ENDBRANCH  90  93
ENDBRANCH   1  90
TORSDOF 26
ENDMDL
MODEL 15
REMARK VINA RESULT:      -6.9      2.014      8.051
REMARK  26 active torsions:
REMARK  status: ('A' for Active; 'I' for Inactive)
REMARK    1  A    between atoms: C2_2  and  C3_3 
REMARK    2  A    between atoms: C4_6  and  C5_7 
REMARK       I    between atoms: C5_7  and  N2_9 
REMARK    3  A    between atoms: N2_9  and  C6_10 
REMARK    4  A    between atoms: C6_10  and  C7_11 
REMARK    5  A    between atoms: C6_10  and  C8_13 
REMARK       I    between atoms: C7_11  and  N3_14 
REMARK    6  A    between atoms: N3_14  and  C9_15 
REMARK    7  A    between atoms: C9_15  and  C10_16 
REMARK    8  A    between atoms: C9_15  and  C11_18 
REMARK       I    between atoms: C10_16  and  N4_21 
REMARK    9  A    between atoms: C11_18  and  C12_19 
REMARK   10  A    between atoms: C11_18  and  C13_20 
REMARK   11  A    between atoms: N4_21  and  C14_22 
REMARK   12  A    between atoms: C14_22  and  C15_23 
REMARK   13  A    between atoms: C14_22  and  C16_25 
REMARK       I    between atoms: C15_23  and  N6_40 
REMARK   14  A    between atoms: C16_25  and  C17_26 
REMARK   15  A    between atoms: C17_26  and  C18_27 
REMARK   16  A    between atoms: C17_26  and  C19_28 
REMARK   17  A    between atoms: C20_29  and  C21_30 
REMARK   18  A    between atoms: C20_29  and  C24_33 
REMARK   19  A    between atoms: C20_29  and  N6_40 
REMARK   20  A    between atoms: C21_30  and  C22_31 
REMARK   21  A    between atoms: C22_31  and  C23_32 
REMARK   22  A    between atoms: C23_32  and  O8_43 
REMARK   23  A    between atoms: C24_33  and  C25_34 
REMARK   24  A    between atoms: C28_38  and  O6_39 
REMARK   25  A    between atoms: C29_42  and  O8_43 
REMARK   26  A    between atoms: C29_42  and  C35_49 
ROOT
ATOM      1  C14 non d ame     -36.603  13.888  26.284  0.00  0.00     0.089 C 
ATOM      2  H20 non d ame     -37.214  13.919  27.187  0.00  0.00     0.087 H 
ENDROOT
BRANCH   1   3
ATOM      3  N4  non d ame     -36.273  15.262  25.933  0.00  0.00    -0.346 N 
ATOM      4  C10 non d ame     -36.922  16.412  26.662  0.00  0.00     0.241 C 
ATOM      5  O4  non d ame     -37.708  16.207  27.526  0.00  0.00    -0.271 OA
ATOM      6  H19 non d ame     -35.603  15.414  25.193  0.00  0.00     0.163 HD
BRANCH   4   7
ATOM      7  C9  non d ame     -36.564  17.826  26.289  0.00  0.00     0.092 C 
ATOM      8  H11 non d ame     -36.883  18.499  27.085  0.00  0.00     0.088 H 
BRANCH   7   9
ATOM      9  N3  non d ame     -35.109  17.949  26.174  0.00  0.00    -0.346 N 
ATOM     10  C7  non d ame     -34.292  17.976  27.363  0.00  0.00     0.240 C 
ATOM     11  O3  non d ame     -34.790  17.902  28.419  0.00  0.00    -0.271 OA
ATOM     12  H10 non d ame     -34.664  18.016  25.270  0.00  0.00     0.163 HD
BRANCH  10  13
ATOM     13  C6  non d ame     -32.742  18.110  27.234  0.00  0.00     0.086 C 
ATOM     14  H6  non d ame     -32.207  17.592  28.030  0.00  0.00     0.086 H 
BRANCH  13  15
ATOM     15  N2  non d ame     -32.319  17.501  25.984  0.00  0.00    -0.343 N 
ATOM     16  C5  non d ame     -31.939  16.086  25.963  0.00  0.00     0.273 C 
ATOM     17  O2  non d ame     -31.975  15.448  26.957  0.00  0.00    -0.266 OA
ATOM     18  H5  non d ame     -32.287  18.055  25.140  0.00  0.00     0.163 HD
BRANCH  16  19
ATOM     19  C4  non d ame     -31.491  15.430  24.648  0.00  0.00     0.154 A 
ATOM     20  C1  non d ame     -31.419  16.041  23.357  0.00  0.00    -0.017 A 
ATOM     21  C2  non d ame     -30.953  15.021  22.497  0.00  0.00     0.077 A 
ATOM     22  H1  non d ame     -31.669  17.066  23.084  0.00  0.00     0.091 H 
ATOM     23  O1  non d ame     -30.777  13.955  23.221  0.00  0.00    -0.218 OA
ATOM     24  N1  non d ame     -31.086  14.168  24.479  0.00  0.00    -0.123 NA
BRANCH  21  25
ATOM     25  C3  non d ame     -30.701  15.149  21.000  0.00  0.00    -0.029 C 
ATOM     26  H2  non d ame     -30.852  16.184  20.693  0.00  0.00     0.036 H 
ATOM     27  H3  non d ame     -29.676  14.852  20.778  0.00  0.00     0.036 H 
ATOM     28  H4  non d ame     -31.393  14.505  20.459  0.00  0.00     0.036 H 
ENDBRANCH  21  25
ENDBRANCH  16  19
ENDBRANCH  13  15
BRANCH  13  29
ATOM     29  C8  non d ame     -32.358  19.568  27.255  0.00  0.00    -0.049 C 
ATOM     30  H7  non d ame     -32.671  20.013  28.199  0.00  0.00     0.030 H 
ATOM     31  H8  non d ame     -31.276  19.659  27.153  0.00  0.00     0.030 H 
ATOM     32  H9  non d ame     -32.846  20.084  26.429  0.00  0.00     0.030 H 
ENDBRANCH  13  29
ENDBRANCH  10  13
ENDBRANCH   7   9
BRANCH   7  33
ATOM     33  C11 non d ame     -37.222  18.183  24.924  0.00  0.00    -0.033 C 
ATOM     34  H12 non d ame     -36.872  17.456  24.191  0.00  0.00     0.042 H 
BRANCH  33  35
ATOM     35  C12 non d ame     -38.777  18.070  24.994  0.00  0.00    -0.071 C 
ATOM     36  H13 non d ame     -39.119  17.328  24.273  0.00  0.00     0.028 H 
ATOM     37  H14 non d ame     -39.073  17.767  25.997  0.00  0.00     0.028 H 
ATOM     38  H15 non d ame     -39.223  19.037  24.759  0.00  0.00     0.028 H 
ENDBRANCH  33  35
BRANCH  33  39
ATOM     39  C13 non d ame     -36.778  19.603  24.444  0.00  0.00    -0.071 C 
ATOM     40  H16 non d ame     -35.691  19.677  24.484  0.00  0.00     0.028 H 
ATOM     41  H17 non d ame     -37.116  19.763  23.419  0.00  0.00     0.028 H 
ATOM     42  H18 non d ame     -37.219  20.360  25.092  0.00  0.00     0.028 H 
ENDBRANCH  33  39
ENDBRANCH   7  33
ENDBRANCH   4   7
ENDBRANCH   1   3
BRANCH   1  43
ATOM     43  C15 non d ame     -35.279  13.100  26.497  0.00  0.00     0.240 C 
ATOM     44  O5  non d ame     -34.325  13.359  25.838  0.00  0.00    -0.271 OA
ATOM     45  N6  non d ame     -35.198  12.029  27.530  0.00  0.00    -0.355 N 
ATOM     46  H46 non d ame     -36.001  11.804  28.100  0.00  0.00     0.162 HD
BRANCH  45  47
ATOM     47  C20 non d ame     -33.931  11.289  27.722  0.00  0.00     0.013 C 
ATOM     48  H30 non d ame     -33.119  11.912  27.345  0.00  0.00     0.072 H 
BRANCH  47  49
ATOM     49  C21 non d ame     -33.989   9.991  26.951  0.00  0.00    -0.038 C 
ATOM     50  H31 non d ame     -34.384   9.251  27.648  0.00  0.00     0.036 H 
ATOM     51  H32 non d ame     -34.529  10.218  26.032  0.00  0.00     0.036 H 
BRANCH  49  52
ATOM     52  C22 non d ame     -32.594   9.485  26.523  0.00  0.00     0.018 C 
ATOM     53  H33 non d ame     -32.018   9.396  27.443  0.00  0.00     0.048 H 
ATOM     54  H34 non d ame     -32.777   8.602  25.908  0.00  0.00     0.048 H 
BRANCH  52  55
ATOM     55  C23 non d ame     -31.815  10.482  25.622  0.00  0.00     0.259 C 
ATOM     56  O7  non d ame     -30.847  11.036  26.032  0.00  0.00    -0.265 OA
BRANCH  55  57
ATOM     57  O8  non d ame     -32.280  10.738  24.302  0.00  0.00    -0.317 OA
BRANCH  57  58
ATOM     58  C29 non d ame     -32.587   9.558  23.554  0.00  0.00     0.052 C 
ATOM     59  H47 non d ame     -33.072   8.881  24.258  0.00  0.00     0.082 H 
ATOM     60  H48 non d ame     -33.123   9.901  22.669  0.00  0.00     0.082 H 
BRANCH  58  61
ATOM     61  C35 non d ame     -31.249   8.917  23.099  0.00  0.00    -0.034 A 
ATOM     62  C30 non d ame     -30.258   9.707  22.525  0.00  0.00    -0.075 A 
ATOM     63  C31 non d ame     -29.055   9.131  22.116  0.00  0.00    -0.082 A 
ATOM     64  H49 non d ame     -30.423  10.776  22.394  0.00  0.00     0.084 H 
ATOM     65  C32 non d ame     -28.847   7.760  22.281  0.00  0.00    -0.083 A 
ATOM     66  H50 non d ame     -28.281   9.754  21.667  0.00  0.00     0.083 H 
ATOM     67  C33 non d ame     -29.839   6.975  22.852  0.00  0.00    -0.082 A 
ATOM     68  H51 non d ame     -27.909   7.302  21.965  0.00  0.00     0.083 H 
ATOM     69  C34 non d ame     -31.042   7.546  23.264  0.00  0.00    -0.075 A 
ATOM     70  H52 non d ame     -29.675   5.904  22.978  0.00  0.00     0.083 H 
ATOM     71  H53 non d ame     -31.816   6.923  23.713  0.00  0.00     0.084 H 
ENDBRANCH  58  61
ENDBRANCH  57  58
ENDBRANCH  55  57
ENDBRANCH  52  55
ENDBRANCH  49  52
ENDBRANCH  47  49
BRANCH  47  72
ATOM     72  C24 non d ame     -33.726  10.993  29.206  0.00  0.00    -0.039 C 
ATOM     73  H35 non d ame     -34.722  11.027  29.649  0.00  0.00     0.036 H 
ATOM     74  H36 non d ame     -33.147  10.070  29.240  0.00  0.00     0.036 H 
BRANCH  72  75
ATOM     75  C25 non d ame     -32.850  12.127  29.922  0.00  0.00    -0.001 C 
ATOM     76  C26 non d ame     -31.539  12.487  28.998  0.00  0.00    -0.035 C 
ATOM     77  C27 non d ame     -30.428  12.417  29.770  0.00  0.00     0.085 C 
ATOM     78  H38 non d ame     -31.381  11.708  28.253  0.00  0.00     0.036 H 
ATOM     79  H39 non d ame     -31.572  13.534  28.695  0.00  0.00     0.036 H 
ATOM     80  N5  non d ame     -30.824  11.724  31.051  0.00  0.00    -0.049 N 
ATOM     81  H40 non d ame     -29.732  11.781  29.223  0.00  0.00     0.075 H 
ATOM     82  H41 non d ame     -30.162  13.450  29.993  0.00  0.00     0.075 H 
ATOM     83  C28 non d ame     -32.438  11.737  31.083  0.00  0.00     0.193 C 
ATOM     84  H42 non d ame     -30.512  10.767  30.968  0.00  0.00     0.280 HD
ATOM     85  H43 non d ame     -30.483  12.302  31.806  0.00  0.00     0.280 HD
ATOM     86  H44 non d ame     -32.974  12.433  31.727  0.00  0.00     0.129 H 
ATOM     87  H37 non d ame     -33.458  12.963  30.267  0.00  0.00     0.046 H 
BRANCH  83  88
ATOM     88  O6  non d ame     -32.936  10.442  31.424  0.00  0.00    -0.369 OA
ATOM     89  H45 non d ame     -32.430   9.772  30.958  0.00  0.00     0.212 HD
ENDBRANCH  83  88
ENDBRANCH  72  75
ENDBRANCH  47  72
ENDBRANCH  45  47
ENDBRANCH   1  43
BRANCH   1  90
ATOM     90  C16 non d ame     -37.394  13.262  25.147  0.00  0.00    -0.035 C 
ATOM     91  H21 non d ame     -36.692  12.605  24.634  0.00  0.00     0.037 H 
ATOM     92  H22 non d ame     -38.287  12.846  25.613  0.00  0.00     0.037 H 
BRANCH  90  93
ATOM     93  C17 non d ame     -37.889  14.293  24.085  0.00  0.00    -0.059 C 
ATOM     94  H23 non d ame     -37.437  15.256  24.322  0.00  0.00     0.038 H 
BRANCH  93  95
ATOM     95  C18 non d ame     -37.450  13.904  22.637  0.00  0.00    -0.073 C 
ATOM     96  H24 non d ame     -36.534  13.316  22.680  0.00  0.00     0.028 H 
ATOM     97  H25 non d ame     -38.237  13.315  22.165  0.00  0.00     0.028 H 
ATOM     98  H26 non d ame     -37.275  14.808  22.055  0.00  0.00     0.028 H 
ENDBRANCH  93  95
BRANCH  93  99
ATOM     99  C19 non d ame     -39.408  14.472  24.163  0.00  0.00    -0.073 C 
ATOM    100  H27 non d ame     -39.638  15.404  24.681  0.00  0.00     0.028 H 
ATOM    101  H28 non d ame     -39.823  14.506  23.155  0.00  0.00     0.028 H 
ATOM    102  H29 non d ame     -39.845  13.636  24.707  0.00  0.00     0.028 H 
ENDBRANCH  93  99
ENDBRANCH  90  93
ENDBRANCH   1  90
TORSDOF 26
ENDMDL
MODEL 16
REMARK VINA RESULT:      -6.9      2.502      7.095
REMARK  26 active torsions:
REMARK  status: ('A' for Active; 'I' for Inactive)
REMARK    1  A    between atoms: C2_2  and  C3_3 
REMARK    2  A    between atoms: C4_6  and  C5_7 
REMARK       I    between atoms: C5_7  and  N2_9 
REMARK    3  A    between atoms: N2_9  and  C6_10 
REMARK    4  A    between atoms: C6_10  and  C7_11 
REMARK    5  A    between atoms: C6_10  and  C8_13 
REMARK       I    between atoms: C7_11  and  N3_14 
REMARK    6  A    between atoms: N3_14  and  C9_15 
REMARK    7  A    between atoms: C9_15  and  C10_16 
REMARK    8  A    between atoms: C9_15  and  C11_18 
REMARK       I    between atoms: C10_16  and  N4_21 
REMARK    9  A    between atoms: C11_18  and  C12_19 
REMARK   10  A    between atoms: C11_18  and  C13_20 
REMARK   11  A    between atoms: N4_21  and  C14_22 
REMARK   12  A    between atoms: C14_22  and  C15_23 
REMARK   13  A    between atoms: C14_22  and  C16_25 
REMARK       I    between atoms: C15_23  and  N6_40 
REMARK   14  A    between atoms: C16_25  and  C17_26 
REMARK   15  A    between atoms: C17_26  and  C18_27 
REMARK   16  A    between atoms: C17_26  and  C19_28 
REMARK   17  A    between atoms: C20_29  and  C21_30 
REMARK   18  A    between atoms: C20_29  and  C24_33 
REMARK   19  A    between atoms: C20_29  and  N6_40 
REMARK   20  A    between atoms: C21_30  and  C22_31 
REMARK   21  A    between atoms: C22_31  and  C23_32 
REMARK   22  A    between atoms: C23_32  and  O8_43 
REMARK   23  A    between atoms: C24_33  and  C25_34 
REMARK   24  A    between atoms: C28_38  and  O6_39 
REMARK   25  A    between atoms: C29_42  and  O8_43 
REMARK   26  A    between atoms: C29_42  and  C35_49 
ROOT
ATOM      1  C14 non d ame     -32.416   9.377  24.765  0.00  0.00     0.089 C 
ATOM      2  H20 non d ame     -31.962   8.517  25.258  0.00  0.00     0.087 H 
ENDROOT
BRANCH   1   3
ATOM      3  N4  non d ame     -33.746   9.553  25.329  0.00  0.00    -0.346 N 
ATOM      4  C10 non d ame     -34.435   8.408  26.028  0.00  0.00     0.241 C 
ATOM      5  O4  non d ame     -33.901   7.353  26.120  0.00  0.00    -0.271 OA
ATOM      6  H19 non d ame     -34.184  10.459  25.238  0.00  0.00     0.163 HD
BRANCH   4   7
ATOM      7  C9  non d ame     -35.809   8.611  26.611  0.00  0.00     0.092 C 
ATOM      8  H11 non d ame     -36.232   7.642  26.877  0.00  0.00     0.088 H 
BRANCH   7   9
ATOM      9  N3  non d ame     -35.706   9.394  27.845  0.00  0.00    -0.346 N 
ATOM     10  C7  non d ame     -36.366   8.939  29.044  0.00  0.00     0.240 C 
ATOM     11  O3  non d ame     -36.985   7.945  29.033  0.00  0.00    -0.271 OA
ATOM     12  H10 non d ame     -35.178  10.253  27.870  0.00  0.00     0.163 HD
BRANCH  10  13
ATOM     13  C6  non d ame     -36.256   9.778  30.355  0.00  0.00     0.086 C 
ATOM     14  H6  non d ame     -36.016   9.169  31.227  0.00  0.00     0.086 H 
BRANCH  13  15
ATOM     15  N2  non d ame     -35.174  10.738  30.209  0.00  0.00    -0.343 N 
ATOM     16  C5  non d ame     -33.870  10.453  30.812  0.00  0.00     0.273 C 
ATOM     17  O2  non d ame     -33.702   9.450  31.413  0.00  0.00    -0.266 OA
ATOM     18  H5  non d ame     -35.328  11.595  29.697  0.00  0.00     0.163 HD
BRANCH  16  19
ATOM     19  C4  non d ame     -32.718  11.458  30.665  0.00  0.00     0.154 A 
ATOM     20  C1  non d ame     -32.776  12.759  30.071  0.00  0.00    -0.017 A 
ATOM     21  C2  non d ame     -31.464  13.270  30.186  0.00  0.00     0.077 A 
ATOM     22  H1  non d ame     -33.637  13.256  29.625  0.00  0.00     0.091 H 
ATOM     23  O1  non d ame     -30.745  12.362  30.779  0.00  0.00    -0.218 OA
ATOM     24  N1  non d ame     -31.455  11.296  31.068  0.00  0.00    -0.123 NA
BRANCH  21  25
ATOM     25  C3  non d ame     -30.981  14.632  29.705  0.00  0.00    -0.029 C 
ATOM     26  H2  non d ame     -29.895  14.621  29.612  0.00  0.00     0.036 H 
ATOM     27  H3  non d ame     -31.426  14.853  28.734  0.00  0.00     0.036 H 
ATOM     28  H4  non d ame     -31.276  15.397  30.422  0.00  0.00     0.036 H 
ENDBRANCH  21  25
ENDBRANCH  16  19
ENDBRANCH  13  15
BRANCH  13  29
ATOM     29  C8  non d ame     -37.557  10.499  30.605  0.00  0.00    -0.049 C 
ATOM     30  H7  non d ame     -37.401  11.573  30.511  0.00  0.00     0.030 H 
ATOM     31  H8  non d ame     -38.297  10.174  29.873  0.00  0.00     0.030 H 
ATOM     32  H9  non d ame     -37.913  10.269  31.609  0.00  0.00     0.030 H 
ENDBRANCH  13  29
ENDBRANCH  10  13
ENDBRANCH   7   9
BRANCH   7  33
ATOM     33  C11 non d ame     -36.699   9.375  25.587  0.00  0.00    -0.033 C 
ATOM     34  H12 non d ame     -36.145   9.432  24.649  0.00  0.00     0.042 H 
BRANCH  33  35
ATOM     35  C12 non d ame     -38.027   8.607  25.302  0.00  0.00    -0.071 C 
ATOM     36  H13 non d ame     -38.876   9.243  25.553  0.00  0.00     0.028 H 
ATOM     37  H14 non d ame     -38.072   8.340  24.247  0.00  0.00     0.028 H 
ATOM     38  H15 non d ame     -38.061   7.702  25.908  0.00  0.00     0.028 H 
ENDBRANCH  33  35
BRANCH  33  39
ATOM     39  C13 non d ame     -36.980  10.834  26.070  0.00  0.00    -0.071 C 
ATOM     40  H16 non d ame     -38.048  11.043  25.992  0.00  0.00     0.028 H 
ATOM     41  H17 non d ame     -36.663  10.941  27.108  0.00  0.00     0.028 H 
ATOM     42  H18 non d ame     -36.426  11.536  25.448  0.00  0.00     0.028 H 
ENDBRANCH  33  39
ENDBRANCH   7  33
ENDBRANCH   4   7
ENDBRANCH   1   3
BRANCH   1  43
ATOM     43  C15 non d ame     -31.603  10.683  24.996  0.00  0.00     0.240 C 
ATOM     44  O5  non d ame     -30.997  10.831  26.007  0.00  0.00    -0.271 OA
ATOM     45  N6  non d ame     -31.572  11.745  23.951  0.00  0.00    -0.355 N 
ATOM     46  H46 non d ame     -32.079  11.628  23.085  0.00  0.00     0.162 HD
BRANCH  45  47
ATOM     47  C20 non d ame     -30.792  12.981  24.184  0.00  0.00     0.013 C 
ATOM     48  H30 non d ame     -30.062  12.774  24.966  0.00  0.00     0.072 H 
BRANCH  47  49
ATOM     49  C21 non d ame     -31.726  14.085  24.626  0.00  0.00    -0.038 C 
ATOM     50  H31 non d ame     -31.264  15.014  24.289  0.00  0.00     0.036 H 
ATOM     51  H32 non d ame     -32.712  13.802  24.259  0.00  0.00     0.036 H 
BRANCH  49  52
ATOM     52  C22 non d ame     -31.846  14.189  26.162  0.00  0.00     0.018 C 
ATOM     53  H33 non d ame     -31.245  13.373  26.561  0.00  0.00     0.048 H 
ATOM     54  H34 non d ame     -31.593  15.222  26.408  0.00  0.00     0.048 H 
BRANCH  52  55
ATOM     55  C23 non d ame     -33.287  13.963  26.695  0.00  0.00     0.259 C 
ATOM     56  O7  non d ame     -33.761  12.873  26.710  0.00  0.00    -0.265 OA
BRANCH  55  57
ATOM     57  O8  non d ame     -34.044  15.077  27.153  0.00  0.00    -0.317 OA
BRANCH  57  58
ATOM     58  C29 non d ame     -34.334  16.040  26.136  0.00  0.00     0.052 C 
ATOM     59  H47 non d ame     -33.792  15.707  25.251  0.00  0.00     0.082 H 
ATOM     60  H48 non d ame     -35.420  16.126  26.111  0.00  0.00     0.082 H 
BRANCH  58  61
ATOM     61  C35 non d ame     -33.745  17.405  26.586  0.00  0.00    -0.034 A 
ATOM     62  C30 non d ame     -33.917  18.533  25.791  0.00  0.00    -0.075 A 
ATOM     63  C31 non d ame     -33.387  19.759  26.195  0.00  0.00    -0.082 A 
ATOM     64  H49 non d ame     -34.464  18.458  24.851  0.00  0.00     0.084 H 
ATOM     65  C32 non d ame     -32.683  19.852  27.398  0.00  0.00    -0.083 A 
ATOM     66  H50 non d ame     -33.525  20.642  25.570  0.00  0.00     0.083 H 
ATOM     67  C33 non d ame     -32.512  18.722  28.187  0.00  0.00    -0.082 A 
ATOM     68  H51 non d ame     -32.267  20.806  27.721  0.00  0.00     0.083 H 
ATOM     69  C34 non d ame     -33.041  17.496  27.788  0.00  0.00    -0.075 A 
ATOM     70  H52 non d ame     -31.961  18.797  29.124  0.00  0.00     0.083 H 
ATOM     71  H53 non d ame     -32.904  16.614  28.413  0.00  0.00     0.084 H 
ENDBRANCH  58  61
ENDBRANCH  57  58
ENDBRANCH  55  57
ENDBRANCH  52  55
ENDBRANCH  49  52
ENDBRANCH  47  49
BRANCH  47  72
ATOM     72  C24 non d ame     -30.085  13.397  22.895  0.00  0.00    -0.039 C 
ATOM     73  H35 non d ame     -29.025  13.210  23.074  0.00  0.00     0.036 H 
ATOM     74  H36 non d ame     -30.604  12.868  22.096  0.00  0.00     0.036 H 
BRANCH  72  75
ATOM     75  C25 non d ame     -30.248  14.964  22.609  0.00  0.00    -0.001 C 
ATOM     76  C26 non d ame     -31.160  15.194  21.260  0.00  0.00    -0.035 C 
ATOM     77  C27 non d ame     -30.501  16.032  20.425  0.00  0.00     0.085 C 
ATOM     78  H38 non d ame     -31.227  14.267  20.691  0.00  0.00     0.036 H 
ATOM     79  H39 non d ame     -32.066  15.746  21.511  0.00  0.00     0.036 H 
ATOM     80  N5  non d ame     -29.082  16.134  20.931  0.00  0.00    -0.049 N 
ATOM     81  H40 non d ame     -30.496  15.533  19.455  0.00  0.00     0.075 H 
ATOM     82  H41 non d ame     -30.988  17.000  20.538  0.00  0.00     0.075 H 
ATOM     83  C28 non d ame     -29.100  15.528  22.428  0.00  0.00     0.193 C 
ATOM     84  H42 non d ame     -28.524  15.529  20.346  0.00  0.00     0.280 HD
ATOM     85  H43 non d ame     -28.869  17.120  20.986  0.00  0.00     0.280 HD
ATOM     86  H44 non d ame     -29.066  16.189  23.293  0.00  0.00     0.129 H 
ATOM     87  H37 non d ame     -30.534  15.520  23.501  0.00  0.00     0.046 H 
BRANCH  83  88
ATOM     88  O6  non d ame     -28.016  14.613  22.602  0.00  0.00    -0.369 OA
ATOM     89  H45 non d ame     -28.013  13.980  21.881  0.00  0.00     0.212 HD
ENDBRANCH  83  88
ENDBRANCH  72  75
ENDBRANCH  47  72
ENDBRANCH  45  47
ENDBRANCH   1  43
BRANCH   1  90
ATOM     90  C16 non d ame     -32.541   9.109  23.274  0.00  0.00    -0.035 C 
ATOM     91  H21 non d ame     -33.542   8.700  23.137  0.00  0.00     0.037 H 
ATOM     92  H22 non d ame     -32.265  10.045  22.788  0.00  0.00     0.037 H 
BRANCH  90  93
ATOM     93  C17 non d ame     -31.547   8.026  22.746  0.00  0.00    -0.059 C 
ATOM     94  H23 non d ame     -30.579   8.505  22.607  0.00  0.00     0.038 H 
BRANCH  93  95
ATOM     95  C18 non d ame     -31.360   6.854  23.761  0.00  0.00    -0.073 C 
ATOM     96  H24 non d ame     -31.337   5.907  23.222  0.00  0.00     0.028 H 
ATOM     97  H25 non d ame     -30.421   6.986  24.299  0.00  0.00     0.028 H 
ATOM     98  H26 non d ame     -32.187   6.850  24.469  0.00  0.00     0.028 H 
ENDBRANCH  93  95
BRANCH  93  99
ATOM     99  C19 non d ame     -31.992   7.497  21.379  0.00  0.00    -0.073 C 
ATOM    100  H27 non d ame     -31.894   6.411  21.361  0.00  0.00     0.028 H 
ATOM    101  H28 non d ame     -33.033   7.770  21.205  0.00  0.00     0.028 H 
ATOM    102  H29 non d ame     -31.367   7.932  20.600  0.00  0.00     0.028 H 
ENDBRANCH  93  99
ENDBRANCH  90  93
ENDBRANCH   1  90
TORSDOF 26
ENDMDL
MODEL 17
REMARK VINA RESULT:      -6.9      2.755      8.177
REMARK  26 active torsions:
REMARK  status: ('A' for Active; 'I' for Inactive)
REMARK    1  A    between atoms: C2_2  and  C3_3 
REMARK    2  A    between atoms: C4_6  and  C5_7 
REMARK       I    between atoms: C5_7  and  N2_9 
REMARK    3  A    between atoms: N2_9  and  C6_10 
REMARK    4  A    between atoms: C6_10  and  C7_11 
REMARK    5  A    between atoms: C6_10  and  C8_13 
REMARK       I    between atoms: C7_11  and  N3_14 
REMARK    6  A    between atoms: N3_14  and  C9_15 
REMARK    7  A    between atoms: C9_15  and  C10_16 
REMARK    8  A    between atoms: C9_15  and  C11_18 
REMARK       I    between atoms: C10_16  and  N4_21 
REMARK    9  A    between atoms: C11_18  and  C12_19 
REMARK   10  A    between atoms: C11_18  and  C13_20 
REMARK   11  A    between atoms: N4_21  and  C14_22 
REMARK   12  A    between atoms: C14_22  and  C15_23 
REMARK   13  A    between atoms: C14_22  and  C16_25 
REMARK       I    between atoms: C15_23  and  N6_40 
REMARK   14  A    between atoms: C16_25  and  C17_26 
REMARK   15  A    between atoms: C17_26  and  C18_27 
REMARK   16  A    between atoms: C17_26  and  C19_28 
REMARK   17  A    between atoms: C20_29  and  C21_30 
REMARK   18  A    between atoms: C20_29  and  C24_33 
REMARK   19  A    between atoms: C20_29  and  N6_40 
REMARK   20  A    between atoms: C21_30  and  C22_31 
REMARK   21  A    between atoms: C22_31  and  C23_32 
REMARK   22  A    between atoms: C23_32  and  O8_43 
REMARK   23  A    between atoms: C24_33  and  C25_34 
REMARK   24  A    between atoms: C28_38  and  O6_39 
REMARK   25  A    between atoms: C29_42  and  O8_43 
REMARK   26  A    between atoms: C29_42  and  C35_49 
ROOT
ATOM      1  C14 non d ame     -34.451   9.155  30.097  0.00  0.00     0.089 C 
ATOM      2  H20 non d ame     -35.466   9.454  29.836  0.00  0.00     0.087 H 
ENDROOT
BRANCH   1   3
ATOM      3  N4  non d ame     -34.088   8.039  29.235  0.00  0.00    -0.346 N 
ATOM      4  C10 non d ame     -35.097   7.456  28.278  0.00  0.00     0.241 C 
ATOM      5  O4  non d ame     -36.196   7.899  28.221  0.00  0.00    -0.271 OA
ATOM      6  H19 non d ame     -33.148   7.676  29.301  0.00  0.00     0.163 HD
BRANCH   4   7
ATOM      7  C9  non d ame     -34.702   6.306  27.390  0.00  0.00     0.092 C 
ATOM      8  H11 non d ame     -35.507   5.570  27.376  0.00  0.00     0.088 H 
BRANCH   7   9
ATOM      9  N3  non d ame     -34.529   6.786  26.016  0.00  0.00    -0.346 N 
ATOM     10  C7  non d ame     -35.375   6.279  24.964  0.00  0.00     0.240 C 
ATOM     11  O3  non d ame     -36.199   5.484  25.205  0.00  0.00    -0.271 OA
ATOM     12  H10 non d ame     -33.821   7.470  25.792  0.00  0.00     0.163 HD
BRANCH  10  13
ATOM     13  C6  non d ame     -35.184   6.791  23.502  0.00  0.00     0.086 C 
ATOM     14  H6  non d ame     -35.689   7.740  23.318  0.00  0.00     0.086 H 
BRANCH  13  15
ATOM     15  N2  non d ame     -33.768   7.021  23.265  0.00  0.00    -0.343 N 
ATOM     16  C5  non d ame     -33.281   8.390  23.077  0.00  0.00     0.273 C 
ATOM     17  O2  non d ame     -34.036   9.298  23.116  0.00  0.00    -0.266 OA
ATOM     18  H5  non d ame     -33.131   6.239  23.229  0.00  0.00     0.163 HD
BRANCH  16  19
ATOM     19  C4  non d ame     -31.787   8.648  22.827  0.00  0.00     0.154 A 
ATOM     20  C1  non d ame     -30.739   7.675  22.773  0.00  0.00    -0.017 A 
ATOM     21  C2  non d ame     -29.565   8.419  22.520  0.00  0.00     0.077 A 
ATOM     22  H1  non d ame     -30.817   6.596  22.900  0.00  0.00     0.091 H 
ATOM     23  O1  non d ame     -29.911   9.671  22.437  0.00  0.00    -0.218 OA
ATOM     24  N1  non d ame     -31.202   9.829  22.613  0.00  0.00    -0.123 NA
BRANCH  21  25
ATOM     25  C3  non d ame     -28.157   7.859  22.370  0.00  0.00    -0.029 C 
ATOM     26  H2  non d ame     -27.810   8.017  21.349  0.00  0.00     0.036 H 
ATOM     27  H3  non d ame     -27.488   8.367  23.064  0.00  0.00     0.036 H 
ATOM     28  H4  non d ame     -28.165   6.792  22.589  0.00  0.00     0.036 H 
ENDBRANCH  21  25
ENDBRANCH  16  19
ENDBRANCH  13  15
BRANCH  13  29
ATOM     29  C8  non d ame     -35.709   5.762  22.533  0.00  0.00    -0.049 C 
ATOM     30  H7  non d ame     -36.268   5.002  23.078  0.00  0.00     0.030 H 
ATOM     31  H8  non d ame     -36.366   6.247  21.810  0.00  0.00     0.030 H 
ATOM     32  H9  non d ame     -34.874   5.295  22.011  0.00  0.00     0.030 H 
ENDBRANCH  13  29
ENDBRANCH  10  13
ENDBRANCH   7   9
BRANCH   7  33
ATOM     33  C11 non d ame     -33.362   5.697  27.897  0.00  0.00    -0.033 C 
ATOM     34  H12 non d ame     -33.144   6.145  28.866  0.00  0.00     0.042 H 
BRANCH  33  35
ATOM     35  C12 non d ame     -33.482   4.155  28.109  0.00  0.00    -0.071 C 
ATOM     36  H13 non d ame     -32.986   3.636  27.288  0.00  0.00     0.028 H 
ATOM     37  H14 non d ame     -33.009   3.881  29.051  0.00  0.00     0.028 H 
ATOM     38  H15 non d ame     -34.534   3.872  28.134  0.00  0.00     0.028 H 
ENDBRANCH  33  35
BRANCH  33  39
ATOM     39  C13 non d ame     -32.187   6.046  26.928  0.00  0.00    -0.071 C 
ATOM     40  H16 non d ame     -32.036   5.224  26.228  0.00  0.00     0.028 H 
ATOM     41  H17 non d ame     -32.428   6.954  26.376  0.00  0.00     0.028 H 
ATOM     42  H18 non d ame     -31.276   6.204  27.505  0.00  0.00     0.028 H 
ENDBRANCH  33  39
ENDBRANCH   7  33
ENDBRANCH   4   7
ENDBRANCH   1   3
BRANCH   1  43
ATOM     43  C15 non d ame     -33.425  10.303  29.879  0.00  0.00     0.240 C 
ATOM     44  O5  non d ame     -32.616  10.539  30.717  0.00  0.00    -0.271 OA
ATOM     45  N6  non d ame     -33.445  11.103  28.622  0.00  0.00    -0.355 N 
ATOM     46  H46 non d ame     -34.125  10.908  27.900  0.00  0.00     0.162 HD
BRANCH  45  47
ATOM     47  C20 non d ame     -32.462  12.191  28.428  0.00  0.00     0.013 C 
ATOM     48  H30 non d ame     -31.465  11.766  28.547  0.00  0.00     0.072 H 
BRANCH  47  49
ATOM     49  C21 non d ame     -32.693  13.264  29.468  0.00  0.00    -0.038 C 
ATOM     50  H31 non d ame     -33.551  13.837  29.114  0.00  0.00     0.036 H 
ATOM     51  H32 non d ame     -32.742  12.743  30.423  0.00  0.00     0.036 H 
BRANCH  49  52
ATOM     52  C22 non d ame     -31.518  14.260  29.573  0.00  0.00     0.018 C 
ATOM     53  H33 non d ame     -31.040  14.052  30.529  0.00  0.00     0.048 H 
ATOM     54  H34 non d ame     -30.953  14.149  28.646  0.00  0.00     0.048 H 
BRANCH  52  55
ATOM     55  C23 non d ame     -31.961  15.748  29.630  0.00  0.00     0.259 C 
ATOM     56  O7  non d ame     -31.360  16.532  30.290  0.00  0.00    -0.265 OA
BRANCH  55  57
ATOM     57  O8  non d ame     -33.105  16.163  28.893  0.00  0.00    -0.317 OA
BRANCH  57  58
ATOM     58  C29 non d ame     -32.832  16.473  27.522  0.00  0.00     0.052 C 
ATOM     59  H47 non d ame     -31.747  16.514  27.440  0.00  0.00     0.082 H 
ATOM     60  H48 non d ame     -33.398  15.748  26.938  0.00  0.00     0.082 H 
BRANCH  58  61
ATOM     61  C35 non d ame     -33.400  17.888  27.230  0.00  0.00    -0.034 A 
ATOM     62  C30 non d ame     -32.606  19.013  27.434  0.00  0.00    -0.075 A 
ATOM     63  C31 non d ame     -33.116  20.284  27.171  0.00  0.00    -0.082 A 
ATOM     64  H49 non d ame     -31.586  18.899  27.800  0.00  0.00     0.084 H 
ATOM     65  C32 non d ame     -34.425  20.428  26.705  0.00  0.00    -0.083 A 
ATOM     66  H50 non d ame     -32.491  21.163  27.331  0.00  0.00     0.083 H 
ATOM     67  C33 non d ame     -35.214  19.303  26.506  0.00  0.00    -0.082 A 
ATOM     68  H51 non d ame     -34.831  21.418  26.496  0.00  0.00     0.083 H 
ATOM     69  C34 non d ame     -34.708  18.031  26.765  0.00  0.00    -0.075 A 
ATOM     70  H52 non d ame     -36.236  19.419  26.144  0.00  0.00     0.083 H 
ATOM     71  H53 non d ame     -35.334  17.152  26.605  0.00  0.00     0.084 H 
ENDBRANCH  58  61
ENDBRANCH  57  58
ENDBRANCH  55  57
ENDBRANCH  52  55
ENDBRANCH  49  52
ENDBRANCH  47  49
BRANCH  47  72
ATOM     72  C24 non d ame     -32.620  12.789  27.032  0.00  0.00    -0.039 C 
ATOM     73  H35 non d ame     -33.359  12.162  26.531  0.00  0.00     0.036 H 
ATOM     74  H36 non d ame     -32.824  13.848  27.192  0.00  0.00     0.036 H 
BRANCH  72  75
ATOM     75  C25 non d ame     -31.263  12.691  26.187  0.00  0.00    -0.001 C 
ATOM     76  C26 non d ame     -30.973  14.120  25.428  0.00  0.00    -0.035 C 
ATOM     77  C27 non d ame     -30.742  13.878  24.115  0.00  0.00     0.085 C 
ATOM     78  H38 non d ame     -31.876  14.730  25.420  0.00  0.00     0.036 H 
ATOM     79  H39 non d ame     -30.031  14.544  25.777  0.00  0.00     0.036 H 
ATOM     80  N5  non d ame     -31.172  12.456  23.847  0.00  0.00    -0.049 N 
ATOM     81  H40 non d ame     -31.402  14.556  23.574  0.00  0.00     0.075 H 
ATOM     82  H41 non d ame     -29.662  13.952  23.990  0.00  0.00     0.075 H 
ATOM     83  C28 non d ame     -31.334  11.760  25.295  0.00  0.00     0.193 C 
ATOM     84  H42 non d ame     -32.082  12.508  23.411  0.00  0.00     0.280 HD
ATOM     85  H43 non d ame     -30.405  12.012  23.361  0.00  0.00     0.280 HD
ATOM     86  H44 non d ame     -30.577  11.071  25.666  0.00  0.00     0.129 H 
ATOM     87  H37 non d ame     -30.446  12.262  26.766  0.00  0.00     0.046 H 
BRANCH  83  88
ATOM     88  O6  non d ame     -32.569  11.043  25.361  0.00  0.00    -0.369 OA
ATOM     89  H45 non d ame     -33.272  11.582  24.994  0.00  0.00     0.212 HD
ENDBRANCH  83  88
ENDBRANCH  72  75
ENDBRANCH  47  72
ENDBRANCH  45  47
ENDBRANCH   1  43
BRANCH   1  90
ATOM     90  C16 non d ame     -34.406   8.697  31.546  0.00  0.00    -0.035 C 
ATOM     91  H21 non d ame     -34.525   7.614  31.511  0.00  0.00     0.037 H 
ATOM     92  H22 non d ame     -33.496   9.131  31.958  0.00  0.00     0.037 H 
BRANCH  90  93
ATOM     93  C17 non d ame     -35.587   9.241  32.412  0.00  0.00    -0.059 C 
ATOM     94  H23 non d ame     -35.703   8.576  33.268  0.00  0.00     0.038 H 
BRANCH  93  95
ATOM     95  C18 non d ame     -35.304  10.677  32.958  0.00  0.00    -0.073 C 
ATOM     96  H24 non d ame     -36.108  10.975  33.630  0.00  0.00     0.028 H 
ATOM     97  H25 non d ame     -34.358  10.679  33.501  0.00  0.00     0.028 H 
ATOM     98  H26 non d ame     -35.246  11.377  32.126  0.00  0.00     0.028 H 
ENDBRANCH  93  95
BRANCH  93  99
ATOM     99  C19 non d ame     -36.901   9.206  31.628  0.00  0.00    -0.073 C 
ATOM    100  H27 non d ame     -37.639   9.836  32.126  0.00  0.00     0.028 H 
ATOM    101  H28 non d ame     -36.732   9.577  30.617  0.00  0.00     0.028 H 
ATOM    102  H29 non d ame     -37.270   8.182  31.581  0.00  0.00     0.028 H 
ENDBRANCH  93  99
ENDBRANCH  90  93
ENDBRANCH   1  90
TORSDOF 26
ENDMDL
MODEL 18
REMARK VINA RESULT:      -6.9      1.738      2.083
REMARK  26 active torsions:
REMARK  status: ('A' for Active; 'I' for Inactive)
REMARK    1  A    between atoms: C2_2  and  C3_3 
REMARK    2  A    between atoms: C4_6  and  C5_7 
REMARK       I    between atoms: C5_7  and  N2_9 
REMARK    3  A    between atoms: N2_9  and  C6_10 
REMARK    4  A    between atoms: C6_10  and  C7_11 
REMARK    5  A    between atoms: C6_10  and  C8_13 
REMARK       I    between atoms: C7_11  and  N3_14 
REMARK    6  A    between atoms: N3_14  and  C9_15 
REMARK    7  A    between atoms: C9_15  and  C10_16 
REMARK    8  A    between atoms: C9_15  and  C11_18 
REMARK       I    between atoms: C10_16  and  N4_21 
REMARK    9  A    between atoms: C11_18  and  C12_19 
REMARK   10  A    between atoms: C11_18  and  C13_20 
REMARK   11  A    between atoms: N4_21  and  C14_22 
REMARK   12  A    between atoms: C14_22  and  C15_23 
REMARK   13  A    between atoms: C14_22  and  C16_25 
REMARK       I    between atoms: C15_23  and  N6_40 
REMARK   14  A    between atoms: C16_25  and  C17_26 
REMARK   15  A    between atoms: C17_26  and  C18_27 
REMARK   16  A    between atoms: C17_26  and  C19_28 
REMARK   17  A    between atoms: C20_29  and  C21_30 
REMARK   18  A    between atoms: C20_29  and  C24_33 
REMARK   19  A    between atoms: C20_29  and  N6_40 
REMARK   20  A    between atoms: C21_30  and  C22_31 
REMARK   21  A    between atoms: C22_31  and  C23_32 
REMARK   22  A    between atoms: C23_32  and  O8_43 
REMARK   23  A    between atoms: C24_33  and  C25_34 
REMARK   24  A    between atoms: C28_38  and  O6_39 
REMARK   25  A    between atoms: C29_42  and  O8_43 
REMARK   26  A    between atoms: C29_42  and  C35_49 
ROOT
ATOM      1  C14 non d ame     -30.705  14.150  23.802  0.00  0.00     0.089 C 
ATOM      2  H20 non d ame     -29.622  14.032  23.754  0.00  0.00     0.087 H 
ENDROOT
BRANCH   1   3
ATOM      3  N4  non d ame     -31.274  12.847  24.113  0.00  0.00    -0.346 N 
ATOM      4  C10 non d ame     -30.698  11.597  23.496  0.00  0.00     0.241 C 
ATOM      5  O4  non d ame     -29.779  11.666  22.749  0.00  0.00    -0.271 OA
ATOM      6  H19 non d ame     -32.057  12.811  24.750  0.00  0.00     0.163 HD
BRANCH   4   7
ATOM      7  C9  non d ame     -31.296  10.257  23.834  0.00  0.00     0.092 C 
ATOM      8  H11 non d ame     -30.717   9.798  24.636  0.00  0.00     0.088 H 
BRANCH   7   9
ATOM      9  N3  non d ame     -32.660  10.442  24.335  0.00  0.00    -0.346 N 
ATOM     10  C7  non d ame     -32.951  10.224  25.731  0.00  0.00     0.240 C 
ATOM     11  O3  non d ame     -32.099   9.898  26.465  0.00  0.00    -0.271 OA
ATOM     12  H10 non d ame     -33.406  10.721  23.715  0.00  0.00     0.163 HD
BRANCH  10  13
ATOM     13  C6  non d ame     -34.407  10.420  26.258  0.00  0.00     0.086 C 
ATOM     14  H6  non d ame     -34.507  11.290  26.907  0.00  0.00     0.086 H 
BRANCH  13  15
ATOM     15  N2  non d ame     -35.292  10.640  25.127  0.00  0.00    -0.343 N 
ATOM     16  C5  non d ame     -36.140  11.834  25.096  0.00  0.00     0.273 C 
ATOM     17  O2  non d ame     -36.104  12.609  25.988  0.00  0.00    -0.266 OA
ATOM     18  H5  non d ame     -35.318   9.971  24.371  0.00  0.00     0.163 HD
BRANCH  16  19
ATOM     19  C4  non d ame     -37.079  12.081  23.906  0.00  0.00     0.154 A 
ATOM     20  C1  non d ame     -37.746  13.301  23.568  0.00  0.00    -0.017 A 
ATOM     21  C2  non d ame     -38.481  13.003  22.399  0.00  0.00     0.077 A 
ATOM     22  H1  non d ame     -37.706  14.255  24.092  0.00  0.00     0.091 H 
ATOM     23  O1  non d ame     -38.252  11.755  22.105  0.00  0.00    -0.218 OA
ATOM     24  N1  non d ame     -37.438  11.197  22.971  0.00  0.00    -0.123 NA
BRANCH  21  25
ATOM     25  C3  non d ame     -39.372  13.964  21.624  0.00  0.00    -0.029 C 
ATOM     26  H2  non d ame     -38.806  14.402  20.802  0.00  0.00     0.036 H 
ATOM     27  H3  non d ame     -40.230  13.423  21.225  0.00  0.00     0.036 H 
ATOM     28  H4  non d ame     -39.718  14.754  22.289  0.00  0.00     0.036 H 
ENDBRANCH  21  25
ENDBRANCH  16  19
ENDBRANCH  13  15
BRANCH  13  29
ATOM     29  C8  non d ame     -34.838   9.191  27.020  0.00  0.00    -0.049 C 
ATOM     30  H7  non d ame     -34.082   8.414  26.913  0.00  0.00     0.030 H 
ATOM     31  H8  non d ame     -34.955   9.441  28.074  0.00  0.00     0.030 H 
ATOM     32  H9  non d ame     -35.788   8.833  26.623  0.00  0.00     0.030 H 
ENDBRANCH  13  29
ENDBRANCH  10  13
ENDBRANCH   7   9
BRANCH   7  33
ATOM     33  C11 non d ame     -31.330   9.368  22.557  0.00  0.00    -0.033 C 
ATOM     34  H12 non d ame     -31.112  10.011  21.704  0.00  0.00     0.042 H 
BRANCH  33  35
ATOM     35  C12 non d ame     -30.232   8.260  22.604  0.00  0.00    -0.071 C 
ATOM     36  H13 non d ame     -29.286   8.672  22.253  0.00  0.00     0.028 H 
ATOM     37  H14 non d ame     -30.117   7.907  23.628  0.00  0.00     0.028 H 
ATOM     38  H15 non d ame     -30.526   7.429  21.963  0.00  0.00     0.028 H 
ENDBRANCH  33  35
BRANCH  33  39
ATOM     39  C13 non d ame     -32.750   8.750  22.345  0.00  0.00    -0.071 C 
ATOM     40  H16 non d ame     -32.785   7.757  22.794  0.00  0.00     0.028 H 
ATOM     41  H17 non d ame     -33.499   9.388  22.814  0.00  0.00     0.028 H 
ATOM     42  H18 non d ame     -32.957   8.673  21.278  0.00  0.00     0.028 H 
ENDBRANCH  33  39
ENDBRANCH   7  33
ENDBRANCH   4   7
ENDBRANCH   1   3
BRANCH   1  43
ATOM     43  C15 non d ame     -31.139  15.157  24.905  0.00  0.00     0.240 C 
ATOM     44  O5  non d ame     -30.698  16.260  24.905  0.00  0.00    -0.271 OA
ATOM     45  N6  non d ame     -32.112  14.748  25.958  0.00  0.00    -0.355 N 
ATOM     46  H46 non d ame     -32.497  13.814  25.965  0.00  0.00     0.162 HD
BRANCH  45  47
ATOM     47  C20 non d ame     -32.517  15.717  27.000  0.00  0.00     0.013 C 
ATOM     48  H30 non d ame     -31.722  16.457  27.096  0.00  0.00     0.072 H 
BRANCH  47  49
ATOM     49  C21 non d ame     -32.707  14.990  28.312  0.00  0.00    -0.038 C 
ATOM     50  H31 non d ame     -31.758  15.085  28.842  0.00  0.00     0.036 H 
ATOM     51  H32 non d ame     -33.618  15.400  28.746  0.00  0.00     0.036 H 
BRANCH  49  52
ATOM     52  C22 non d ame     -32.954  13.477  28.128  0.00  0.00     0.018 C 
ATOM     53  H33 non d ame     -33.909  13.273  28.609  0.00  0.00     0.048 H 
ATOM     54  H34 non d ame     -32.829  13.285  27.062  0.00  0.00     0.048 H 
BRANCH  52  55
ATOM     55  C23 non d ame     -31.910  12.580  28.850  0.00  0.00     0.259 C 
ATOM     56  O7  non d ame     -30.801  12.489  28.433  0.00  0.00    -0.265 OA
BRANCH  55  57
ATOM     57  O8  non d ame     -32.299  11.854  30.010  0.00  0.00    -0.317 OA
BRANCH  57  58
ATOM     58  C29 non d ame     -32.801  10.543  29.734  0.00  0.00     0.052 C 
ATOM     59  H47 non d ame     -33.311  10.619  28.774  0.00  0.00     0.082 H 
ATOM     60  H48 non d ame     -31.951   9.871  29.850  0.00  0.00     0.082 H 
BRANCH  58  61
ATOM     61  C35 non d ame     -33.853  10.194  30.822  0.00  0.00    -0.034 A 
ATOM     62  C30 non d ame     -34.203  11.141  31.780  0.00  0.00    -0.075 A 
ATOM     63  C31 non d ame     -35.148  10.827  32.757  0.00  0.00    -0.082 A 
ATOM     64  H49 non d ame     -33.738  12.126  31.767  0.00  0.00     0.084 H 
ATOM     65  C32 non d ame     -35.741   9.562  32.775  0.00  0.00    -0.083 A 
ATOM     66  H50 non d ame     -35.421  11.571  33.506  0.00  0.00     0.083 H 
ATOM     67  C33 non d ame     -35.386   8.621  31.818  0.00  0.00    -0.082 A 
ATOM     68  H51 non d ame     -36.481   9.310  33.534  0.00  0.00     0.083 H 
ATOM     69  C34 non d ame     -34.444   8.930  30.839  0.00  0.00    -0.075 A 
ATOM     70  H52 non d ame     -35.849   7.634  31.835  0.00  0.00     0.083 H 
ATOM     71  H53 non d ame     -34.171   8.185  30.090  0.00  0.00     0.084 H 
ENDBRANCH  58  61
ENDBRANCH  57  58
ENDBRANCH  55  57
ENDBRANCH  52  55
ENDBRANCH  49  52
ENDBRANCH  47  49
BRANCH  47  72
ATOM     72  C24 non d ame     -33.825  16.394  26.596  0.00  0.00    -0.039 C 
ATOM     73  H35 non d ame     -34.239  15.773  25.801  0.00  0.00     0.036 H 
ATOM     74  H36 non d ame     -34.379  16.530  27.525  0.00  0.00     0.036 H 
BRANCH  72  75
ATOM     75  C25 non d ame     -33.573  17.850  25.978  0.00  0.00    -0.001 C 
ATOM     76  C26 non d ame     -32.485  18.668  26.899  0.00  0.00    -0.035 C 
ATOM     77  C27 non d ame     -33.000  19.882  27.208  0.00  0.00     0.085 C 
ATOM     78  H38 non d ame     -32.375  18.183  27.868  0.00  0.00     0.036 H 
ATOM     79  H39 non d ame     -31.602  18.910  26.307  0.00  0.00     0.036 H 
ATOM     80  N5  non d ame     -34.469  19.839  26.861  0.00  0.00    -0.049 N 
ATOM     81  H40 non d ame     -32.894  19.977  28.290  0.00  0.00     0.075 H 
ATOM     82  H41 non d ame     -32.499  20.589  26.548  0.00  0.00     0.075 H 
ATOM     83  C28 non d ame     -34.668  18.534  25.932  0.00  0.00     0.193 C 
ATOM     84  H42 non d ame     -34.965  19.695  27.729  0.00  0.00     0.280 HD
ATOM     85  H43 non d ame     -34.654  20.662  26.304  0.00  0.00     0.280 HD
ATOM     86  H44 non d ame     -34.793  18.635  24.855  0.00  0.00     0.129 H 
ATOM     87  H37 non d ame     -33.389  17.816  24.904  0.00  0.00     0.046 H 
BRANCH  83  88
ATOM     88  O6  non d ame     -35.795  17.778  26.379  0.00  0.00    -0.369 OA
ATOM     89  H45 non d ame     -36.589  18.312  26.302  0.00  0.00     0.212 HD
ENDBRANCH  83  88
ENDBRANCH  72  75
ENDBRANCH  47  72
ENDBRANCH  45  47
ENDBRANCH   1  43
BRANCH   1  90
ATOM     90  C16 non d ame     -31.233  14.612  22.453  0.00  0.00    -0.035 C 
ATOM     91  H21 non d ame     -31.890  13.813  22.111  0.00  0.00     0.037 H 
ATOM     92  H22 non d ame     -31.634  15.610  22.626  0.00  0.00     0.037 H 
BRANCH  90  93
ATOM     93  C17 non d ame     -30.123  14.764  21.364  0.00  0.00    -0.059 C 
ATOM     94  H23 non d ame     -29.897  13.770  20.980  0.00  0.00     0.038 H 
BRANCH  93  95
ATOM     95  C18 non d ame     -30.593  15.645  20.163  0.00  0.00    -0.073 C 
ATOM     96  H24 non d ame     -31.672  15.552  20.044  0.00  0.00     0.028 H 
ATOM     97  H25 non d ame     -30.339  16.688  20.356  0.00  0.00     0.028 H 
ATOM     98  H26 non d ame     -30.097  15.313  19.252  0.00  0.00     0.028 H 
ENDBRANCH  93  95
BRANCH  93  99
ATOM     99  C19 non d ame     -28.833  15.319  21.974  0.00  0.00    -0.073 C 
ATOM    100  H27 non d ame     -28.245  14.500  22.390  0.00  0.00     0.028 H 
ATOM    101  H28 non d ame     -28.253  15.824  21.201  0.00  0.00     0.028 H 
ATOM    102  H29 non d ame     -29.079  16.029  22.763  0.00  0.00     0.028 H 
ENDBRANCH  93  99
ENDBRANCH  90  93
ENDBRANCH   1  90
TORSDOF 26
ENDMDL
MODEL 19
REMARK VINA RESULT:      -6.8      3.493      9.382
REMARK  26 active torsions:
REMARK  status: ('A' for Active; 'I' for Inactive)
REMARK    1  A    between atoms: C2_2  and  C3_3 
REMARK    2  A    between atoms: C4_6  and  C5_7 
REMARK       I    between atoms: C5_7  and  N2_9 
REMARK    3  A    between atoms: N2_9  and  C6_10 
REMARK    4  A    between atoms: C6_10  and  C7_11 
REMARK    5  A    between atoms: C6_10  and  C8_13 
REMARK       I    between atoms: C7_11  and  N3_14 
REMARK    6  A    between atoms: N3_14  and  C9_15 
REMARK    7  A    between atoms: C9_15  and  C10_16 
REMARK    8  A    between atoms: C9_15  and  C11_18 
REMARK       I    between atoms: C10_16  and  N4_21 
REMARK    9  A    between atoms: C11_18  and  C12_19 
REMARK   10  A    between atoms: C11_18  and  C13_20 
REMARK   11  A    between atoms: N4_21  and  C14_22 
REMARK   12  A    between atoms: C14_22  and  C15_23 
REMARK   13  A    between atoms: C14_22  and  C16_25 
REMARK       I    between atoms: C15_23  and  N6_40 
REMARK   14  A    between atoms: C16_25  and  C17_26 
REMARK   15  A    between atoms: C17_26  and  C18_27 
REMARK   16  A    between atoms: C17_26  and  C19_28 
REMARK   17  A    between atoms: C20_29  and  C21_30 
REMARK   18  A    between atoms: C20_29  and  C24_33 
REMARK   19  A    between atoms: C20_29  and  N6_40 
REMARK   20  A    between atoms: C21_30  and  C22_31 
REMARK   21  A    between atoms: C22_31  and  C23_32 
REMARK   22  A    between atoms: C23_32  and  O8_43 
REMARK   23  A    between atoms: C24_33  and  C25_34 
REMARK   24  A    between atoms: C28_38  and  O6_39 
REMARK   25  A    between atoms: C29_42  and  O8_43 
REMARK   26  A    between atoms: C29_42  and  C35_49 
ROOT
ATOM      1  C14 non d ame     -34.914   8.357  31.221  0.00  0.00     0.089 C 
ATOM      2  H20 non d ame     -34.517   8.467  32.231  0.00  0.00     0.087 H 
ENDROOT
BRANCH   1   3
ATOM      3  N4  non d ame     -34.026   9.078  30.321  0.00  0.00    -0.346 N 
ATOM      4  C10 non d ame     -33.457  10.416  30.723  0.00  0.00     0.241 C 
ATOM      5  O4  non d ame     -33.731  10.894  31.774  0.00  0.00    -0.271 OA
ATOM      6  H19 non d ame     -33.807   8.655  29.431  0.00  0.00     0.163 HD
BRANCH   4   7
ATOM      7  C9  non d ame     -32.535  11.146  29.782  0.00  0.00     0.092 C 
ATOM      8  H11 non d ame     -31.839  10.433  29.337  0.00  0.00     0.088 H 
BRANCH   7   9
ATOM      9  N3  non d ame     -33.315  11.730  28.688  0.00  0.00    -0.346 N 
ATOM     10  C7  non d ame     -33.279  11.131  27.376  0.00  0.00     0.240 C 
ATOM     11  O3  non d ame     -32.627  10.178  27.184  0.00  0.00    -0.271 OA
ATOM     12  H10 non d ame     -33.881  12.553  28.838  0.00  0.00     0.163 HD
BRANCH  10  13
ATOM     13  C6  non d ame     -34.110  11.760  26.215  0.00  0.00     0.086 C 
ATOM     14  H6  non d ame     -34.853  12.475  26.567  0.00  0.00     0.086 H 
BRANCH  13  15
ATOM     15  N2  non d ame     -33.212  12.492  25.337  0.00  0.00    -0.343 N 
ATOM     16  C5  non d ame     -32.808  13.855  25.692  0.00  0.00     0.273 C 
ATOM     17  O2  non d ame     -33.212  14.353  26.684  0.00  0.00    -0.266 OA
ATOM     18  H5  non d ame     -32.874  12.060  24.489  0.00  0.00     0.163 HD
BRANCH  16  19
ATOM     19  C4  non d ame     -31.858  14.639  24.774  0.00  0.00     0.154 A 
ATOM     20  C1  non d ame     -30.765  14.118  24.011  0.00  0.00    -0.017 A 
ATOM     21  C2  non d ame     -30.219  15.238  23.346  0.00  0.00     0.077 A 
ATOM     22  H1  non d ame     -30.420  13.086  23.951  0.00  0.00     0.091 H 
ATOM     23  O1  non d ame     -30.925  16.276  23.691  0.00  0.00    -0.218 OA
ATOM     24  N1  non d ame     -31.886  15.951  24.524  0.00  0.00    -0.123 NA
BRANCH  21  25
ATOM     25  C3  non d ame     -29.026  15.231  22.399  0.00  0.00    -0.029 C 
ATOM     26  H2  non d ame     -28.647  14.214  22.300  0.00  0.00     0.036 H 
ATOM     27  H3  non d ame     -29.337  15.599  21.421  0.00  0.00     0.036 H 
ATOM     28  H4  non d ame     -28.242  15.873  22.797  0.00  0.00     0.036 H 
ENDBRANCH  21  25
ENDBRANCH  16  19
ENDBRANCH  13  15
BRANCH  13  29
ATOM     29  C8  non d ame     -34.809  10.668  25.444  0.00  0.00    -0.049 C 
ATOM     30  H7  non d ame     -34.255   9.736  25.551  0.00  0.00     0.030 H 
ATOM     31  H8  non d ame     -35.818  10.537  25.836  0.00  0.00     0.030 H 
ATOM     32  H9  non d ame     -34.860  10.943  24.391  0.00  0.00     0.030 H 
ENDBRANCH  13  29
ENDBRANCH  10  13
ENDBRANCH   7   9
BRANCH   7  33
ATOM     33  C11 non d ame     -31.797  12.278  30.553  0.00  0.00    -0.033 C 
ATOM     34  H12 non d ame     -32.348  12.459  31.477  0.00  0.00     0.042 H 
BRANCH  33  35
ATOM     35  C12 non d ame     -30.349  11.850  30.946  0.00  0.00    -0.071 C 
ATOM     36  H13 non d ame     -29.975  12.509  31.730  0.00  0.00     0.028 H 
ATOM     37  H14 non d ame     -30.360  10.823  31.309  0.00  0.00     0.028 H 
ATOM     38  H15 non d ame     -29.699  11.921  30.073  0.00  0.00     0.028 H 
ENDBRANCH  33  35
BRANCH  33  39
ATOM     39  C13 non d ame     -31.791  13.605  29.728  0.00  0.00    -0.071 C 
ATOM     40  H16 non d ame     -30.769  13.850  29.439  0.00  0.00     0.028 H 
ATOM     41  H17 non d ame     -32.402  13.480  28.833  0.00  0.00     0.028 H 
ATOM     42  H18 non d ame     -32.201  14.412  30.335  0.00  0.00     0.028 H 
ENDBRANCH  33  39
ENDBRANCH   7  33
ENDBRANCH   4   7
ENDBRANCH   1   3
BRANCH   1  43
ATOM     43  C15 non d ame     -34.974   6.870  30.771  0.00  0.00     0.240 C 
ATOM     44  O5  non d ame     -35.443   6.052  31.494  0.00  0.00    -0.271 OA
ATOM     45  N6  non d ame     -34.455   6.466  29.433  0.00  0.00    -0.355 N 
ATOM     46  H46 non d ame     -34.059   7.153  28.808  0.00  0.00     0.162 HD
BRANCH  45  47
ATOM     47  C20 non d ame     -34.521   5.047  29.018  0.00  0.00     0.013 C 
ATOM     48  H30 non d ame     -34.828   4.459  29.884  0.00  0.00     0.072 H 
BRANCH  47  49
ATOM     49  C21 non d ame     -33.156   4.600  28.548  0.00  0.00    -0.038 C 
ATOM     50  H31 non d ame     -32.446   5.293  29.003  0.00  0.00     0.036 H 
ATOM     51  H32 non d ame     -33.100   3.536  28.774  0.00  0.00     0.036 H 
BRANCH  49  52
ATOM     52  C22 non d ame     -32.975   4.733  27.020  0.00  0.00     0.018 C 
ATOM     53  H33 non d ame     -32.349   3.893  26.723  0.00  0.00     0.048 H 
ATOM     54  H34 non d ame     -33.982   4.832  26.612  0.00  0.00     0.048 H 
BRANCH  52  55
ATOM     55  C23 non d ame     -32.209   6.013  26.588  0.00  0.00     0.259 C 
ATOM     56  O7  non d ame     -32.041   6.904  27.357  0.00  0.00    -0.265 OA
BRANCH  55  57
ATOM     57  O8  non d ame     -31.721   6.117  25.256  0.00  0.00    -0.317 OA
BRANCH  57  58
ATOM     58  C29 non d ame     -32.531   6.930  24.402  0.00  0.00     0.052 C 
ATOM     59  H47 non d ame     -32.915   6.259  23.634  0.00  0.00     0.082 H 
ATOM     60  H48 non d ame     -33.221   7.456  25.062  0.00  0.00     0.082 H 
BRANCH  58  61
ATOM     61  C35 non d ame     -31.609   7.978  23.721  0.00  0.00    -0.034 A 
ATOM     62  C30 non d ame     -31.824   9.336  23.932  0.00  0.00    -0.075 A 
ATOM     63  C31 non d ame     -30.996  10.277  23.320  0.00  0.00    -0.082 A 
ATOM     64  H49 non d ame     -32.641   9.664  24.575  0.00  0.00     0.084 H 
ATOM     65  C32 non d ame     -29.952   9.855  22.494  0.00  0.00    -0.083 A 
ATOM     66  H50 non d ame     -31.167  11.341  23.489  0.00  0.00     0.083 H 
ATOM     67  C33 non d ame     -29.743   8.498  22.284  0.00  0.00    -0.082 A 
ATOM     68  H51 non d ame     -29.300  10.584  22.013  0.00  0.00     0.083 H 
ATOM     69  C34 non d ame     -30.567   7.555  22.895  0.00  0.00    -0.075 A 
ATOM     70  H52 non d ame     -28.929   8.172  21.637  0.00  0.00     0.083 H 
ATOM     71  H53 non d ame     -30.396   6.491  22.726  0.00  0.00     0.084 H 
ENDBRANCH  58  61
ENDBRANCH  57  58
ENDBRANCH  55  57
ENDBRANCH  52  55
ENDBRANCH  49  52
ENDBRANCH  47  49
BRANCH  47  72
ATOM     72  C24 non d ame     -35.530   4.887  27.884  0.00  0.00    -0.039 C 
ATOM     73  H35 non d ame     -35.037   5.291  26.999  0.00  0.00     0.036 H 
ATOM     74  H36 non d ame     -35.830   3.840  27.909  0.00  0.00     0.036 H 
BRANCH  72  75
ATOM     75  C25 non d ame     -36.848   5.762  28.134  0.00  0.00    -0.001 C 
ATOM     76  C26 non d ame     -37.887   4.944  29.110  0.00  0.00    -0.035 C 
ATOM     77  C27 non d ame     -39.109   4.922  28.526  0.00  0.00     0.085 C 
ATOM     78  H38 non d ame     -37.607   3.891  29.155  0.00  0.00     0.036 H 
ATOM     79  H39 non d ame     -38.054   5.503  30.030  0.00  0.00     0.036 H 
ATOM     80  N5  non d ame     -38.922   5.364  27.095  0.00  0.00    -0.049 N 
ATOM     81  H40 non d ame     -39.419   3.876  28.538  0.00  0.00     0.075 H 
ATOM     82  H41 non d ame     -39.698   5.671  29.055  0.00  0.00     0.075 H 
ATOM     83  C28 non d ame     -37.452   6.026  27.022  0.00  0.00     0.193 C 
ATOM     84  H42 non d ame     -38.925   4.525  26.533  0.00  0.00     0.280 HD
ATOM     85  H43 non d ame     -39.609   6.086  26.927  0.00  0.00     0.280 HD
ATOM     86  H44 non d ame     -37.333   7.108  26.985  0.00  0.00     0.129 H 
ATOM     87  H37 non d ame     -36.615   6.791  28.409  0.00  0.00     0.046 H 
BRANCH  83  88
ATOM     88  O6  non d ame     -36.740   5.524  25.890  0.00  0.00    -0.369 OA
ATOM     89  H45 non d ame     -37.336   5.462  25.139  0.00  0.00     0.212 HD
ENDBRANCH  83  88
ENDBRANCH  72  75
ENDBRANCH  47  72
ENDBRANCH  45  47
ENDBRANCH   1  43
BRANCH   1  90
ATOM     90  C16 non d ame     -36.303   8.971  31.144  0.00  0.00    -0.035 C 
ATOM     91  H21 non d ame     -36.935   8.333  31.761  0.00  0.00     0.037 H 
ATOM     92  H22 non d ame     -36.169  10.021  31.405  0.00  0.00     0.037 H 
BRANCH  90  93
ATOM     93  C17 non d ame     -36.921   8.948  29.710  0.00  0.00    -0.059 C 
ATOM     94  H23 non d ame     -36.391   8.190  29.134  0.00  0.00     0.038 H 
BRANCH  93  95
ATOM     95  C18 non d ame     -38.435   8.563  29.727  0.00  0.00    -0.073 C 
ATOM     96  H24 non d ame     -38.647   7.960  30.610  0.00  0.00     0.028 H 
ATOM     97  H25 non d ame     -39.040   9.469  29.754  0.00  0.00     0.028 H 
ATOM     98  H26 non d ame     -38.675   7.992  28.831  0.00  0.00     0.028 H 
ENDBRANCH  93  95
BRANCH  93  99
ATOM     99  C19 non d ame     -36.708  10.288  29.002  0.00  0.00    -0.073 C 
ATOM    100  H27 non d ame     -36.210  10.120  28.046  0.00  0.00     0.028 H 
ATOM    101  H28 non d ame     -37.673  10.765  28.828  0.00  0.00     0.028 H 
ATOM    102  H29 non d ame     -36.092  10.935  29.625  0.00  0.00     0.028 H 
ENDBRANCH  93  99
ENDBRANCH  90  93
ENDBRANCH   1  90
TORSDOF 26
ENDMDL
MODEL 20
REMARK VINA RESULT:      -6.7      2.925      9.288
REMARK  26 active torsions:
REMARK  status: ('A' for Active; 'I' for Inactive)
REMARK    1  A    between atoms: C2_2  and  C3_3 
REMARK    2  A    between atoms: C4_6  and  C5_7 
REMARK       I    between atoms: C5_7  and  N2_9 
REMARK    3  A    between atoms: N2_9  and  C6_10 
REMARK    4  A    between atoms: C6_10  and  C7_11 
REMARK    5  A    between atoms: C6_10  and  C8_13 
REMARK       I    between atoms: C7_11  and  N3_14 
REMARK    6  A    between atoms: N3_14  and  C9_15 
REMARK    7  A    between atoms: C9_15  and  C10_16 
REMARK    8  A    between atoms: C9_15  and  C11_18 
REMARK       I    between atoms: C10_16  and  N4_21 
REMARK    9  A    between atoms: C11_18  and  C12_19 
REMARK   10  A    between atoms: C11_18  and  C13_20 
REMARK   11  A    between atoms: N4_21  and  C14_22 
REMARK   12  A    between atoms: C14_22  and  C15_23 
REMARK   13  A    between atoms: C14_22  and  C16_25 
REMARK       I    between atoms: C15_23  and  N6_40 
REMARK   14  A    between atoms: C16_25  and  C17_26 
REMARK   15  A    between atoms: C17_26  and  C18_27 
REMARK   16  A    between atoms: C17_26  and  C19_28 
REMARK   17  A    between atoms: C20_29  and  C21_30 
REMARK   18  A    between atoms: C20_29  and  C24_33 
REMARK   19  A    between atoms: C20_29  and  N6_40 
REMARK   20  A    between atoms: C21_30  and  C22_31 
REMARK   21  A    between atoms: C22_31  and  C23_32 
REMARK   22  A    between atoms: C23_32  and  O8_43 
REMARK   23  A    between atoms: C24_33  and  C25_34 
REMARK   24  A    between atoms: C28_38  and  O6_39 
REMARK   25  A    between atoms: C29_42  and  O8_43 
REMARK   26  A    between atoms: C29_42  and  C35_49 
ROOT
ATOM      1  C14 non d ame     -34.060   7.008  27.850  0.00  0.00     0.089 C 
ATOM      2  H20 non d ame     -33.725   6.528  28.770  0.00  0.00     0.087 H 
ENDROOT
BRANCH   1   3
ATOM      3  N4  non d ame     -34.373   8.393  28.168  0.00  0.00    -0.346 N 
ATOM      4  C10 non d ame     -34.852   8.769  29.548  0.00  0.00     0.241 C 
ATOM      5  O4  non d ame     -34.982   7.938  30.385  0.00  0.00    -0.271 OA
ATOM      6  H19 non d ame     -34.259   9.085  27.441  0.00  0.00     0.163 HD
BRANCH   4   7
ATOM      7  C9  non d ame     -35.166  10.208  29.861  0.00  0.00     0.092 C 
ATOM      8  H11 non d ame     -35.292  10.322  30.938  0.00  0.00     0.088 H 
BRANCH   7   9
ATOM      9  N3  non d ame     -34.036  11.052  29.465  0.00  0.00    -0.346 N 
ATOM     10  C7  non d ame     -32.978  11.330  30.406  0.00  0.00     0.240 C 
ATOM     11  O3  non d ame     -33.022  10.883  31.487  0.00  0.00    -0.271 OA
ATOM     12  H10 non d ame     -33.985  11.447  28.537  0.00  0.00     0.163 HD
BRANCH  10  13
ATOM     13  C6  non d ame     -31.779  12.232  29.979  0.00  0.00     0.086 C 
ATOM     14  H6  non d ame     -31.365  11.953  29.010  0.00  0.00     0.086 H 
BRANCH  13  15
ATOM     15  N2  non d ame     -32.243  13.604  29.853  0.00  0.00    -0.343 N 
ATOM     16  C5  non d ame     -31.616  14.490  28.869  0.00  0.00     0.273 C 
ATOM     17  O2  non d ame     -30.738  14.090  28.186  0.00  0.00    -0.266 OA
ATOM     18  H5  non d ame     -32.991  13.938  30.443  0.00  0.00     0.163 HD
BRANCH  16  19
ATOM     19  C4  non d ame     -32.098  15.941  28.724  0.00  0.00     0.154 A 
ATOM     20  C1  non d ame     -32.941  16.475  27.698  0.00  0.00    -0.017 A 
ATOM     21  C2  non d ame     -33.082  17.844  28.018  0.00  0.00     0.077 A 
ATOM     22  H1  non d ame     -33.381  15.950  26.850  0.00  0.00     0.091 H 
ATOM     23  O1  non d ame     -32.399  18.060  29.104  0.00  0.00    -0.218 OA
ATOM     24  N1  non d ame     -31.815  16.965  29.534  0.00  0.00    -0.123 NA
BRANCH  21  25
ATOM     25  C3  non d ame     -33.887  18.874  27.237  0.00  0.00    -0.029 C 
ATOM     26  H2  non d ame     -34.193  19.679  27.905  0.00  0.00     0.036 H 
ATOM     27  H3  non d ame     -33.274  19.282  26.434  0.00  0.00     0.036 H 
ATOM     28  H4  non d ame     -34.771  18.399  26.813  0.00  0.00     0.036 H 
ENDBRANCH  21  25
ENDBRANCH  16  19
ENDBRANCH  13  15
BRANCH  13  29
ATOM     29  C8  non d ame     -30.689  12.149  31.018  0.00  0.00    -0.049 C 
ATOM     30  H7  non d ame     -31.067  11.634  31.901  0.00  0.00     0.030 H 
ATOM     31  H8  non d ame     -29.841  11.597  30.611  0.00  0.00     0.030 H 
ATOM     32  H9  non d ame     -30.371  13.155  31.292  0.00  0.00     0.030 H 
ENDBRANCH  13  29
ENDBRANCH  10  13
ENDBRANCH   7   9
BRANCH   7  33
ATOM     33  C11 non d ame     -36.437  10.644  29.076  0.00  0.00    -0.033 C 
ATOM     34  H12 non d ame     -36.884  11.481  29.613  0.00  0.00     0.042 H 
BRANCH  33  35
ATOM     35  C12 non d ame     -36.077  11.145  27.642  0.00  0.00    -0.071 C 
ATOM     36  H13 non d ame     -35.145  10.682  27.319  0.00  0.00     0.028 H 
ATOM     37  H14 non d ame     -36.876  10.875  26.952  0.00  0.00     0.028 H 
ATOM     38  H15 non d ame     -35.958  12.229  27.655  0.00  0.00     0.028 H 
ENDBRANCH  33  35
BRANCH  33  39
ATOM     39  C13 non d ame     -37.487   9.488  29.024  0.00  0.00    -0.071 C 
ATOM     40  H16 non d ame     -37.317   8.805  29.857  0.00  0.00     0.028 H 
ATOM     41  H17 non d ame     -38.492   9.906  29.096  0.00  0.00     0.028 H 
ATOM     42  H18 non d ame     -37.386   8.948  28.084  0.00  0.00     0.028 H 
ENDBRANCH  33  39
ENDBRANCH   7  33
ENDBRANCH   4   7
ENDBRANCH   1   3
BRANCH   1  43
ATOM     43  C15 non d ame     -32.967   6.989  26.744  0.00  0.00     0.240 C 
ATOM     44  O5  non d ame     -31.958   6.385  26.921  0.00  0.00    -0.271 OA
ATOM     45  N6  non d ame     -33.180   7.715  25.460  0.00  0.00    -0.355 N 
ATOM     46  H46 non d ame     -34.035   8.227  25.297  0.00  0.00     0.162 HD
BRANCH  45  47
ATOM     47  C20 non d ame     -32.131   7.686  24.418  0.00  0.00     0.013 C 
ATOM     48  H30 non d ame     -31.244   7.222  24.848  0.00  0.00     0.072 H 
BRANCH  47  49
ATOM     49  C21 non d ame     -31.816   9.100  23.985  0.00  0.00    -0.038 C 
ATOM     50  H31 non d ame     -30.746   9.228  24.153  0.00  0.00     0.036 H 
ATOM     51  H32 non d ame     -32.226   9.199  22.981  0.00  0.00     0.036 H 
BRANCH  49  52
ATOM     52  C22 non d ame     -32.524  10.163  24.852  0.00  0.00     0.018 C 
ATOM     53  H33 non d ame     -33.019  10.834  24.151  0.00  0.00     0.048 H 
ATOM     54  H34 non d ame     -33.113   9.605  25.581  0.00  0.00     0.048 H 
BRANCH  52  55
ATOM     55  C23 non d ame     -31.550  11.049  25.677  0.00  0.00     0.259 C 
ATOM     56  O7  non d ame     -31.440  10.894  26.850  0.00  0.00    -0.265 OA
BRANCH  55  57
ATOM     57  O8  non d ame     -30.798  12.060  25.016  0.00  0.00    -0.317 OA
BRANCH  57  58
ATOM     58  C29 non d ame     -31.490  13.306  24.884  0.00  0.00     0.052 C 
ATOM     59  H47 non d ame     -32.537  13.046  24.731  0.00  0.00     0.082 H 
ATOM     60  H48 non d ame     -31.196  13.901  25.748  0.00  0.00     0.082 H 
BRANCH  58  61
ATOM     61  C35 non d ame     -30.968  14.010  23.602  0.00  0.00    -0.034 A 
ATOM     62  C30 non d ame     -31.442  15.272  23.259  0.00  0.00    -0.075 A 
ATOM     63  C31 non d ame     -30.973  15.905  22.108  0.00  0.00    -0.082 A 
ATOM     64  H49 non d ame     -32.180  15.766  23.891  0.00  0.00     0.084 H 
ATOM     65  C32 non d ame     -30.028  15.269  21.298  0.00  0.00    -0.083 A 
ATOM     66  H50 non d ame     -31.345  16.895  21.843  0.00  0.00     0.083 H 
ATOM     67  C33 non d ame     -29.561  14.008  21.643  0.00  0.00    -0.082 A 
ATOM     68  H51 non d ame     -29.656  15.757  20.397  0.00  0.00     0.083 H 
ATOM     69  C34 non d ame     -30.025  13.373  22.793  0.00  0.00    -0.075 A 
ATOM     70  H52 non d ame     -28.826  13.513  21.008  0.00  0.00     0.083 H 
ATOM     71  H53 non d ame     -29.652  12.383  23.058  0.00  0.00     0.084 H 
ENDBRANCH  58  61
ENDBRANCH  57  58
ENDBRANCH  55  57
ENDBRANCH  52  55
ENDBRANCH  49  52
ENDBRANCH  47  49
BRANCH  47  72
ATOM     72  C24 non d ame     -32.620   6.881  23.215  0.00  0.00    -0.039 C 
ATOM     73  H35 non d ame     -31.827   6.162  23.007  0.00  0.00     0.036 H 
ATOM     74  H36 non d ame     -33.615   6.531  23.486  0.00  0.00     0.036 H 
BRANCH  72  75
ATOM     75  C25 non d ame     -32.780   7.800  21.913  0.00  0.00    -0.001 C 
ATOM     76  C26 non d ame     -34.373   7.985  21.552  0.00  0.00    -0.035 C 
ATOM     77  C27 non d ame     -34.565   7.676  20.247  0.00  0.00     0.085 C 
ATOM     78  H38 non d ame     -34.966   7.239  22.081  0.00  0.00     0.036 H 
ATOM     79  H39 non d ame     -34.648   9.039  21.607  0.00  0.00     0.036 H 
ATOM     80  N5  non d ame     -33.312   6.982  19.770  0.00  0.00    -0.049 N 
ATOM     81  H40 non d ame     -35.391   6.965  20.235  0.00  0.00     0.075 H 
ATOM     82  H41 non d ame     -34.660   8.631  19.732  0.00  0.00     0.075 H 
ATOM     83  C28 non d ame     -32.188   7.272  20.893  0.00  0.00     0.193 C 
ATOM     84  H42 non d ame     -33.515   5.993  19.767  0.00  0.00     0.280 HD
ATOM     85  H43 non d ame     -33.038   7.444  18.914  0.00  0.00     0.280 HD
ATOM     86  H44 non d ame     -31.406   8.009  20.716  0.00  0.00     0.129 H 
ATOM     87  H37 non d ame     -32.175   8.704  21.968  0.00  0.00     0.046 H 
BRANCH  83  88
ATOM     88  O6  non d ame     -31.506   6.063  21.231  0.00  0.00    -0.369 OA
ATOM     89  H45 non d ame     -32.060   5.534  21.809  0.00  0.00     0.212 HD
ENDBRANCH  83  88
ENDBRANCH  72  75
ENDBRANCH  47  72
ENDBRANCH  45  47
ENDBRANCH   1  43
BRANCH   1  90
ATOM     90  C16 non d ame     -35.316   6.321  27.339  0.00  0.00    -0.035 C 
ATOM     91  H21 non d ame     -36.112   7.058  27.442  0.00  0.00     0.037 H 
ATOM     92  H22 non d ame     -35.055   5.937  26.353  0.00  0.00     0.037 H 
BRANCH  90  93
ATOM     93  C17 non d ame     -35.748   5.087  28.193  0.00  0.00    -0.059 C 
ATOM     94  H23 non d ame     -34.913   4.827  28.844  0.00  0.00     0.038 H 
BRANCH  93  95
ATOM     95  C18 non d ame     -36.981   5.400  29.099  0.00  0.00    -0.073 C 
ATOM     96  H24 non d ame     -36.915   6.425  29.462  0.00  0.00     0.028 H 
ATOM     97  H25 non d ame     -37.897   5.279  28.520  0.00  0.00     0.028 H 
ATOM     98  H26 non d ame     -36.994   4.714  29.946  0.00  0.00     0.028 H 
ENDBRANCH  93  95
BRANCH  93  99
ATOM     99  C19 non d ame     -36.022   3.874  27.300  0.00  0.00    -0.073 C 
ATOM    100  H27 non d ame     -36.451   3.070  27.900  0.00  0.00     0.028 H 
ATOM    101  H28 non d ame     -36.724   4.152  26.514  0.00  0.00     0.028 H 
ATOM    102  H29 non d ame     -35.090   3.535  26.850  0.00  0.00     0.028 H 
ENDBRANCH  93  99
ENDBRANCH  90  93
ENDBRANCH   1  90
TORSDOF 26
ENDMDL
