MODEL 1
REMARK VINA RESULT:      -7.3      0.000      0.000
REMARK  26 active torsions:
REMARK  status: ('A' for Active; 'I' for Inactive)
REMARK    1  A    between atoms: C2_2  and  C3_3 
REMARK    2  A    between atoms: C4_6  and  C5_7 
REMARK       I    between atoms: C5_7  and  N2_9 
REMARK    3  A    between atoms: N2_9  and  C6_10 
REMARK    4  A    between atoms: C6_10  and  C7_11 
REMARK    5  A    between atoms: C6_10  and  C8_13 
REMARK       I    between atoms: C7_11  and  N3_14 
REMARK    6  A    between atoms: N3_14  and  C9_15 
REMARK    7  A    between atoms: C9_15  and  C10_16 
REMARK    8  A    between atoms: C9_15  and  C11_18 
REMARK       I    between atoms: C10_16  and  N4_21 
REMARK    9  A    between atoms: C11_18  and  C12_19 
REMARK   10  A    between atoms: C11_18  and  C13_20 
REMARK   11  A    between atoms: N4_21  and  C14_22 
REMARK   12  A    between atoms: C14_22  and  C15_23 
REMARK   13  A    between atoms: C14_22  and  C16_25 
REMARK       I    between atoms: C15_23  and  N6_40 
REMARK   14  A    between atoms: C16_25  and  C17_26 
REMARK   15  A    between atoms: C17_26  and  C18_27 
REMARK   16  A    between atoms: C17_26  and  C19_28 
REMARK   17  A    between atoms: C20_29  and  C21_30 
REMARK   18  A    between atoms: C20_29  and  C24_33 
REMARK   19  A    between atoms: C20_29  and  N6_40 
REMARK   20  A    between atoms: C21_30  and  C22_31 
REMARK   21  A    between atoms: C22_31  and  C23_32 
REMARK   22  A    between atoms: C23_32  and  O8_43 
REMARK   23  A    between atoms: C24_33  and  C25_34 
REMARK   24  A    between atoms: C28_38  and  O6_39 
REMARK   25  A    between atoms: C29_42  and  O8_43 
REMARK   26  A    between atoms: C29_42  and  C35_49 
ROOT
ATOM      1  C14 non d ame     -32.940  10.500  25.693  0.00  0.00     0.089 C 
ATOM      2  H20 non d ame     -33.667  10.580  24.884  0.00  0.00     0.087 H 
ENDROOT
BRANCH   1   3
ATOM      3  N4  non d ame     -32.369   9.163  25.638  0.00  0.00    -0.346 N 
ATOM      4  C10 non d ame     -33.062   8.070  24.863  0.00  0.00     0.241 C 
ATOM      5  O4  non d ame     -34.080   8.289  24.295  0.00  0.00    -0.271 OA
ATOM      6  H19 non d ame     -31.503   8.996  26.130  0.00  0.00     0.163 HD
BRANCH   4   7
ATOM      7  C9  non d ame     -32.453   6.693  24.812  0.00  0.00     0.092 C 
ATOM      8  H11 non d ame     -31.393   6.760  25.059  0.00  0.00     0.088 H 
BRANCH   7   9
ATOM      9  N3  non d ame     -33.081   5.843  25.827  0.00  0.00    -0.346 N 
ATOM     10  C7  non d ame     -32.651   5.923  27.201  0.00  0.00     0.240 C 
ATOM     11  O3  non d ame     -31.799   6.665  27.508  0.00  0.00    -0.271 OA
ATOM     12  H10 non d ame     -33.815   5.196  25.578  0.00  0.00     0.163 HD
BRANCH  10  13
ATOM     13  C6  non d ame     -33.321   5.012  28.277  0.00  0.00     0.086 C 
ATOM     14  H6  non d ame     -32.697   4.873  29.159  0.00  0.00     0.086 H 
BRANCH  13  15
ATOM     15  N2  non d ame     -34.548   5.646  28.732  0.00  0.00    -0.343 N 
ATOM     16  C5  non d ame     -34.928   5.552  30.143  0.00  0.00     0.273 C 
ATOM     17  O2  non d ame     -34.241   4.963  30.904  0.00  0.00    -0.266 OA
ATOM     18  H5  non d ame     -35.130   6.144  28.074  0.00  0.00     0.163 HD
BRANCH  16  19
ATOM     19  C4  non d ame     -36.221   6.218  30.638  0.00  0.00     0.154 A 
ATOM     20  C1  non d ame     -36.499   7.620  30.710  0.00  0.00    -0.017 A 
ATOM     21  C2  non d ame     -37.811   7.704  31.228  0.00  0.00     0.077 A 
ATOM     22  H1  non d ame     -35.849   8.449  30.432  0.00  0.00     0.091 H 
ATOM     23  O1  non d ame     -38.229   6.487  31.423  0.00  0.00    -0.218 OA
ATOM     24  N1  non d ame     -37.318   5.603  31.087  0.00  0.00    -0.123 NA
BRANCH  21  25
ATOM     25  C3  non d ame     -38.591   8.983  31.504  0.00  0.00    -0.029 C 
ATOM     26  H2  non d ame     -38.337   9.732  30.753  0.00  0.00     0.036 H 
ATOM     27  H3  non d ame     -39.659   8.773  31.460  0.00  0.00     0.036 H 
ATOM     28  H4  non d ame     -38.334   9.359  32.493  0.00  0.00     0.036 H 
ENDBRANCH  21  25
ENDBRANCH  16  19
ENDBRANCH  13  15
BRANCH  13  29
ATOM     29  C8  non d ame     -33.628   3.663  27.677  0.00  0.00    -0.049 C 
ATOM     30  H7  non d ame     -33.386   2.882  28.397  0.00  0.00     0.030 H 
ATOM     31  H8  non d ame     -34.688   3.610  27.427  0.00  0.00     0.030 H 
ATOM     32  H9  non d ame     -33.034   3.523  26.774  0.00  0.00     0.030 H 
ENDBRANCH  13  29
ENDBRANCH  10  13
ENDBRANCH   7   9
BRANCH   7  33
ATOM     33  C11 non d ame     -32.686   6.075  23.403  0.00  0.00    -0.033 C 
ATOM     34  H12 non d ame     -33.507   6.621  22.937  0.00  0.00     0.042 H 
BRANCH  33  35
ATOM     35  C12 non d ame     -31.431   6.245  22.491  0.00  0.00    -0.071 C 
ATOM     36  H13 non d ame     -30.774   7.004  22.915  0.00  0.00     0.028 H 
ATOM     37  H14 non d ame     -30.898   5.297  22.428  0.00  0.00     0.028 H 
ATOM     38  H15 non d ame     -31.746   6.553  21.494  0.00  0.00     0.028 H 
ENDBRANCH  33  35
BRANCH  33  39
ATOM     39  C13 non d ame     -33.107   4.574  23.514  0.00  0.00    -0.071 C 
ATOM     40  H16 non d ame     -33.087   4.117  22.524  0.00  0.00     0.028 H 
ATOM     41  H17 non d ame     -32.413   4.049  24.172  0.00  0.00     0.028 H 
ATOM     42  H18 non d ame     -34.114   4.508  23.924  0.00  0.00     0.028 H 
ENDBRANCH  33  39
ENDBRANCH   7  33
ENDBRANCH   4   7
ENDBRANCH   1   3
BRANCH   1  43
ATOM     43  C15 non d ame     -31.789  11.537  25.552  0.00  0.00     0.240 C 
ATOM     44  O5  non d ame     -30.720  11.299  26.013  0.00  0.00    -0.271 OA
ATOM     45  N6  non d ame     -32.017  12.822  24.832  0.00  0.00    -0.355 N 
ATOM     46  H46 non d ame     -32.920  13.033  24.431  0.00  0.00     0.162 HD
BRANCH  45  47
ATOM     47  C20 non d ame     -30.912  13.797  24.705  0.00  0.00     0.013 C 
ATOM     48  H30 non d ame     -30.104  13.476  25.363  0.00  0.00     0.072 H 
BRANCH  47  49
ATOM     49  C21 non d ame     -31.403  15.166  25.120  0.00  0.00    -0.038 C 
ATOM     50  H31 non d ame     -31.051  15.308  26.143  0.00  0.00     0.036 H 
ATOM     51  H32 non d ame     -31.078  15.846  24.333  0.00  0.00     0.036 H 
BRANCH  49  52
ATOM     52  C22 non d ame     -32.942  15.261  25.171  0.00  0.00     0.018 C 
ATOM     53  H33 non d ame     -33.233  15.825  24.287  0.00  0.00     0.048 H 
ATOM     54  H34 non d ame     -33.296  14.237  25.305  0.00  0.00     0.048 H 
BRANCH  52  55
ATOM     55  C23 non d ame     -33.481  16.062  26.388  0.00  0.00     0.259 C 
ATOM     56  O7  non d ame     -34.259  16.946  26.232  0.00  0.00    -0.265 OA
BRANCH  55  57
ATOM     57  O8  non d ame     -33.021  15.737  27.695  0.00  0.00    -0.317 OA
BRANCH  57  58
ATOM     58  C29 non d ame     -33.685  14.613  28.281  0.00  0.00     0.052 C 
ATOM     59  H47 non d ame     -34.339  15.024  29.050  0.00  0.00     0.082 H 
ATOM     60  H48 non d ame     -34.107  14.051  27.448  0.00  0.00     0.082 H 
BRANCH  58  61
ATOM     61  C35 non d ame     -32.611  13.730  28.973  0.00  0.00    -0.034 A 
ATOM     62  C30 non d ame     -31.292  13.765  28.532  0.00  0.00    -0.075 A 
ATOM     63  C31 non d ame     -30.327  12.972  29.153  0.00  0.00    -0.082 A 
ATOM     64  H49 non d ame     -31.013  14.412  27.700  0.00  0.00     0.084 H 
ATOM     65  C32 non d ame     -30.686  12.140  30.217  0.00  0.00    -0.083 A 
ATOM     66  H50 non d ame     -29.294  13.002  28.805  0.00  0.00     0.083 H 
ATOM     67  C33 non d ame     -32.004  12.107  30.651  0.00  0.00    -0.082 A 
ATOM     68  H51 non d ame     -29.938  11.518  30.708  0.00  0.00     0.083 H 
ATOM     69  C34 non d ame     -32.971  12.899  30.035  0.00  0.00    -0.075 A 
ATOM     70  H52 non d ame     -32.282  11.456  31.480  0.00  0.00     0.083 H 
ATOM     71  H53 non d ame     -34.004  12.868  30.383  0.00  0.00     0.084 H 
ENDBRANCH  58  61
ENDBRANCH  57  58
ENDBRANCH  55  57
ENDBRANCH  52  55
ENDBRANCH  49  52
ENDBRANCH  47  49
BRANCH  47  72
ATOM     72  C24 non d ame     -30.429  13.845  23.257  0.00  0.00    -0.039 C 
ATOM     73  H35 non d ame     -29.462  13.341  23.257  0.00  0.00     0.036 H 
ATOM     74  H36 non d ame     -31.251  13.445  22.664  0.00  0.00     0.036 H 
BRANCH  72  75
ATOM     75  C25 non d ame     -30.179  15.349  22.764  0.00  0.00    -0.001 C 
ATOM     76  C26 non d ame     -31.265  15.742  21.594  0.00  0.00    -0.035 C 
ATOM     77  C27 non d ame     -30.596  16.243  20.529  0.00  0.00     0.085 C 
ATOM     78  H38 non d ame     -31.733  14.840  21.200  0.00  0.00     0.036 H 
ATOM     79  H39 non d ame     -31.883  16.578  21.923  0.00  0.00     0.036 H 
ATOM     80  N5  non d ame     -29.135  15.924  20.735  0.00  0.00    -0.049 N 
ATOM     81  H40 non d ame     -30.963  15.686  19.666  0.00  0.00     0.075 H 
ATOM     82  H41 non d ame     -30.734  17.323  20.579  0.00  0.00     0.075 H 
ATOM     83  C28 non d ame     -28.989  15.492  22.283  0.00  0.00     0.193 C 
ATOM     84  H42 non d ame     -28.932  15.121  20.156  0.00  0.00     0.280 HD
ATOM     85  H43 non d ame     -28.631  16.788  20.593  0.00  0.00     0.280 HD
ATOM     86  H44 non d ame     -28.562  16.179  23.012  0.00  0.00     0.129 H 
ATOM     87  H37 non d ame     -30.074  16.044  23.597  0.00  0.00     0.046 H 
BRANCH  83  88
ATOM     88  O6  non d ame     -28.217  14.294  22.390  0.00  0.00    -0.369 OA
ATOM     89  H45 non d ame     -28.570  13.631  21.793  0.00  0.00     0.212 HD
ENDBRANCH  83  88
ENDBRANCH  72  75
ENDBRANCH  47  72
ENDBRANCH  45  47
ENDBRANCH   1  43
BRANCH   1  90
ATOM     90  C16 non d ame     -33.636  10.688  27.031  0.00  0.00    -0.035 C 
ATOM     91  H21 non d ame     -32.886  11.128  27.688  0.00  0.00     0.037 H 
ATOM     92  H22 non d ame     -34.551  11.235  26.807  0.00  0.00     0.037 H 
BRANCH  90  93
ATOM     93  C17 non d ame     -34.076   9.348  27.702  0.00  0.00    -0.059 C 
ATOM     94  H23 non d ame     -33.570   8.535  27.182  0.00  0.00     0.038 H 
BRANCH  93  95
ATOM     95  C18 non d ame     -33.664   9.280  29.208  0.00  0.00    -0.073 C 
ATOM     96  H24 non d ame     -33.710   8.246  29.551  0.00  0.00     0.028 H 
ATOM     97  H25 non d ame     -32.647   9.654  29.323  0.00  0.00     0.028 H 
ATOM     98  H26 non d ame     -34.345   9.890  29.799  0.00  0.00     0.028 H 
ENDBRANCH  93  95
BRANCH  93  99
ATOM     99  C19 non d ame     -35.582   9.124  27.540  0.00  0.00    -0.073 C 
ATOM    100  H27 non d ame     -36.125   9.905  28.072  0.00  0.00     0.028 H 
ATOM    101  H28 non d ame     -35.843   9.159  26.482  0.00  0.00     0.028 H 
ATOM    102  H29 non d ame     -35.851   8.150  27.948  0.00  0.00     0.028 H 
ENDBRANCH  93  99
ENDBRANCH  90  93
ENDBRANCH   1  90
TORSDOF 26
ENDMDL
MODEL 2
REMARK VINA RESULT:      -7.1      2.436      5.161
REMARK  26 active torsions:
REMARK  status: ('A' for Active; 'I' for Inactive)
REMARK    1  A    between atoms: C2_2  and  C3_3 
REMARK    2  A    between atoms: C4_6  and  C5_7 
REMARK       I    between atoms: C5_7  and  N2_9 
REMARK    3  A    between atoms: N2_9  and  C6_10 
REMARK    4  A    between atoms: C6_10  and  C7_11 
REMARK    5  A    between atoms: C6_10  and  C8_13 
REMARK       I    between atoms: C7_11  and  N3_14 
REMARK    6  A    between atoms: N3_14  and  C9_15 
REMARK    7  A    between atoms: C9_15  and  C10_16 
REMARK    8  A    between atoms: C9_15  and  C11_18 
REMARK       I    between atoms: C10_16  and  N4_21 
REMARK    9  A    between atoms: C11_18  and  C12_19 
REMARK   10  A    between atoms: C11_18  and  C13_20 
REMARK   11  A    between atoms: N4_21  and  C14_22 
REMARK   12  A    between atoms: C14_22  and  C15_23 
REMARK   13  A    between atoms: C14_22  and  C16_25 
REMARK       I    between atoms: C15_23  and  N6_40 
REMARK   14  A    between atoms: C16_25  and  C17_26 
REMARK   15  A    between atoms: C17_26  and  C18_27 
REMARK   16  A    between atoms: C17_26  and  C19_28 
REMARK   17  A    between atoms: C20_29  and  C21_30 
REMARK   18  A    between atoms: C20_29  and  C24_33 
REMARK   19  A    between atoms: C20_29  and  N6_40 
REMARK   20  A    between atoms: C21_30  and  C22_31 
REMARK   21  A    between atoms: C22_31  and  C23_32 
REMARK   22  A    between atoms: C23_32  and  O8_43 
REMARK   23  A    between atoms: C24_33  and  C25_34 
REMARK   24  A    between atoms: C28_38  and  O6_39 
REMARK   25  A    between atoms: C29_42  and  O8_43 
REMARK   26  A    between atoms: C29_42  and  C35_49 
ROOT
ATOM      1  C14 non d ame     -32.459   9.436  24.609  0.00  0.00     0.089 C 
ATOM      2  H20 non d ame     -32.072   8.538  25.091  0.00  0.00     0.087 H 
ENDROOT
BRANCH   1   3
ATOM      3  N4  non d ame     -33.769   9.710  25.181  0.00  0.00    -0.346 N 
ATOM      4  C10 non d ame     -34.643   8.579  25.661  0.00  0.00     0.241 C 
ATOM      5  O4  non d ame     -34.272   7.455  25.574  0.00  0.00    -0.271 OA
ATOM      6  H19 non d ame     -34.067  10.674  25.245  0.00  0.00     0.163 HD
BRANCH   4   7
ATOM      7  C9  non d ame     -35.992   8.882  26.256  0.00  0.00     0.092 C 
ATOM      8  H11 non d ame     -36.517   7.946  26.452  0.00  0.00     0.088 H 
BRANCH   7   9
ATOM      9  N3  non d ame     -35.819   9.560  27.544  0.00  0.00    -0.346 N 
ATOM     10  C7  non d ame     -36.331   8.957  28.750  0.00  0.00     0.240 C 
ATOM     11  O3  non d ame     -36.886   7.928  28.702  0.00  0.00    -0.271 OA
ATOM     12  H10 non d ame     -35.343  10.449  27.601  0.00  0.00     0.163 HD
BRANCH  10  13
ATOM     13  C6  non d ame     -36.145   9.685  30.118  0.00  0.00     0.086 C 
ATOM     14  H6  non d ame     -35.864   9.006  30.922  0.00  0.00     0.086 H 
BRANCH  13  15
ATOM     15  N2  non d ame     -35.067  10.653  29.994  0.00  0.00    -0.343 N 
ATOM     16  C5  non d ame     -33.830  10.455  30.753  0.00  0.00     0.273 C 
ATOM     17  O2  non d ame     -33.713   9.516  31.461  0.00  0.00    -0.266 OA
ATOM     18  H5  non d ame     -35.178  11.454  29.390  0.00  0.00     0.163 HD
BRANCH  16  19
ATOM     19  C4  non d ame     -32.682  11.469  30.631  0.00  0.00     0.154 A 
ATOM     20  C1  non d ame     -32.725  12.751  29.998  0.00  0.00    -0.017 A 
ATOM     21  C2  non d ame     -31.424  13.280  30.159  0.00  0.00     0.077 A 
ATOM     22  H1  non d ame     -33.569  13.225  29.497  0.00  0.00     0.091 H 
ATOM     23  O1  non d ame     -30.726  12.397  30.812  0.00  0.00    -0.218 OA
ATOM     24  N1  non d ame     -31.438  11.332  31.097  0.00  0.00    -0.123 NA
BRANCH  21  25
ATOM     25  C3  non d ame     -30.933  14.633  29.662  0.00  0.00    -0.029 C 
ATOM     26  H2  non d ame     -31.748  15.153  29.158  0.00  0.00     0.036 H 
ATOM     27  H3  non d ame     -30.591  15.228  30.508  0.00  0.00     0.036 H 
ATOM     28  H4  non d ame     -30.110  14.487  28.963  0.00  0.00     0.036 H 
ENDBRANCH  21  25
ENDBRANCH  16  19
ENDBRANCH  13  15
BRANCH  13  29
ATOM     29  C8  non d ame     -37.427  10.385  30.496  0.00  0.00    -0.049 C 
ATOM     30  H7  non d ame     -37.321  10.828  31.485  0.00  0.00     0.030 H 
ATOM     31  H8  non d ame     -37.640  11.168  29.768  0.00  0.00     0.030 H 
ATOM     32  H9  non d ame     -38.245   9.665  30.505  0.00  0.00     0.030 H 
ENDBRANCH  13  29
ENDBRANCH  10  13
ENDBRANCH   7   9
BRANCH   7  33
ATOM     33  C11 non d ame     -36.789   9.806  25.289  0.00  0.00    -0.033 C 
ATOM     34  H12 non d ame     -36.163   9.982  24.414  0.00  0.00     0.042 H 
BRANCH  33  35
ATOM     35  C12 non d ame     -38.102   9.120  24.798  0.00  0.00    -0.071 C 
ATOM     36  H13 non d ame     -38.246   8.184  25.337  0.00  0.00     0.028 H 
ATOM     37  H14 non d ame     -38.948   9.780  24.984  0.00  0.00     0.028 H 
ATOM     38  H15 non d ame     -38.027   8.916  23.730  0.00  0.00     0.028 H 
ENDBRANCH  33  35
BRANCH  33  39
ATOM     39  C13 non d ame     -37.087  11.188  25.955  0.00  0.00    -0.071 C 
ATOM     40  H16 non d ame     -36.208  11.828  25.875  0.00  0.00     0.028 H 
ATOM     41  H17 non d ame     -37.930  11.661  25.450  0.00  0.00     0.028 H 
ATOM     42  H18 non d ame     -37.334  11.039  27.006  0.00  0.00     0.028 H 
ENDBRANCH  33  39
ENDBRANCH   7  33
ENDBRANCH   4   7
ENDBRANCH   1   3
BRANCH   1  43
ATOM     43  C15 non d ame     -31.545  10.672  24.848  0.00  0.00     0.240 C 
ATOM     44  O5  non d ame     -30.769  10.668  25.748  0.00  0.00    -0.271 OA
ATOM     45  N6  non d ame     -31.631  11.857  23.948  0.00  0.00    -0.355 N 
ATOM     46  H46 non d ame     -32.283  11.870  23.177  0.00  0.00     0.162 HD
BRANCH  45  47
ATOM     47  C20 non d ame     -30.753  13.024  24.187  0.00  0.00     0.013 C 
ATOM     48  H30 non d ame     -30.003  12.735  24.923  0.00  0.00     0.072 H 
BRANCH  47  49
ATOM     49  C21 non d ame     -31.582  14.172  24.718  0.00  0.00    -0.038 C 
ATOM     50  H31 non d ame     -30.952  15.058  24.625  0.00  0.00     0.036 H 
ATOM     51  H32 non d ame     -32.532  14.120  24.186  0.00  0.00     0.036 H 
BRANCH  49  52
ATOM     52  C22 non d ame     -31.913  14.028  26.219  0.00  0.00     0.018 C 
ATOM     53  H33 non d ame     -31.398  13.128  26.550  0.00  0.00     0.048 H 
ATOM     54  H34 non d ame     -31.669  14.992  26.668  0.00  0.00     0.048 H 
BRANCH  52  55
ATOM     55  C23 non d ame     -33.421  13.791  26.508  0.00  0.00     0.259 C 
ATOM     56  O7  non d ame     -33.936  12.760  26.219  0.00  0.00    -0.265 OA
BRANCH  55  57
ATOM     57  O8  non d ame     -34.187  14.828  27.111  0.00  0.00    -0.317 OA
BRANCH  57  58
ATOM     58  C29 non d ame     -34.591  15.856  26.201  0.00  0.00     0.052 C 
ATOM     59  H47 non d ame     -34.233  15.540  25.222  0.00  0.00     0.082 H 
ATOM     60  H48 non d ame     -35.658  15.998  26.372  0.00  0.00     0.082 H 
BRANCH  58  61
ATOM     61  C35 non d ame     -33.853  17.163  26.595  0.00  0.00    -0.034 A 
ATOM     62  C30 non d ame     -33.234  17.265  27.837  0.00  0.00    -0.075 A 
ATOM     63  C31 non d ame     -32.570  18.440  28.192  0.00  0.00    -0.082 A 
ATOM     64  H49 non d ame     -33.269  16.427  28.533  0.00  0.00     0.084 H 
ATOM     65  C32 non d ame     -32.529  19.515  27.300  0.00  0.00    -0.083 A 
ATOM     66  H50 non d ame     -32.086  18.517  29.165  0.00  0.00     0.083 H 
ATOM     67  C33 non d ame     -33.151  19.408  26.063  0.00  0.00    -0.082 A 
ATOM     68  H51 non d ame     -32.012  20.435  27.569  0.00  0.00     0.083 H 
ATOM     69  C34 non d ame     -33.813  18.236  25.704  0.00  0.00    -0.075 A 
ATOM     70  H52 non d ame     -33.119  20.249  25.369  0.00  0.00     0.083 H 
ATOM     71  H53 non d ame     -34.298  18.160  24.730  0.00  0.00     0.084 H 
ENDBRANCH  58  61
ENDBRANCH  57  58
ENDBRANCH  55  57
ENDBRANCH  52  55
ENDBRANCH  49  52
ENDBRANCH  47  49
BRANCH  47  72
ATOM     72  C24 non d ame     -30.081  13.442  22.881  0.00  0.00    -0.039 C 
ATOM     73  H35 non d ame     -29.021  13.226  23.019  0.00  0.00     0.036 H 
ATOM     74  H36 non d ame     -30.641  12.938  22.093  0.00  0.00     0.036 H 
BRANCH  72  75
ATOM     75  C25 non d ame     -30.215  15.017  22.622  0.00  0.00    -0.001 C 
ATOM     76  C26 non d ame     -31.130  15.288  21.284  0.00  0.00    -0.035 C 
ATOM     77  C27 non d ame     -30.459  16.127  20.459  0.00  0.00     0.085 C 
ATOM     78  H38 non d ame     -31.218  14.373  20.699  0.00  0.00     0.036 H 
ATOM     79  H39 non d ame     -32.023  15.854  21.550  0.00  0.00     0.036 H 
ATOM     80  N5  non d ame     -29.036  16.192  20.958  0.00  0.00    -0.049 N 
ATOM     81  H40 non d ame     -30.470  15.646  19.480  0.00  0.00     0.075 H 
ATOM     82  H41 non d ame     -30.926  17.103  20.592  0.00  0.00     0.075 H 
ATOM     83  C28 non d ame     -29.057  15.561  22.444  0.00  0.00     0.193 C 
ATOM     84  H42 non d ame     -28.493  15.587  20.359  0.00  0.00     0.280 HD
ATOM     85  H43 non d ame     -28.802  17.173  21.028  0.00  0.00     0.280 HD
ATOM     86  H44 non d ame     -29.004  16.206  23.320  0.00  0.00     0.129 H 
ATOM     87  H37 non d ame     -30.484  15.563  23.526  0.00  0.00     0.046 H 
BRANCH  83  88
ATOM     88  O6  non d ame     -27.991  14.622  22.596  0.00  0.00    -0.369 OA
ATOM     89  H45 non d ame     -28.270  13.913  23.179  0.00  0.00     0.212 HD
ENDBRANCH  83  88
ENDBRANCH  72  75
ENDBRANCH  47  72
ENDBRANCH  45  47
ENDBRANCH   1  43
BRANCH   1  90
ATOM     90  C16 non d ame     -32.611   9.194  23.116  0.00  0.00    -0.035 C 
ATOM     91  H21 non d ame     -33.612   8.782  22.990  0.00  0.00     0.037 H 
ATOM     92  H22 non d ame     -32.349  10.139  22.642  0.00  0.00     0.037 H 
BRANCH  90  93
ATOM     93  C17 non d ame     -31.622   8.126  22.550  0.00  0.00    -0.059 C 
ATOM     94  H23 non d ame     -32.094   7.663  21.683  0.00  0.00     0.038 H 
BRANCH  93  95
ATOM     95  C18 non d ame     -30.275   8.762  22.078  0.00  0.00    -0.073 C 
ATOM     96  H24 non d ame     -29.568   7.971  21.828  0.00  0.00     0.028 H 
ATOM     97  H25 non d ame     -30.454   9.378  21.196  0.00  0.00     0.028 H 
ATOM     98  H26 non d ame     -29.865   9.379  22.876  0.00  0.00     0.028 H 
ENDBRANCH  93  95
BRANCH  93  99
ATOM     99  C19 non d ame     -31.370   7.017  23.575  0.00  0.00    -0.073 C 
ATOM    100  H27 non d ame     -31.097   7.462  24.533  0.00  0.00     0.028 H 
ATOM    101  H28 non d ame     -32.274   6.422  23.698  0.00  0.00     0.028 H 
ATOM    102  H29 non d ame     -30.559   6.378  23.227  0.00  0.00     0.028 H 
ENDBRANCH  93  99
ENDBRANCH  90  93
ENDBRANCH   1  90
TORSDOF 26
ENDMDL
MODEL 3
REMARK VINA RESULT:      -7.0      2.112      4.832
REMARK  26 active torsions:
REMARK  status: ('A' for Active; 'I' for Inactive)
REMARK    1  A    between atoms: C2_2  and  C3_3 
REMARK    2  A    between atoms: C4_6  and  C5_7 
REMARK       I    between atoms: C5_7  and  N2_9 
REMARK    3  A    between atoms: N2_9  and  C6_10 
REMARK    4  A    between atoms: C6_10  and  C7_11 
REMARK    5  A    between atoms: C6_10  and  C8_13 
REMARK       I    between atoms: C7_11  and  N3_14 
REMARK    6  A    between atoms: N3_14  and  C9_15 
REMARK    7  A    between atoms: C9_15  and  C10_16 
REMARK    8  A    between atoms: C9_15  and  C11_18 
REMARK       I    between atoms: C10_16  and  N4_21 
REMARK    9  A    between atoms: C11_18  and  C12_19 
REMARK   10  A    between atoms: C11_18  and  C13_20 
REMARK   11  A    between atoms: N4_21  and  C14_22 
REMARK   12  A    between atoms: C14_22  and  C15_23 
REMARK   13  A    between atoms: C14_22  and  C16_25 
REMARK       I    between atoms: C15_23  and  N6_40 
REMARK   14  A    between atoms: C16_25  and  C17_26 
REMARK   15  A    between atoms: C17_26  and  C18_27 
REMARK   16  A    between atoms: C17_26  and  C19_28 
REMARK   17  A    between atoms: C20_29  and  C21_30 
REMARK   18  A    between atoms: C20_29  and  C24_33 
REMARK   19  A    between atoms: C20_29  and  N6_40 
REMARK   20  A    between atoms: C21_30  and  C22_31 
REMARK   21  A    between atoms: C22_31  and  C23_32 
REMARK   22  A    between atoms: C23_32  and  O8_43 
REMARK   23  A    between atoms: C24_33  and  C25_34 
REMARK   24  A    between atoms: C28_38  and  O6_39 
REMARK   25  A    between atoms: C29_42  and  O8_43 
REMARK   26  A    between atoms: C29_42  and  C35_49 
ROOT
ATOM      1  C14 non d ame     -32.842   9.953  25.601  0.00  0.00     0.089 C 
ATOM      2  H20 non d ame     -32.402   8.963  25.729  0.00  0.00     0.087 H 
ENDROOT
BRANCH   1   3
ATOM      3  N4  non d ame     -33.683  10.211  26.760  0.00  0.00    -0.346 N 
ATOM      4  C10 non d ame     -33.496   9.416  28.029  0.00  0.00     0.241 C 
ATOM      5  O4  non d ame     -32.666   8.572  28.091  0.00  0.00    -0.271 OA
ATOM      6  H19 non d ame     -34.385  10.933  26.686  0.00  0.00     0.163 HD
BRANCH   4   7
ATOM      7  C9  non d ame     -34.372   9.702  29.221  0.00  0.00     0.092 C 
ATOM      8  H11 non d ame     -35.207  10.330  28.910  0.00  0.00     0.088 H 
BRANCH   7   9
ATOM      9  N3  non d ame     -34.936   8.447  29.725  0.00  0.00    -0.346 N 
ATOM     10  C7  non d ame     -36.291   8.081  29.394  0.00  0.00     0.240 C 
ATOM     11  O3  non d ame     -36.942   8.786  28.723  0.00  0.00    -0.271 OA
ATOM     12  H10 non d ame     -34.387   7.830  30.306  0.00  0.00     0.163 HD
BRANCH  10  13
ATOM     13  C6  non d ame     -36.887   6.745  29.936  0.00  0.00     0.086 C 
ATOM     14  H6  non d ame     -37.332   6.133  29.152  0.00  0.00     0.086 H 
BRANCH  13  15
ATOM     15  N2  non d ame     -35.817   5.956  30.523  0.00  0.00    -0.343 N 
ATOM     16  C5  non d ame     -34.827   5.320  29.650  0.00  0.00     0.273 C 
ATOM     17  O2  non d ame     -34.902   5.449  28.478  0.00  0.00    -0.266 OA
ATOM     18  H5  non d ame     -35.763   5.848  31.526  0.00  0.00     0.163 HD
BRANCH  16  19
ATOM     19  C4  non d ame     -33.690   4.485  30.257  0.00  0.00     0.154 A 
ATOM     20  C1  non d ame     -33.502   4.152  31.635  0.00  0.00    -0.017 A 
ATOM     21  C2  non d ame     -32.322   3.376  31.665  0.00  0.00     0.077 A 
ATOM     22  H1  non d ame     -34.125   4.431  32.485  0.00  0.00     0.091 H 
ATOM     23  O1  non d ame     -31.892   3.278  30.440  0.00  0.00    -0.218 OA
ATOM     24  N1  non d ame     -32.674   3.917  29.601  0.00  0.00    -0.123 NA
BRANCH  21  25
ATOM     25  C3  non d ame     -31.674   2.765  32.901  0.00  0.00    -0.029 C 
ATOM     26  H2  non d ame     -30.945   3.463  33.312  0.00  0.00     0.036 H 
ATOM     27  H3  non d ame     -32.441   2.560  33.648  0.00  0.00     0.036 H 
ATOM     28  H4  non d ame     -31.174   1.837  32.629  0.00  0.00     0.036 H 
ENDBRANCH  21  25
ENDBRANCH  16  19
ENDBRANCH  13  15
BRANCH  13  29
ATOM     29  C8  non d ame     -37.937   7.046  30.976  0.00  0.00    -0.049 C 
ATOM     30  H7  non d ame     -37.573   7.824  31.646  0.00  0.00     0.030 H 
ATOM     31  H8  non d ame     -38.848   7.387  30.483  0.00  0.00     0.030 H 
ATOM     32  H9  non d ame     -38.150   6.143  31.549  0.00  0.00     0.030 H 
ENDBRANCH  13  29
ENDBRANCH  10  13
ENDBRANCH   7   9
BRANCH   7  33
ATOM     33  C11 non d ame     -33.522  10.372  30.339  0.00  0.00    -0.033 C 
ATOM     34  H12 non d ame     -32.752   9.660  30.638  0.00  0.00     0.042 H 
BRANCH  33  35
ATOM     35  C12 non d ame     -32.799  11.652  29.815  0.00  0.00    -0.071 C 
ATOM     36  H13 non d ame     -33.541  12.386  29.502  0.00  0.00     0.028 H 
ATOM     37  H14 non d ame     -32.185  12.073  30.610  0.00  0.00     0.028 H 
ATOM     38  H15 non d ame     -32.166  11.391  28.966  0.00  0.00     0.028 H 
ENDBRANCH  33  35
BRANCH  33  39
ATOM     39  C13 non d ame     -34.398  10.690  31.593  0.00  0.00    -0.071 C 
ATOM     40  H16 non d ame     -35.432  10.408  31.395  0.00  0.00     0.028 H 
ATOM     41  H17 non d ame     -34.025  10.127  32.450  0.00  0.00     0.028 H 
ATOM     42  H18 non d ame     -34.347  11.756  31.811  0.00  0.00     0.028 H 
ENDBRANCH  33  39
ENDBRANCH   7  33
ENDBRANCH   4   7
ENDBRANCH   1   3
BRANCH   1  43
ATOM     43  C15 non d ame     -31.763  11.068  25.513  0.00  0.00     0.240 C 
ATOM     44  O5  non d ame     -30.787  11.001  26.188  0.00  0.00    -0.271 OA
ATOM     45  N6  non d ame     -31.940  12.216  24.579  0.00  0.00    -0.355 N 
ATOM     46  H46 non d ame     -32.763  12.281  23.996  0.00  0.00     0.162 HD
BRANCH  45  47
ATOM     47  C20 non d ame     -30.903  13.269  24.505  0.00  0.00     0.013 C 
ATOM     48  H30 non d ame     -30.030  12.919  25.056  0.00  0.00     0.072 H 
BRANCH  47  49
ATOM     49  C21 non d ame     -31.435  14.539  25.131  0.00  0.00    -0.038 C 
ATOM     50  H31 non d ame     -30.654  15.287  24.988  0.00  0.00     0.036 H 
ATOM     51  H32 non d ame     -32.422  14.691  24.696  0.00  0.00     0.036 H 
BRANCH  49  52
ATOM     52  C22 non d ame     -31.643  14.413  26.656  0.00  0.00     0.018 C 
ATOM     53  H33 non d ame     -31.178  13.471  26.941  0.00  0.00     0.048 H 
ATOM     54  H34 non d ame     -31.281  15.351  27.081  0.00  0.00     0.048 H 
BRANCH  52  55
ATOM     55  C23 non d ame     -33.134  14.301  27.077  0.00  0.00     0.259 C 
ATOM     56  O7  non d ame     -33.740  13.295  26.891  0.00  0.00    -0.265 OA
BRANCH  55  57
ATOM     57  O8  non d ame     -33.776  15.421  27.676  0.00  0.00    -0.317 OA
BRANCH  57  58
ATOM     58  C29 non d ame     -32.879  16.323  28.330  0.00  0.00     0.052 C 
ATOM     59  H47 non d ame     -33.271  16.448  29.339  0.00  0.00     0.082 H 
ATOM     60  H48 non d ame     -31.882  15.911  28.178  0.00  0.00     0.082 H 
BRANCH  58  61
ATOM     61  C35 non d ame     -32.960  17.692  27.600  0.00  0.00    -0.034 A 
ATOM     62  C30 non d ame     -32.586  18.857  28.262  0.00  0.00    -0.075 A 
ATOM     63  C31 non d ame     -32.659  20.086  27.607  0.00  0.00    -0.082 A 
ATOM     64  H49 non d ame     -32.238  18.808  29.294  0.00  0.00     0.084 H 
ATOM     65  C32 non d ame     -33.110  20.146  26.286  0.00  0.00    -0.083 A 
ATOM     66  H50 non d ame     -32.365  20.997  28.128  0.00  0.00     0.083 H 
ATOM     67  C33 non d ame     -33.485  18.981  25.631  0.00  0.00    -0.082 A 
ATOM     68  H51 non d ame     -33.169  21.103  25.767  0.00  0.00     0.083 H 
ATOM     69  C34 non d ame     -33.411  17.751  26.281  0.00  0.00    -0.075 A 
ATOM     70  H52 non d ame     -33.838  19.032  24.600  0.00  0.00     0.083 H 
ATOM     71  H53 non d ame     -33.706  16.840  25.759  0.00  0.00     0.084 H 
ENDBRANCH  58  61
ENDBRANCH  57  58
ENDBRANCH  55  57
ENDBRANCH  52  55
ENDBRANCH  49  52
ENDBRANCH  47  49
BRANCH  47  72
ATOM     72  C24 non d ame     -30.539  13.534  23.046  0.00  0.00    -0.039 C 
ATOM     73  H35 non d ame     -29.602  12.999  22.880  0.00  0.00     0.036 H 
ATOM     74  H36 non d ame     -31.426  13.268  22.472  0.00  0.00     0.036 H 
BRANCH  72  75
ATOM     75  C25 non d ame     -30.250  15.087  22.779  0.00  0.00    -0.001 C 
ATOM     76  C26 non d ame     -31.311  15.669  21.666  0.00  0.00    -0.035 C 
ATOM     77  C27 non d ame     -30.616  16.304  20.691  0.00  0.00     0.085 C 
ATOM     78  H38 non d ame     -31.793  14.845  21.141  0.00  0.00     0.036 H 
ATOM     79  H39 non d ame     -31.915  16.463  22.106  0.00  0.00     0.036 H 
ATOM     80  N5  non d ame     -29.166  15.925  20.865  0.00  0.00    -0.049 N 
ATOM     81  H40 non d ame     -30.983  15.886  19.753  0.00  0.00     0.075 H 
ATOM     82  H41 non d ame     -30.732  17.368  20.896  0.00  0.00     0.075 H 
ATOM     83  C28 non d ame     -29.050  15.270  22.336  0.00  0.00     0.193 C 
ATOM     84  H42 non d ame     -28.972  15.210  20.179  0.00  0.00     0.280 HD
ATOM     85  H43 non d ame     -28.642  16.789  20.855  0.00  0.00     0.280 HD
ATOM     86  H44 non d ame     -28.619  15.835  23.162  0.00  0.00     0.129 H 
ATOM     87  H37 non d ame     -30.142  15.652  23.704  0.00  0.00     0.046 H 
BRANCH  83  88
ATOM     88  O6  non d ame     -28.305  14.052  22.277  0.00  0.00    -0.369 OA
ATOM     89  H45 non d ame     -28.873  13.318  22.520  0.00  0.00     0.212 HD
ENDBRANCH  83  88
ENDBRANCH  72  75
ENDBRANCH  47  72
ENDBRANCH  45  47
ENDBRANCH   1  43
BRANCH   1  90
ATOM     90  C16 non d ame     -33.704   9.975  24.349  0.00  0.00    -0.035 C 
ATOM     91  H21 non d ame     -34.733   9.996  24.706  0.00  0.00     0.037 H 
ATOM     92  H22 non d ame     -33.320  10.799  23.748  0.00  0.00     0.037 H 
BRANCH  90  93
ATOM     93  C17 non d ame     -33.570   8.689  23.472  0.00  0.00    -0.059 C 
ATOM     94  H23 non d ame     -34.540   8.498  23.013  0.00  0.00     0.038 H 
BRANCH  93  95
ATOM     95  C18 non d ame     -32.525   8.866  22.324  0.00  0.00    -0.073 C 
ATOM     96  H24 non d ame     -32.942   9.508  21.548  0.00  0.00     0.028 H 
ATOM     97  H25 non d ame     -31.620   9.323  22.724  0.00  0.00     0.028 H 
ATOM     98  H26 non d ame     -32.283   7.892  21.899  0.00  0.00     0.028 H 
ENDBRANCH  93  95
BRANCH  93  99
ATOM     99  C19 non d ame     -33.228   7.472  24.335  0.00  0.00    -0.073 C 
ATOM    100  H27 non d ame     -33.027   7.796  25.357  0.00  0.00     0.028 H 
ATOM    101  H28 non d ame     -34.069   6.778  24.335  0.00  0.00     0.028 H 
ATOM    102  H29 non d ame     -32.347   6.975  23.931  0.00  0.00     0.028 H 
ENDBRANCH  93  99
ENDBRANCH  90  93
ENDBRANCH   1  90
TORSDOF 26
ENDMDL
MODEL 4
REMARK VINA RESULT:      -6.8      3.761      8.462
REMARK  26 active torsions:
REMARK  status: ('A' for Active; 'I' for Inactive)
REMARK    1  A    between atoms: C2_2  and  C3_3 
REMARK    2  A    between atoms: C4_6  and  C5_7 
REMARK       I    between atoms: C5_7  and  N2_9 
REMARK    3  A    between atoms: N2_9  and  C6_10 
REMARK    4  A    between atoms: C6_10  and  C7_11 
REMARK    5  A    between atoms: C6_10  and  C8_13 
REMARK       I    between atoms: C7_11  and  N3_14 
REMARK    6  A    between atoms: N3_14  and  C9_15 
REMARK    7  A    between atoms: C9_15  and  C10_16 
REMARK    8  A    between atoms: C9_15  and  C11_18 
REMARK       I    between atoms: C10_16  and  N4_21 
REMARK    9  A    between atoms: C11_18  and  C12_19 
REMARK   10  A    between atoms: C11_18  and  C13_20 
REMARK   11  A    between atoms: N4_21  and  C14_22 
REMARK   12  A    between atoms: C14_22  and  C15_23 
REMARK   13  A    between atoms: C14_22  and  C16_25 
REMARK       I    between atoms: C15_23  and  N6_40 
REMARK   14  A    between atoms: C16_25  and  C17_26 
REMARK   15  A    between atoms: C17_26  and  C18_27 
REMARK   16  A    between atoms: C17_26  and  C19_28 
REMARK   17  A    between atoms: C20_29  and  C21_30 
REMARK   18  A    between atoms: C20_29  and  C24_33 
REMARK   19  A    between atoms: C20_29  and  N6_40 
REMARK   20  A    between atoms: C21_30  and  C22_31 
REMARK   21  A    between atoms: C22_31  and  C23_32 
REMARK   22  A    between atoms: C23_32  and  O8_43 
REMARK   23  A    between atoms: C24_33  and  C25_34 
REMARK   24  A    between atoms: C28_38  and  O6_39 
REMARK   25  A    between atoms: C29_42  and  O8_43 
REMARK   26  A    between atoms: C29_42  and  C35_49 
ROOT
ATOM      1  C14 non d ame     -36.616  16.090  26.712  0.00  0.00     0.089 C 
ATOM      2  H20 non d ame     -37.143  16.544  27.551  0.00  0.00     0.087 H 
ENDROOT
BRANCH   1   3
ATOM      3  N4  non d ame     -35.190  16.258  26.948  0.00  0.00    -0.346 N 
ATOM      4  C10 non d ame     -34.700  17.236  27.987  0.00  0.00     0.241 C 
ATOM      5  O4  non d ame     -35.472  17.879  28.617  0.00  0.00    -0.271 OA
ATOM      6  H19 non d ame     -34.549  15.702  26.400  0.00  0.00     0.163 HD
BRANCH   4   7
ATOM      7  C9  non d ame     -33.220  17.392  28.222  0.00  0.00     0.092 C 
ATOM      8  H11 non d ame     -33.061  17.955  29.142  0.00  0.00     0.088 H 
BRANCH   7   9
ATOM      9  N3  non d ame     -32.613  16.072  28.411  0.00  0.00    -0.346 N 
ATOM     10  C7  non d ame     -31.715  15.843  29.516  0.00  0.00     0.240 C 
ATOM     11  O3  non d ame     -31.469  16.711  30.262  0.00  0.00    -0.271 OA
ATOM     12  H10 non d ame     -32.814  15.314  27.775  0.00  0.00     0.163 HD
BRANCH  10  13
ATOM     13  C6  non d ame     -31.069  14.436  29.711  0.00  0.00     0.086 C 
ATOM     14  H6  non d ame     -30.431  14.384  30.593  0.00  0.00     0.086 H 
BRANCH  13  15
ATOM     15  N2  non d ame     -32.125  13.456  29.903  0.00  0.00    -0.343 N 
ATOM     16  C5  non d ame     -31.832  12.212  30.620  0.00  0.00     0.273 C 
ATOM     17  O2  non d ame     -30.745  12.009  31.035  0.00  0.00    -0.266 OA
ATOM     18  H5  non d ame     -33.050  13.636  29.541  0.00  0.00     0.163 HD
BRANCH  16  19
ATOM     19  C4  non d ame     -32.939  11.167  30.831  0.00  0.00     0.154 A 
ATOM     20  C1  non d ame     -33.329  10.126  29.931  0.00  0.00    -0.017 A 
ATOM     21  C2  non d ame     -34.380   9.450  30.589  0.00  0.00     0.077 A 
ATOM     22  H1  non d ame     -32.915   9.897  28.949  0.00  0.00     0.091 H 
ATOM     23  O1  non d ame     -34.562  10.040  31.735  0.00  0.00    -0.218 OA
ATOM     24  N1  non d ame     -33.734  11.046  31.898  0.00  0.00    -0.123 NA
BRANCH  21  25
ATOM     25  C3  non d ame     -35.155   8.252  30.058  0.00  0.00    -0.029 C 
ATOM     26  H2  non d ame     -35.498   8.461  29.044  0.00  0.00     0.036 H 
ATOM     27  H3  non d ame     -34.506   7.376  30.046  0.00  0.00     0.036 H 
ATOM     28  H4  non d ame     -36.014   8.060  30.699  0.00  0.00     0.036 H 
ENDBRANCH  21  25
ENDBRANCH  16  19
ENDBRANCH  13  15
BRANCH  13  29
ATOM     29  C8  non d ame     -30.251  14.083  28.494  0.00  0.00    -0.049 C 
ATOM     30  H7  non d ame     -30.519  14.745  27.671  0.00  0.00     0.030 H 
ATOM     31  H8  non d ame     -29.192  14.200  28.723  0.00  0.00     0.030 H 
ATOM     32  H9  non d ame     -30.450  13.050  28.210  0.00  0.00     0.030 H 
ENDBRANCH  13  29
ENDBRANCH  10  13
ENDBRANCH   7   9
BRANCH   7  33
ATOM     33  C11 non d ame     -32.570  18.088  26.991  0.00  0.00    -0.033 C 
ATOM     34  H12 non d ame     -31.525  18.278  27.235  0.00  0.00     0.042 H 
BRANCH  33  35
ATOM     35  C12 non d ame     -32.598  17.163  25.734  0.00  0.00    -0.071 C 
ATOM     36  H13 non d ame     -32.855  17.753  24.854  0.00  0.00     0.028 H 
ATOM     37  H14 non d ame     -31.616  16.712  25.594  0.00  0.00     0.028 H 
ATOM     38  H15 non d ame     -33.342  16.379  25.875  0.00  0.00     0.028 H 
ENDBRANCH  33  35
BRANCH  33  39
ATOM     39  C13 non d ame     -33.255  19.461  26.698  0.00  0.00    -0.071 C 
ATOM     40  H16 non d ame     -33.374  20.015  27.630  0.00  0.00     0.028 H 
ATOM     41  H17 non d ame     -32.637  20.037  26.009  0.00  0.00     0.028 H 
ATOM     42  H18 non d ame     -34.234  19.291  26.249  0.00  0.00     0.028 H 
ENDBRANCH  33  39
ENDBRANCH   7  33
ENDBRANCH   4   7
ENDBRANCH   1   3
BRANCH   1  43
ATOM     43  C15 non d ame     -36.921  14.571  26.578  0.00  0.00     0.240 C 
ATOM     44  O5  non d ame     -38.042  14.184  26.655  0.00  0.00    -0.271 OA
ATOM     45  N6  non d ame     -35.816  13.598  26.344  0.00  0.00    -0.355 N 
ATOM     46  H46 non d ame     -34.860  13.916  26.272  0.00  0.00     0.162 HD
BRANCH  45  47
ATOM     47  C20 non d ame     -36.121  12.156  26.217  0.00  0.00     0.013 C 
ATOM     48  H30 non d ame     -37.035  11.957  26.778  0.00  0.00     0.072 H 
BRANCH  47  49
ATOM     49  C21 non d ame     -34.978  11.351  26.790  0.00  0.00    -0.038 C 
ATOM     50  H31 non d ame     -34.669  11.879  27.694  0.00  0.00     0.036 H 
ATOM     51  H32 non d ame     -35.343  10.326  26.856  0.00  0.00     0.036 H 
BRANCH  49  52
ATOM     52  C22 non d ame     -33.744  11.316  25.862  0.00  0.00     0.018 C 
ATOM     53  H33 non d ame     -33.285  10.341  26.018  0.00  0.00     0.048 H 
ATOM     54  H34 non d ame     -34.112  11.593  24.873  0.00  0.00     0.048 H 
BRANCH  52  55
ATOM     55  C23 non d ame     -32.658  12.366  26.224  0.00  0.00     0.259 C 
ATOM     56  O7  non d ame     -32.929  13.307  26.898  0.00  0.00    -0.265 OA
BRANCH  55  57
ATOM     57  O8  non d ame     -31.335  12.199  25.728  0.00  0.00    -0.317 OA
BRANCH  57  58
ATOM     58  C29 non d ame     -31.273  11.876  24.336  0.00  0.00     0.052 C 
ATOM     59  H47 non d ame     -30.618  11.008  24.264  0.00  0.00     0.082 H 
ATOM     60  H48 non d ame     -32.308  11.809  24.002  0.00  0.00     0.082 H 
BRANCH  58  61
ATOM     61  C35 non d ame     -30.596  13.063  23.598  0.00  0.00    -0.034 A 
ATOM     62  C30 non d ame     -30.723  14.356  24.097  0.00  0.00    -0.075 A 
ATOM     63  C31 non d ame     -30.115  15.422  23.434  0.00  0.00    -0.082 A 
ATOM     64  H49 non d ame     -31.298  14.534  25.005  0.00  0.00     0.084 H 
ATOM     65  C32 non d ame     -29.381  15.192  22.268  0.00  0.00    -0.083 A 
ATOM     66  H50 non d ame     -30.216  16.434  23.828  0.00  0.00     0.083 H 
ATOM     67  C33 non d ame     -29.260  13.901  21.773  0.00  0.00    -0.082 A 
ATOM     68  H51 non d ame     -28.903  16.020  21.745  0.00  0.00     0.083 H 
ATOM     69  C34 non d ame     -29.864  12.832  22.433  0.00  0.00    -0.075 A 
ATOM     70  H52 non d ame     -28.688  13.724  20.861  0.00  0.00     0.083 H 
ATOM     71  H53 non d ame     -29.763  11.821  22.038  0.00  0.00     0.084 H 
ENDBRANCH  58  61
ENDBRANCH  57  58
ENDBRANCH  55  57
ENDBRANCH  52  55
ENDBRANCH  49  52
ENDBRANCH  47  49
BRANCH  47  72
ATOM     72  C24 non d ame     -36.313  11.796  24.746  0.00  0.00    -0.039 C 
ATOM     73  H35 non d ame     -36.293  12.746  24.210  0.00  0.00     0.036 H 
ATOM     74  H36 non d ame     -35.562  11.036  24.534  0.00  0.00     0.036 H 
BRANCH  72  75
ATOM     75  C25 non d ame     -37.746  11.132  24.480  0.00  0.00    -0.001 C 
ATOM     76  C26 non d ame     -38.425  10.678  25.906  0.00  0.00    -0.035 C 
ATOM     77  C27 non d ame     -38.817   9.384  25.810  0.00  0.00     0.085 C 
ATOM     78  H38 non d ame     -37.669  10.657  26.691  0.00  0.00     0.036 H 
ATOM     79  H39 non d ame     -39.360  11.216  26.063  0.00  0.00     0.036 H 
ATOM     80  N5  non d ame     -38.174   8.819  24.568  0.00  0.00    -0.049 N 
ATOM     81  H40 non d ame     -38.398   8.887  26.685  0.00  0.00     0.075 H 
ATOM     82  H41 non d ame     -39.897   9.417  25.667  0.00  0.00     0.075 H 
ATOM     83  C28 non d ame     -37.646  10.090  23.723  0.00  0.00     0.193 C 
ATOM     84  H42 non d ame     -37.375   8.284  24.876  0.00  0.00     0.280 HD
ATOM     85  H43 non d ame     -38.911   8.369  24.043  0.00  0.00     0.280 HD
ATOM     86  H44 non d ame     -38.186  10.433  22.842  0.00  0.00     0.129 H 
ATOM     87  H37 non d ame     -38.360  11.730  23.806  0.00  0.00     0.046 H 
BRANCH  83  88
ATOM     88  O6  non d ame     -36.303   9.868  23.286  0.00  0.00    -0.369 OA
ATOM     89  H45 non d ame     -36.297   9.706  22.340  0.00  0.00     0.212 HD
ENDBRANCH  83  88
ENDBRANCH  72  75
ENDBRANCH  47  72
ENDBRANCH  45  47
ENDBRANCH   1  43
BRANCH   1  90
ATOM     90  C16 non d ame     -36.992  16.802  25.422  0.00  0.00    -0.035 C 
ATOM     91  H21 non d ame     -36.076  16.836  24.833  0.00  0.00     0.037 H 
ATOM     92  H22 non d ame     -37.864  16.271  25.043  0.00  0.00     0.037 H 
BRANCH  90  93
ATOM     93  C17 non d ame     -37.434  18.285  25.631  0.00  0.00    -0.059 C 
ATOM     94  H23 non d ame     -37.438  18.482  26.703  0.00  0.00     0.038 H 
BRANCH  93  95
ATOM     95  C18 non d ame     -36.446  19.295  24.964  0.00  0.00    -0.073 C 
ATOM     96  H24 non d ame     -35.689  18.746  24.404  0.00  0.00     0.028 H 
ATOM     97  H25 non d ame     -36.997  19.946  24.285  0.00  0.00     0.028 H 
ATOM     98  H26 non d ame     -35.965  19.896  25.734  0.00  0.00     0.028 H 
ENDBRANCH  93  95
BRANCH  93  99
ATOM     99  C19 non d ame     -38.862  18.506  25.125  0.00  0.00    -0.073 C 
ATOM    100  H27 non d ame     -39.519  17.741  25.542  0.00  0.00     0.028 H 
ATOM    101  H28 non d ame     -39.211  19.491  25.436  0.00  0.00     0.028 H 
ATOM    102  H29 non d ame     -38.876  18.444  24.037  0.00  0.00     0.028 H 
ENDBRANCH  93  99
ENDBRANCH  90  93
ENDBRANCH   1  90
TORSDOF 26
ENDMDL
MODEL 5
REMARK VINA RESULT:      -6.8      2.581      7.866
REMARK  26 active torsions:
REMARK  status: ('A' for Active; 'I' for Inactive)
REMARK    1  A    between atoms: C2_2  and  C3_3 
REMARK    2  A    between atoms: C4_6  and  C5_7 
REMARK       I    between atoms: C5_7  and  N2_9 
REMARK    3  A    between atoms: N2_9  and  C6_10 
REMARK    4  A    between atoms: C6_10  and  C7_11 
REMARK    5  A    between atoms: C6_10  and  C8_13 
REMARK       I    between atoms: C7_11  and  N3_14 
REMARK    6  A    between atoms: N3_14  and  C9_15 
REMARK    7  A    between atoms: C9_15  and  C10_16 
REMARK    8  A    between atoms: C9_15  and  C11_18 
REMARK       I    between atoms: C10_16  and  N4_21 
REMARK    9  A    between atoms: C11_18  and  C12_19 
REMARK   10  A    between atoms: C11_18  and  C13_20 
REMARK   11  A    between atoms: N4_21  and  C14_22 
REMARK   12  A    between atoms: C14_22  and  C15_23 
REMARK   13  A    between atoms: C14_22  and  C16_25 
REMARK       I    between atoms: C15_23  and  N6_40 
REMARK   14  A    between atoms: C16_25  and  C17_26 
REMARK   15  A    between atoms: C17_26  and  C18_27 
REMARK   16  A    between atoms: C17_26  and  C19_28 
REMARK   17  A    between atoms: C20_29  and  C21_30 
REMARK   18  A    between atoms: C20_29  and  C24_33 
REMARK   19  A    between atoms: C20_29  and  N6_40 
REMARK   20  A    between atoms: C21_30  and  C22_31 
REMARK   21  A    between atoms: C22_31  and  C23_32 
REMARK   22  A    between atoms: C23_32  and  O8_43 
REMARK   23  A    between atoms: C24_33  and  C25_34 
REMARK   24  A    between atoms: C28_38  and  O6_39 
REMARK   25  A    between atoms: C29_42  and  O8_43 
REMARK   26  A    between atoms: C29_42  and  C35_49 
ROOT
ATOM      1  C14 non d ame     -33.597   6.718  27.424  0.00  0.00     0.089 C 
ATOM      2  H20 non d ame     -32.986   6.305  28.228  0.00  0.00     0.087 H 
ENDROOT
BRANCH   1   3
ATOM      3  N4  non d ame     -33.978   8.067  27.814  0.00  0.00    -0.346 N 
ATOM      4  C10 non d ame     -34.571   8.329  29.176  0.00  0.00     0.241 C 
ATOM      5  O4  non d ame     -34.735   7.437  29.940  0.00  0.00    -0.271 OA
ATOM      6  H19 non d ame     -33.833   8.813  27.148  0.00  0.00     0.163 HD
BRANCH   4   7
ATOM      7  C9  non d ame     -34.954   9.733  29.564  0.00  0.00     0.092 C 
ATOM      8  H11 non d ame     -35.073   9.786  30.646  0.00  0.00     0.088 H 
BRANCH   7   9
ATOM      9  N3  non d ame     -33.873  10.653  29.200  0.00  0.00    -0.346 N 
ATOM     10  C7  non d ame     -32.876  11.016  30.177  0.00  0.00     0.240 C 
ATOM     11  O3  non d ame     -32.930  10.578  31.261  0.00  0.00    -0.271 OA
ATOM     12  H10 non d ame     -33.815  11.040  28.270  0.00  0.00     0.163 HD
BRANCH  10  13
ATOM     13  C6  non d ame     -31.730  11.999  29.785  0.00  0.00     0.086 C 
ATOM     14  H6  non d ame     -31.198  11.690  28.885  0.00  0.00     0.086 H 
BRANCH  13  15
ATOM     15  N2  non d ame     -32.305  13.304  29.499  0.00  0.00    -0.343 N 
ATOM     16  C5  non d ame     -31.555  14.259  28.679  0.00  0.00     0.273 C 
ATOM     17  O2  non d ame     -30.491  13.968  28.256  0.00  0.00    -0.266 OA
ATOM     18  H5  non d ame     -33.213  13.544  29.869  0.00  0.00     0.163 HD
BRANCH  16  19
ATOM     19  C4  non d ame     -32.152  15.640  28.369  0.00  0.00     0.154 A 
ATOM     20  C1  non d ame     -32.512  16.158  27.084  0.00  0.00    -0.017 A 
ATOM     21  C2  non d ame     -33.008  17.456  27.341  0.00  0.00     0.077 A 
ATOM     22  H1  non d ame     -32.426  15.668  26.115  0.00  0.00     0.091 H 
ATOM     23  O1  non d ame     -32.939  17.649  28.626  0.00  0.00    -0.218 OA
ATOM     24  N1  non d ame     -32.442  16.604  29.246  0.00  0.00    -0.123 NA
BRANCH  21  25
ATOM     25  C3  non d ame     -33.529  18.443  26.306  0.00  0.00    -0.029 C 
ATOM     26  H2  non d ame     -34.351  19.018  26.732  0.00  0.00     0.036 H 
ATOM     27  H3  non d ame     -32.726  19.121  26.014  0.00  0.00     0.036 H 
ATOM     28  H4  non d ame     -33.882  17.900  25.430  0.00  0.00     0.036 H 
ENDBRANCH  21  25
ENDBRANCH  16  19
ENDBRANCH  13  15
BRANCH  13  29
ATOM     29  C8  non d ame     -30.745  12.106  30.921  0.00  0.00    -0.049 C 
ATOM     30  H7  non d ame     -29.733  11.984  30.538  0.00  0.00     0.030 H 
ATOM     31  H8  non d ame     -30.839  13.086  31.392  0.00  0.00     0.030 H 
ATOM     32  H9  non d ame     -30.952  11.329  31.656  0.00  0.00     0.030 H 
ENDBRANCH  13  29
ENDBRANCH  10  13
ENDBRANCH   7   9
BRANCH   7  33
ATOM     33  C11 non d ame     -36.255  10.141  28.813  0.00  0.00    -0.033 C 
ATOM     34  H12 non d ame     -36.795  10.842  29.450  0.00  0.00     0.042 H 
BRANCH  33  35
ATOM     35  C12 non d ame     -35.933  10.875  27.474  0.00  0.00    -0.071 C 
ATOM     36  H13 non d ame     -36.305  11.899  27.523  0.00  0.00     0.028 H 
ATOM     37  H14 non d ame     -34.855  10.887  27.317  0.00  0.00     0.028 H 
ATOM     38  H15 non d ame     -36.416  10.353  26.648  0.00  0.00     0.028 H 
ENDBRANCH  33  35
BRANCH  33  39
ATOM     39  C13 non d ame     -37.174   8.901  28.572  0.00  0.00    -0.071 C 
ATOM     40  H16 non d ame     -38.165   9.097  28.982  0.00  0.00     0.028 H 
ATOM     41  H17 non d ame     -37.255   8.710  27.501  0.00  0.00     0.028 H 
ATOM     42  H18 non d ame     -36.743   8.028  29.062  0.00  0.00     0.028 H 
ENDBRANCH  33  39
ENDBRANCH   7  33
ENDBRANCH   4   7
ENDBRANCH   1   3
BRANCH   1  43
ATOM     43  C15 non d ame     -32.824   6.791  26.077  0.00  0.00     0.240 C 
ATOM     44  O5  non d ame     -31.857   6.119  25.914  0.00  0.00    -0.271 OA
ATOM     45  N6  non d ame     -33.294   7.691  24.986  0.00  0.00    -0.355 N 
ATOM     46  H46 non d ame     -34.117   8.262  25.112  0.00  0.00     0.162 HD
BRANCH  45  47
ATOM     47  C20 non d ame     -32.549   7.748  23.709  0.00  0.00     0.013 C 
ATOM     48  H30 non d ame     -31.891   6.879  23.666  0.00  0.00     0.072 H 
BRANCH  47  49
ATOM     49  C21 non d ame     -31.731   9.018  23.664  0.00  0.00    -0.038 C 
ATOM     50  H31 non d ame     -30.837   8.815  24.257  0.00  0.00     0.036 H 
ATOM     51  H32 non d ame     -31.638   9.271  22.609  0.00  0.00     0.036 H 
BRANCH  49  52
ATOM     52  C22 non d ame     -32.439  10.212  24.340  0.00  0.00     0.018 C 
ATOM     53  H33 non d ame     -32.351  11.042  23.641  0.00  0.00     0.048 H 
ATOM     54  H34 non d ame     -33.425   9.845  24.628  0.00  0.00     0.048 H 
BRANCH  52  55
ATOM     55  C23 non d ame     -31.757  10.683  25.654  0.00  0.00     0.259 C 
ATOM     56  O7  non d ame     -31.914  10.080  26.665  0.00  0.00    -0.265 OA
BRANCH  55  57
ATOM     57  O8  non d ame     -30.952  11.857  25.639  0.00  0.00    -0.317 OA
BRANCH  57  58
ATOM     58  C29 non d ame     -31.628  13.019  25.150  0.00  0.00     0.052 C 
ATOM     59  H47 non d ame     -32.572  12.661  24.742  0.00  0.00     0.082 H 
ATOM     60  H48 non d ame     -31.625  13.731  25.975  0.00  0.00     0.082 H 
BRANCH  58  61
ATOM     61  C35 non d ame     -30.784  13.611  23.989  0.00  0.00    -0.034 A 
ATOM     62  C30 non d ame     -30.219  12.766  23.039  0.00  0.00    -0.075 A 
ATOM     63  C31 non d ame     -29.461  13.298  21.996  0.00  0.00    -0.082 A 
ATOM     64  H49 non d ame     -30.369  11.689  23.111  0.00  0.00     0.084 H 
ATOM     65  C32 non d ame     -29.267  14.679  21.907  0.00  0.00    -0.083 A 
ATOM     66  H50 non d ame     -29.020  12.633  21.252  0.00  0.00     0.083 H 
ATOM     67  C33 non d ame     -29.830  15.517  22.860  0.00  0.00    -0.082 A 
ATOM     68  H51 non d ame     -28.676  15.102  21.095  0.00  0.00     0.083 H 
ATOM     69  C34 non d ame     -30.590  14.990  23.902  0.00  0.00    -0.075 A 
ATOM     70  H52 non d ame     -29.675  16.594  22.789  0.00  0.00     0.083 H 
ATOM     71  H53 non d ame     -31.030  15.656  24.646  0.00  0.00     0.084 H 
ENDBRANCH  58  61
ENDBRANCH  57  58
ENDBRANCH  55  57
ENDBRANCH  52  55
ENDBRANCH  49  52
ENDBRANCH  47  49
BRANCH  47  72
ATOM     72  C24 non d ame     -33.528   7.729  22.538  0.00  0.00    -0.039 C 
ATOM     73  H35 non d ame     -34.506   7.935  22.975  0.00  0.00     0.036 H 
ATOM     74  H36 non d ame     -33.109   8.411  21.799  0.00  0.00     0.036 H 
BRANCH  72  75
ATOM     75  C25 non d ame     -33.609   6.283  21.855  0.00  0.00    -0.001 C 
ATOM     76  C26 non d ame     -32.285   5.398  22.262  0.00  0.00    -0.035 C 
ATOM     77  C27 non d ame     -31.728   4.900  21.132  0.00  0.00     0.085 C 
ATOM     78  H38 non d ame     -31.509   6.048  22.664  0.00  0.00     0.036 H 
ATOM     79  H39 non d ame     -32.587   4.505  22.811  0.00  0.00     0.036 H 
ATOM     80  N5  non d ame     -32.356   5.633  19.971  0.00  0.00    -0.049 N 
ATOM     81  H40 non d ame     -30.671   5.164  21.188  0.00  0.00     0.075 H 
ATOM     82  H41 non d ame     -32.028   3.853  21.095  0.00  0.00     0.075 H 
ATOM     83  C28 non d ame     -33.660   6.375  20.568  0.00  0.00     0.193 C 
ATOM     84  H42 non d ame     -31.691   6.335  19.681  0.00  0.00     0.280 HD
ATOM     85  H43 non d ame     -32.660   4.925  19.317  0.00  0.00     0.280 HD
ATOM     86  H44 non d ame     -34.657   5.980  20.380  0.00  0.00     0.129 H 
ATOM     87  H37 non d ame     -34.583   5.813  21.996  0.00  0.00     0.046 H 
BRANCH  83  88
ATOM     88  O6  non d ame     -33.699   7.734  20.126  0.00  0.00    -0.369 OA
ATOM     89  H45 non d ame     -34.517   8.142  20.418  0.00  0.00     0.212 HD
ENDBRANCH  83  88
ENDBRANCH  72  75
ENDBRANCH  47  72
ENDBRANCH  45  47
ENDBRANCH   1  43
BRANCH   1  90
ATOM     90  C16 non d ame     -34.853   5.879  27.249  0.00  0.00    -0.035 C 
ATOM     91  H21 non d ame     -35.628   6.398  27.812  0.00  0.00     0.037 H 
ATOM     92  H22 non d ame     -34.960   5.742  26.173  0.00  0.00     0.037 H 
BRANCH  90  93
ATOM     93  C17 non d ame     -34.743   4.449  27.867  0.00  0.00    -0.059 C 
ATOM     94  H23 non d ame     -35.619   4.292  28.495  0.00  0.00     0.038 H 
BRANCH  93  95
ATOM     95  C18 non d ame     -34.732   3.334  26.774  0.00  0.00    -0.073 C 
ATOM     96  H24 non d ame     -34.484   3.774  25.808  0.00  0.00     0.028 H 
ATOM     97  H25 non d ame     -33.987   2.580  27.030  0.00  0.00     0.028 H 
ATOM     98  H26 non d ame     -35.716   2.868  26.719  0.00  0.00     0.028 H 
ENDBRANCH  93  95
BRANCH  93  99
ATOM     99  C19 non d ame     -33.511   4.337  28.770  0.00  0.00    -0.073 C 
ATOM    100  H27 non d ame     -33.642   4.976  29.644  0.00  0.00     0.028 H 
ATOM    101  H28 non d ame     -33.389   3.303  29.093  0.00  0.00     0.028 H 
ATOM    102  H29 non d ame     -32.626   4.651  28.218  0.00  0.00     0.028 H 
ENDBRANCH  93  99
ENDBRANCH  90  93
ENDBRANCH   1  90
TORSDOF 26
ENDMDL
MODEL 6
REMARK VINA RESULT:      -6.8      2.378      9.847
REMARK  26 active torsions:
REMARK  status: ('A' for Active; 'I' for Inactive)
REMARK    1  A    between atoms: C2_2  and  C3_3 
REMARK    2  A    between atoms: C4_6  and  C5_7 
REMARK       I    between atoms: C5_7  and  N2_9 
REMARK    3  A    between atoms: N2_9  and  C6_10 
REMARK    4  A    between atoms: C6_10  and  C7_11 
REMARK    5  A    between atoms: C6_10  and  C8_13 
REMARK       I    between atoms: C7_11  and  N3_14 
REMARK    6  A    between atoms: N3_14  and  C9_15 
REMARK    7  A    between atoms: C9_15  and  C10_16 
REMARK    8  A    between atoms: C9_15  and  C11_18 
REMARK       I    between atoms: C10_16  and  N4_21 
REMARK    9  A    between atoms: C11_18  and  C12_19 
REMARK   10  A    between atoms: C11_18  and  C13_20 
REMARK   11  A    between atoms: N4_21  and  C14_22 
REMARK   12  A    between atoms: C14_22  and  C15_23 
REMARK   13  A    between atoms: C14_22  and  C16_25 
REMARK       I    between atoms: C15_23  and  N6_40 
REMARK   14  A    between atoms: C16_25  and  C17_26 
REMARK   15  A    between atoms: C17_26  and  C18_27 
REMARK   16  A    between atoms: C17_26  and  C19_28 
REMARK   17  A    between atoms: C20_29  and  C21_30 
REMARK   18  A    between atoms: C20_29  and  C24_33 
REMARK   19  A    between atoms: C20_29  and  N6_40 
REMARK   20  A    between atoms: C21_30  and  C22_31 
REMARK   21  A    between atoms: C22_31  and  C23_32 
REMARK   22  A    between atoms: C23_32  and  O8_43 
REMARK   23  A    between atoms: C24_33  and  C25_34 
REMARK   24  A    between atoms: C28_38  and  O6_39 
REMARK   25  A    between atoms: C29_42  and  O8_43 
REMARK   26  A    between atoms: C29_42  and  C35_49 
ROOT
ATOM      1  C14 non d ame     -34.927   8.358  31.291  0.00  0.00     0.089 C 
ATOM      2  H20 non d ame     -34.513   8.455  32.295  0.00  0.00     0.087 H 
ENDROOT
BRANCH   1   3
ATOM      3  N4  non d ame     -34.067   9.108  30.389  0.00  0.00    -0.346 N 
ATOM      4  C10 non d ame     -33.520  10.453  30.799  0.00  0.00     0.241 C 
ATOM      5  O4  non d ame     -33.790  10.912  31.859  0.00  0.00    -0.271 OA
ATOM      6  H19 non d ame     -33.851   8.700  29.490  0.00  0.00     0.163 HD
BRANCH   4   7
ATOM      7  C9  non d ame     -32.627  11.212  29.854  0.00  0.00     0.092 C 
ATOM      8  H11 non d ame     -31.945  10.515  29.366  0.00  0.00     0.088 H 
BRANCH   7   9
ATOM      9  N3  non d ame     -33.439  11.831  28.803  0.00  0.00    -0.346 N 
ATOM     10  C7  non d ame     -33.475  11.251  27.484  0.00  0.00     0.240 C 
ATOM     11  O3  non d ame     -32.855  10.286  27.250  0.00  0.00    -0.271 OA
ATOM     12  H10 non d ame     -33.977  12.665  28.989  0.00  0.00     0.163 HD
BRANCH  10  13
ATOM     13  C6  non d ame     -34.339  11.916  26.368  0.00  0.00     0.086 C 
ATOM     14  H6  non d ame     -35.044  12.648  26.761  0.00  0.00     0.086 H 
BRANCH  13  15
ATOM     15  N2  non d ame     -33.462  12.632  25.457  0.00  0.00    -0.343 N 
ATOM     16  C5  non d ame     -33.005  13.980  25.805  0.00  0.00     0.273 C 
ATOM     17  O2  non d ame     -33.352  14.480  26.818  0.00  0.00    -0.266 OA
ATOM     18  H5  non d ame     -33.174  12.199  24.591  0.00  0.00     0.163 HD
BRANCH  16  19
ATOM     19  C4  non d ame     -32.077  14.748  24.852  0.00  0.00     0.154 A 
ATOM     20  C1  non d ame     -30.986  14.217  24.092  0.00  0.00    -0.017 A 
ATOM     21  C2  non d ame     -30.462  15.322  23.386  0.00  0.00     0.077 A 
ATOM     22  H1  non d ame     -30.629  13.188  24.059  0.00  0.00     0.091 H 
ATOM     23  O1  non d ame     -31.177  16.361  23.707  0.00  0.00    -0.218 OA
ATOM     24  N1  non d ame     -32.124  16.051  24.561  0.00  0.00    -0.123 NA
BRANCH  21  25
ATOM     25  C3  non d ame     -29.281  15.301  22.425  0.00  0.00    -0.029 C 
ATOM     26  H2  non d ame     -29.627  15.531  21.417  0.00  0.00     0.036 H 
ATOM     27  H3  non d ame     -28.547  16.045  22.734  0.00  0.00     0.036 H 
ATOM     28  H4  non d ame     -28.823  14.313  22.434  0.00  0.00     0.036 H 
ENDBRANCH  21  25
ENDBRANCH  16  19
ENDBRANCH  13  15
BRANCH  13  29
ATOM     29  C8  non d ame     -35.104  10.854  25.620  0.00  0.00    -0.049 C 
ATOM     30  H7  non d ame     -35.510  11.277  24.701  0.00  0.00     0.030 H 
ATOM     31  H8  non d ame     -34.434  10.029  25.375  0.00  0.00     0.030 H 
ATOM     32  H9  non d ame     -35.920  10.487  26.243  0.00  0.00     0.030 H 
ENDBRANCH  13  29
ENDBRANCH  10  13
ENDBRANCH   7   9
BRANCH   7  33
ATOM     33  C11 non d ame     -31.865  12.320  30.639  0.00  0.00    -0.033 C 
ATOM     34  H12 non d ame     -32.390  12.474  31.582  0.00  0.00     0.042 H 
BRANCH  33  35
ATOM     35  C12 non d ame     -30.408  11.878  30.979  0.00  0.00    -0.071 C 
ATOM     36  H13 non d ame     -30.045  11.197  30.209  0.00  0.00     0.028 H 
ATOM     37  H14 non d ame     -29.763  12.755  31.022  0.00  0.00     0.028 H 
ATOM     38  H15 non d ame     -30.398  11.371  31.944  0.00  0.00     0.028 H 
ENDBRANCH  33  35
BRANCH  33  39
ATOM     39  C13 non d ame     -31.878  13.671  29.854  0.00  0.00    -0.071 C 
ATOM     40  H16 non d ame     -32.446  14.413  30.416  0.00  0.00     0.028 H 
ATOM     41  H17 non d ame     -30.855  14.023  29.718  0.00  0.00     0.028 H 
ATOM     42  H18 non d ame     -32.341  13.520  28.879  0.00  0.00     0.028 H 
ENDBRANCH  33  39
ENDBRANCH   7  33
ENDBRANCH   4   7
ENDBRANCH   1   3
BRANCH   1  43
ATOM     43  C15 non d ame     -34.975   6.878  30.815  0.00  0.00     0.240 C 
ATOM     44  O5  non d ame     -35.418   6.041  31.533  0.00  0.00    -0.271 OA
ATOM     45  N6  non d ame     -34.477   6.506  29.461  0.00  0.00    -0.355 N 
ATOM     46  H46 non d ame     -34.103   7.210  28.840  0.00  0.00     0.162 HD
BRANCH  45  47
ATOM     47  C20 non d ame     -34.530   5.094  29.021  0.00  0.00     0.013 C 
ATOM     48  H30 non d ame     -34.845   4.490  29.872  0.00  0.00     0.072 H 
BRANCH  47  49
ATOM     49  C21 non d ame     -33.156   4.662  28.561  0.00  0.00    -0.038 C 
ATOM     50  H31 non d ame     -32.458   5.365  29.017  0.00  0.00     0.036 H 
ATOM     51  H32 non d ame     -33.089   3.600  28.793  0.00  0.00     0.036 H 
BRANCH  49  52
ATOM     52  C22 non d ame     -32.968   4.789  27.034  0.00  0.00     0.018 C 
ATOM     53  H33 non d ame     -32.330   3.955  26.745  0.00  0.00     0.048 H 
ATOM     54  H34 non d ame     -33.973   4.875  26.619  0.00  0.00     0.048 H 
BRANCH  52  55
ATOM     55  C23 non d ame     -32.215   6.077  26.600  0.00  0.00     0.259 C 
ATOM     56  O7  non d ame     -32.076   6.980  27.360  0.00  0.00    -0.265 OA
BRANCH  55  57
ATOM     57  O8  non d ame     -31.703   6.172  25.276  0.00  0.00    -0.317 OA
BRANCH  57  58
ATOM     58  C29 non d ame     -32.557   6.882  24.373  0.00  0.00     0.052 C 
ATOM     59  H47 non d ame     -32.801   6.174  23.582  0.00  0.00     0.082 H 
ATOM     60  H48 non d ame     -33.349   7.308  24.988  0.00  0.00     0.082 H 
BRANCH  58  61
ATOM     61  C35 non d ame     -31.737   8.046  23.753  0.00  0.00    -0.034 A 
ATOM     62  C30 non d ame     -30.713   7.773  22.851  0.00  0.00    -0.075 A 
ATOM     63  C31 non d ame     -29.977   8.819  22.295  0.00  0.00    -0.082 A 
ATOM     64  H49 non d ame     -30.487   6.742  22.581  0.00  0.00     0.084 H 
ATOM     65  C32 non d ame     -30.266  10.140  22.646  0.00  0.00    -0.083 A 
ATOM     66  H50 non d ame     -29.176   8.602  21.587  0.00  0.00     0.083 H 
ATOM     67  C33 non d ame     -31.286  10.406  23.549  0.00  0.00    -0.082 A 
ATOM     68  H51 non d ame     -29.695  10.963  22.215  0.00  0.00     0.083 H 
ATOM     69  C34 non d ame     -32.026   9.365  24.106  0.00  0.00    -0.075 A 
ATOM     70  H52 non d ame     -31.508  11.438  23.823  0.00  0.00     0.083 H 
ATOM     71  H53 non d ame     -32.827   9.583  24.813  0.00  0.00     0.084 H 
ENDBRANCH  58  61
ENDBRANCH  57  58
ENDBRANCH  55  57
ENDBRANCH  52  55
ENDBRANCH  49  52
ENDBRANCH  47  49
BRANCH  47  72
ATOM     72  C24 non d ame     -35.523   4.948  27.871  0.00  0.00    -0.039 C 
ATOM     73  H35 non d ame     -35.040   5.413  27.010  0.00  0.00     0.036 H 
ATOM     74  H36 non d ame     -35.783   3.890  27.844  0.00  0.00     0.036 H 
BRANCH  72  75
ATOM     75  C25 non d ame     -36.876   5.760  28.149  0.00  0.00    -0.001 C 
ATOM     76  C26 non d ame     -37.844   4.902  29.164  0.00  0.00    -0.035 C 
ATOM     77  C27 non d ame     -39.080   4.811  28.617  0.00  0.00     0.085 C 
ATOM     78  H38 non d ame     -37.510   3.866  29.213  0.00  0.00     0.036 H 
ATOM     79  H39 non d ame     -38.013   5.464  30.083  0.00  0.00     0.036 H 
ATOM     80  N5  non d ame     -38.956   5.243  27.176  0.00  0.00    -0.049 N 
ATOM     81  H40 non d ame     -39.335   3.751  28.649  0.00  0.00     0.075 H 
ATOM     82  H41 non d ame     -39.691   5.536  29.154  0.00  0.00     0.075 H 
ATOM     83  C28 non d ame     -37.524   5.978  27.053  0.00  0.00     0.193 C 
ATOM     84  H42 non d ame     -38.933   4.398  26.624  0.00  0.00     0.280 HD
ATOM     85  H43 non d ame     -39.684   5.927  27.020  0.00  0.00     0.280 HD
ATOM     86  H44 non d ame     -37.462   7.064  26.999  0.00  0.00     0.129 H 
ATOM     87  H37 non d ame     -36.688   6.802  28.405  0.00  0.00     0.046 H 
BRANCH  83  88
ATOM     88  O6  non d ame     -36.821   5.498  25.906  0.00  0.00    -0.369 OA
ATOM     89  H45 non d ame     -36.364   4.683  26.128  0.00  0.00     0.212 HD
ENDBRANCH  83  88
ENDBRANCH  72  75
ENDBRANCH  47  72
ENDBRANCH  45  47
ENDBRANCH   1  43
BRANCH   1  90
ATOM     90  C16 non d ame     -36.326   8.953  31.252  0.00  0.00    -0.035 C 
ATOM     91  H21 non d ame     -36.932   8.308  31.887  0.00  0.00     0.037 H 
ATOM     92  H22 non d ame     -36.199  10.004  31.507  0.00  0.00     0.037 H 
BRANCH  90  93
ATOM     93  C17 non d ame     -36.983   8.918  29.835  0.00  0.00    -0.059 C 
ATOM     94  H23 non d ame     -36.438   8.189  29.236  0.00  0.00     0.038 H 
BRANCH  93  95
ATOM     95  C18 non d ame     -38.478   8.470  29.890  0.00  0.00    -0.073 C 
ATOM     96  H24 non d ame     -39.044   9.167  30.508  0.00  0.00     0.028 H 
ATOM     97  H25 non d ame     -38.892   8.461  28.881  0.00  0.00     0.028 H 
ATOM     98  H26 non d ame     -38.542   7.470  30.317  0.00  0.00     0.028 H 
ENDBRANCH  93  95
BRANCH  93  99
ATOM     99  C19 non d ame     -36.846  10.274  29.137  0.00  0.00    -0.073 C 
ATOM    100  H27 non d ame     -36.724  10.120  28.064  0.00  0.00     0.028 H 
ATOM    101  H28 non d ame     -37.742  10.868  29.317  0.00  0.00     0.028 H 
ATOM    102  H29 non d ame     -35.977  10.800  29.530  0.00  0.00     0.028 H 
ENDBRANCH  93  99
ENDBRANCH  90  93
ENDBRANCH   1  90
TORSDOF 26
ENDMDL
MODEL 7
REMARK VINA RESULT:      -6.8      3.167      8.878
REMARK  26 active torsions:
REMARK  status: ('A' for Active; 'I' for Inactive)
REMARK    1  A    between atoms: C2_2  and  C3_3 
REMARK    2  A    between atoms: C4_6  and  C5_7 
REMARK       I    between atoms: C5_7  and  N2_9 
REMARK    3  A    between atoms: N2_9  and  C6_10 
REMARK    4  A    between atoms: C6_10  and  C7_11 
REMARK    5  A    between atoms: C6_10  and  C8_13 
REMARK       I    between atoms: C7_11  and  N3_14 
REMARK    6  A    between atoms: N3_14  and  C9_15 
REMARK    7  A    between atoms: C9_15  and  C10_16 
REMARK    8  A    between atoms: C9_15  and  C11_18 
REMARK       I    between atoms: C10_16  and  N4_21 
REMARK    9  A    between atoms: C11_18  and  C12_19 
REMARK   10  A    between atoms: C11_18  and  C13_20 
REMARK   11  A    between atoms: N4_21  and  C14_22 
REMARK   12  A    between atoms: C14_22  and  C15_23 
REMARK   13  A    between atoms: C14_22  and  C16_25 
REMARK       I    between atoms: C15_23  and  N6_40 
REMARK   14  A    between atoms: C16_25  and  C17_26 
REMARK   15  A    between atoms: C17_26  and  C18_27 
REMARK   16  A    between atoms: C17_26  and  C19_28 
REMARK   17  A    between atoms: C20_29  and  C21_30 
REMARK   18  A    between atoms: C20_29  and  C24_33 
REMARK   19  A    between atoms: C20_29  and  N6_40 
REMARK   20  A    between atoms: C21_30  and  C22_31 
REMARK   21  A    between atoms: C22_31  and  C23_32 
REMARK   22  A    between atoms: C23_32  and  O8_43 
REMARK   23  A    between atoms: C24_33  and  C25_34 
REMARK   24  A    between atoms: C28_38  and  O6_39 
REMARK   25  A    between atoms: C29_42  and  O8_43 
REMARK   26  A    between atoms: C29_42  and  C35_49 
ROOT
ATOM      1  C14 non d ame     -35.036   6.115  30.162  0.00  0.00     0.089 C 
ATOM      2  H20 non d ame     -34.571   6.157  31.147  0.00  0.00     0.087 H 
ENDROOT
BRANCH   1   3
ATOM      3  N4  non d ame     -35.276   7.485  29.732  0.00  0.00    -0.346 N 
ATOM      4  C10 non d ame     -34.893   8.641  30.622  0.00  0.00     0.241 C 
ATOM      5  O4  non d ame     -34.396   8.444  31.681  0.00  0.00    -0.271 OA
ATOM      6  H19 non d ame     -35.703   7.631  28.828  0.00  0.00     0.163 HD
BRANCH   4   7
ATOM      7  C9  non d ame     -35.143  10.051  30.158  0.00  0.00     0.092 C 
ATOM      8  H11 non d ame     -35.480  10.653  31.003  0.00  0.00     0.088 H 
BRANCH   7   9
ATOM      9  N3  non d ame     -33.889  10.639  29.680  0.00  0.00    -0.346 N 
ATOM     10  C7  non d ame     -33.136  11.525  30.535  0.00  0.00     0.240 C 
ATOM     11  O3  non d ame     -33.527  11.776  31.609  0.00  0.00    -0.271 OA
ATOM     12  H10 non d ame     -33.540  10.433  28.756  0.00  0.00     0.163 HD
BRANCH  10  13
ATOM     13  C6  non d ame     -31.803  12.150  30.019  0.00  0.00     0.086 C 
ATOM     14  H6  non d ame     -31.573  11.867  28.992  0.00  0.00     0.086 H 
BRANCH  13  15
ATOM     15  N2  non d ame     -31.926  13.599  30.034  0.00  0.00    -0.343 N 
ATOM     16  C5  non d ame     -32.081  14.322  28.769  0.00  0.00     0.273 C 
ATOM     17  O2  non d ame     -32.104  13.729  27.747  0.00  0.00    -0.266 OA
ATOM     18  H5  non d ame     -31.901  14.097  30.912  0.00  0.00     0.163 HD
BRANCH  16  19
ATOM     19  C4  non d ame     -32.214  15.852  28.769  0.00  0.00     0.154 A 
ATOM     20  C1  non d ame     -32.761  16.673  27.733  0.00  0.00    -0.017 A 
ATOM     21  C2  non d ame     -32.652  17.995  28.220  0.00  0.00     0.077 A 
ATOM     22  H1  non d ame     -33.173  16.359  26.775  0.00  0.00     0.091 H 
ATOM     23  O1  non d ame     -32.107  17.929  29.400  0.00  0.00    -0.218 OA
ATOM     24  N1  non d ame     -31.841  16.689  29.741  0.00  0.00    -0.123 NA
BRANCH  21  25
ATOM     25  C3  non d ame     -33.093  19.261  27.498  0.00  0.00    -0.029 C 
ATOM     26  H2  non d ame     -33.460  19.986  28.226  0.00  0.00     0.036 H 
ATOM     27  H3  non d ame     -32.245  19.686  26.960  0.00  0.00     0.036 H 
ATOM     28  H4  non d ame     -33.887  19.020  26.793  0.00  0.00     0.036 H 
ENDBRANCH  21  25
ENDBRANCH  16  19
ENDBRANCH  13  15
BRANCH  13  29
ATOM     29  C8  non d ame     -30.665  11.720  30.911  0.00  0.00    -0.049 C 
ATOM     30  H7  non d ame     -29.851  11.332  30.299  0.00  0.00     0.030 H 
ATOM     31  H8  non d ame     -30.311  12.576  31.486  0.00  0.00     0.030 H 
ATOM     32  H9  non d ame     -31.011  10.942  31.592  0.00  0.00     0.030 H 
ENDBRANCH  13  29
ENDBRANCH  10  13
ENDBRANCH   7   9
BRANCH   7  33
ATOM     33  C11 non d ame     -36.182  10.039  28.999  0.00  0.00    -0.033 C 
ATOM     34  H12 non d ame     -36.276   9.009  28.654  0.00  0.00     0.042 H 
BRANCH  33  35
ATOM     35  C12 non d ame     -37.590  10.500  29.491  0.00  0.00    -0.071 C 
ATOM     36  H13 non d ame     -38.301  10.435  28.668  0.00  0.00     0.028 H 
ATOM     37  H14 non d ame     -37.917   9.855  30.306  0.00  0.00     0.028 H 
ATOM     38  H15 non d ame     -37.533  11.530  29.841  0.00  0.00     0.028 H 
ENDBRANCH  33  35
BRANCH  33  39
ATOM     39  C13 non d ame     -35.690  10.908  27.797  0.00  0.00    -0.071 C 
ATOM     40  H16 non d ame     -35.379  10.256  26.980  0.00  0.00     0.028 H 
ATOM     41  H17 non d ame     -36.501  11.554  27.459  0.00  0.00     0.028 H 
ATOM     42  H18 non d ame     -34.847  11.521  28.114  0.00  0.00     0.028 H 
ENDBRANCH  33  39
ENDBRANCH   7  33
ENDBRANCH   4   7
ENDBRANCH   1   3
BRANCH   1  43
ATOM     43  C15 non d ame     -34.126   5.418  29.112  0.00  0.00     0.240 C 
ATOM     44  O5  non d ame     -33.427   4.516  29.442  0.00  0.00    -0.271 OA
ATOM     45  N6  non d ame     -34.132   5.870  27.691  0.00  0.00    -0.355 N 
ATOM     46  H46 non d ame     -34.726   6.633  27.398  0.00  0.00     0.162 HD
BRANCH  45  47
ATOM     47  C20 non d ame     -33.261   5.196  26.703  0.00  0.00     0.013 C 
ATOM     48  H30 non d ame     -32.718   4.405  27.220  0.00  0.00     0.072 H 
BRANCH  47  49
ATOM     49  C21 non d ame     -32.289   6.200  26.127  0.00  0.00    -0.038 C 
ATOM     50  H31 non d ame     -31.339   5.672  26.036  0.00  0.00     0.036 H 
ATOM     51  H32 non d ame     -32.775   6.603  25.239  0.00  0.00     0.036 H 
BRANCH  49  52
ATOM     52  C22 non d ame     -32.035   7.397  27.068  0.00  0.00     0.018 C 
ATOM     53  H33 non d ame     -32.550   7.157  27.997  0.00  0.00     0.048 H 
ATOM     54  H34 non d ame     -30.954   7.547  27.068  0.00  0.00     0.048 H 
BRANCH  52  55
ATOM     55  C23 non d ame     -32.652   8.731  26.566  0.00  0.00     0.259 C 
ATOM     56  O7  non d ame     -32.420   9.753  27.127  0.00  0.00    -0.265 OA
BRANCH  55  57
ATOM     57  O8  non d ame     -33.515   8.718  25.434  0.00  0.00    -0.317 OA
BRANCH  57  58
ATOM     58  C29 non d ame     -33.357   9.848  24.570  0.00  0.00     0.052 C 
ATOM     59  H47 non d ame     -34.267   9.890  23.973  0.00  0.00     0.082 H 
ATOM     60  H48 non d ame     -33.091  10.681  25.220  0.00  0.00     0.082 H 
BRANCH  58  61
ATOM     61  C35 non d ame     -32.161   9.563  23.623  0.00  0.00    -0.034 A 
ATOM     62  C30 non d ame     -32.149   8.411  22.843  0.00  0.00    -0.075 A 
ATOM     63  C31 non d ame     -31.075   8.155  21.992  0.00  0.00    -0.082 A 
ATOM     64  H49 non d ame     -32.981   7.708  22.898  0.00  0.00     0.084 H 
ATOM     65  C32 non d ame     -30.008   9.055  21.924  0.00  0.00    -0.083 A 
ATOM     66  H50 non d ame     -31.069   7.252  21.381  0.00  0.00     0.083 H 
ATOM     67  C33 non d ame     -30.023  10.201  22.707  0.00  0.00    -0.082 A 
ATOM     68  H51 non d ame     -29.165   8.862  21.261  0.00  0.00     0.083 H 
ATOM     69  C34 non d ame     -31.095  10.462  23.557  0.00  0.00    -0.075 A 
ATOM     70  H52 non d ame     -29.188  10.901  22.654  0.00  0.00     0.083 H 
ATOM     71  H53 non d ame     -31.100  11.366  24.168  0.00  0.00     0.084 H 
ENDBRANCH  58  61
ENDBRANCH  57  58
ENDBRANCH  55  57
ENDBRANCH  52  55
ENDBRANCH  49  52
ENDBRANCH  47  49
BRANCH  47  72
ATOM     72  C24 non d ame     -34.113   4.607  25.580  0.00  0.00    -0.039 C 
ATOM     73  H35 non d ame     -33.832   3.555  25.526  0.00  0.00     0.036 H 
ATOM     74  H36 non d ame     -35.139   4.885  25.819  0.00  0.00     0.036 H 
BRANCH  72  75
ATOM     75  C25 non d ame     -33.762   5.266  24.163  0.00  0.00    -0.001 C 
ATOM     76  C26 non d ame     -35.042   6.146  23.624  0.00  0.00    -0.035 C 
ATOM     77  C27 non d ame     -35.330   5.766  22.356  0.00  0.00     0.085 C 
ATOM     78  H38 non d ame     -35.940   5.881  24.180  0.00  0.00     0.036 H 
ATOM     79  H39 non d ame     -34.756   7.193  23.517  0.00  0.00     0.036 H 
ATOM     80  N5  non d ame     -34.579   4.482  22.099  0.00  0.00    -0.049 N 
ATOM     81  H40 non d ame     -36.401   5.558  22.350  0.00  0.00     0.075 H 
ATOM     82  H41 non d ame     -34.924   6.550  21.717  0.00  0.00     0.075 H 
ATOM     83  C28 non d ame     -33.488   4.361  23.282  0.00  0.00     0.193 C 
ATOM     84  H42 non d ame     -35.248   3.733  22.200  0.00  0.00     0.280 HD
ATOM     85  H43 non d ame     -34.091   4.608  21.223  0.00  0.00     0.280 HD
ATOM     86  H44 non d ame     -32.438   4.582  23.093  0.00  0.00     0.129 H 
ATOM     87  H37 non d ame     -32.789   5.754  24.164  0.00  0.00     0.046 H 
BRANCH  83  88
ATOM     88  O6  non d ame     -33.507   3.045  23.838  0.00  0.00    -0.369 OA
ATOM     89  H45 non d ame     -32.608   2.753  24.001  0.00  0.00     0.212 HD
ENDBRANCH  83  88
ENDBRANCH  72  75
ENDBRANCH  47  72
ENDBRANCH  45  47
ENDBRANCH   1  43
BRANCH   1  90
ATOM     90  C16 non d ame     -36.366   5.383  30.252  0.00  0.00    -0.035 C 
ATOM     91  H21 non d ame     -36.318   4.602  29.494  0.00  0.00     0.037 H 
ATOM     92  H22 non d ame     -36.479   5.117  31.302  0.00  0.00     0.037 H 
BRANCH  90  93
ATOM     93  C17 non d ame     -37.597   6.273  29.887  0.00  0.00    -0.059 C 
ATOM     94  H23 non d ame     -37.251   7.057  29.214  0.00  0.00     0.038 H 
BRANCH  93  95
ATOM     95  C18 non d ame     -38.710   5.464  29.146  0.00  0.00    -0.073 C 
ATOM     96  H24 non d ame     -38.404   4.422  29.058  0.00  0.00     0.028 H 
ATOM     97  H25 non d ame     -39.639   5.522  29.713  0.00  0.00     0.028 H 
ATOM     98  H26 non d ame     -38.864   5.883  28.152  0.00  0.00     0.028 H 
ENDBRANCH  93  95
BRANCH  93  99
ATOM     99  C19 non d ame     -38.163   6.961  31.132  0.00  0.00    -0.073 C 
ATOM    100  H27 non d ame     -38.969   6.355  31.548  0.00  0.00     0.028 H 
ATOM    101  H28 non d ame     -37.374   7.072  31.876  0.00  0.00     0.028 H 
ATOM    102  H29 non d ame     -38.547   7.943  30.862  0.00  0.00     0.028 H 
ENDBRANCH  93  99
ENDBRANCH  90  93
ENDBRANCH   1  90
TORSDOF 26
ENDMDL
MODEL 8
REMARK VINA RESULT:      -6.8      1.879      4.033
REMARK  26 active torsions:
REMARK  status: ('A' for Active; 'I' for Inactive)
REMARK    1  A    between atoms: C2_2  and  C3_3 
REMARK    2  A    between atoms: C4_6  and  C5_7 
REMARK       I    between atoms: C5_7  and  N2_9 
REMARK    3  A    between atoms: N2_9  and  C6_10 
REMARK    4  A    between atoms: C6_10  and  C7_11 
REMARK    5  A    between atoms: C6_10  and  C8_13 
REMARK       I    between atoms: C7_11  and  N3_14 
REMARK    6  A    between atoms: N3_14  and  C9_15 
REMARK    7  A    between atoms: C9_15  and  C10_16 
REMARK    8  A    between atoms: C9_15  and  C11_18 
REMARK       I    between atoms: C10_16  and  N4_21 
REMARK    9  A    between atoms: C11_18  and  C12_19 
REMARK   10  A    between atoms: C11_18  and  C13_20 
REMARK   11  A    between atoms: N4_21  and  C14_22 
REMARK   12  A    between atoms: C14_22  and  C15_23 
REMARK   13  A    between atoms: C14_22  and  C16_25 
REMARK       I    between atoms: C15_23  and  N6_40 
REMARK   14  A    between atoms: C16_25  and  C17_26 
REMARK   15  A    between atoms: C17_26  and  C18_27 
REMARK   16  A    between atoms: C17_26  and  C19_28 
REMARK   17  A    between atoms: C20_29  and  C21_30 
REMARK   18  A    between atoms: C20_29  and  C24_33 
REMARK   19  A    between atoms: C20_29  and  N6_40 
REMARK   20  A    between atoms: C21_30  and  C22_31 
REMARK   21  A    between atoms: C22_31  and  C23_32 
REMARK   22  A    between atoms: C23_32  and  O8_43 
REMARK   23  A    between atoms: C24_33  and  C25_34 
REMARK   24  A    between atoms: C28_38  and  O6_39 
REMARK   25  A    between atoms: C29_42  and  O8_43 
REMARK   26  A    between atoms: C29_42  and  C35_49 
ROOT
ATOM      1  C14 non d ame     -32.344   9.689  24.481  0.00  0.00     0.089 C 
ATOM      2  H20 non d ame     -32.000   8.840  25.073  0.00  0.00     0.087 H 
ENDROOT
BRANCH   1   3
ATOM      3  N4  non d ame     -33.605  10.138  25.054  0.00  0.00    -0.346 N 
ATOM      4  C10 non d ame     -34.569   9.142  25.649  0.00  0.00     0.241 C 
ATOM      5  O4  non d ame     -34.310   7.985  25.653  0.00  0.00    -0.271 OA
ATOM      6  H19 non d ame     -33.807  11.127  25.039  0.00  0.00     0.163 HD
BRANCH   4   7
ATOM      7  C9  non d ame     -35.866   9.626  26.243  0.00  0.00     0.092 C 
ATOM      8  H11 non d ame     -36.688   9.032  25.842  0.00  0.00     0.088 H 
BRANCH   7   9
ATOM      9  N3  non d ame     -35.848   9.420  27.693  0.00  0.00    -0.346 N 
ATOM     10  C7  non d ame     -36.834   8.569  28.313  0.00  0.00     0.240 C 
ATOM     11  O3  non d ame     -37.652   8.045  27.658  0.00  0.00    -0.271 OA
ATOM     12  H10 non d ame     -35.150   9.866  28.271  0.00  0.00     0.163 HD
BRANCH  10  13
ATOM     13  C6  non d ame     -36.812   8.355  29.858  0.00  0.00     0.086 C 
ATOM     14  H6  non d ame     -37.701   7.842  30.225  0.00  0.00     0.086 H 
BRANCH  13  15
ATOM     15  N2  non d ame     -35.676   7.516  30.201  0.00  0.00    -0.343 N 
ATOM     16  C5  non d ame     -35.802   6.059  30.113  0.00  0.00     0.273 C 
ATOM     17  O2  non d ame     -36.823   5.573  29.768  0.00  0.00    -0.266 OA
ATOM     18  H5  non d ame     -34.809   7.940  30.498  0.00  0.00     0.163 HD
BRANCH  16  19
ATOM     19  C4  non d ame     -34.609   5.160  30.470  0.00  0.00     0.154 A 
ATOM     20  C1  non d ame     -34.239   4.690  31.770  0.00  0.00    -0.017 A 
ATOM     21  C2  non d ame     -33.082   3.908  31.559  0.00  0.00     0.077 A 
ATOM     22  H1  non d ame     -34.734   4.887  32.721  0.00  0.00     0.091 H 
ATOM     23  O1  non d ame     -32.827   3.931  30.283  0.00  0.00    -0.218 OA
ATOM     24  N1  non d ame     -33.704   4.656  29.627  0.00  0.00    -0.123 NA
BRANCH  21  25
ATOM     25  C3  non d ame     -32.282   3.173  32.627  0.00  0.00    -0.029 C 
ATOM     26  H2  non d ame     -31.469   2.621  32.156  0.00  0.00     0.036 H 
ATOM     27  H3  non d ame     -31.870   3.895  33.332  0.00  0.00     0.036 H 
ATOM     28  H4  non d ame     -32.934   2.479  33.155  0.00  0.00     0.036 H 
ENDBRANCH  21  25
ENDBRANCH  16  19
ENDBRANCH  13  15
BRANCH  13  29
ATOM     29  C8  non d ame     -36.696   9.689  30.551  0.00  0.00    -0.049 C 
ATOM     30  H7  non d ame     -37.140   9.623  31.544  0.00  0.00     0.030 H 
ATOM     31  H8  non d ame     -35.644   9.961  30.642  0.00  0.00     0.030 H 
ATOM     32  H9  non d ame     -37.219  10.448  29.969  0.00  0.00     0.030 H 
ENDBRANCH  13  29
ENDBRANCH  10  13
ENDBRANCH   7   9
BRANCH   7  33
ATOM     33  C11 non d ame     -36.040  11.143  25.939  0.00  0.00    -0.033 C 
ATOM     34  H12 non d ame     -35.307  11.412  25.179  0.00  0.00     0.042 H 
BRANCH  33  35
ATOM     35  C12 non d ame     -37.455  11.448  25.356  0.00  0.00    -0.071 C 
ATOM     36  H13 non d ame     -38.152  10.671  25.669  0.00  0.00     0.028 H 
ATOM     37  H14 non d ame     -37.799  12.415  25.724  0.00  0.00     0.028 H 
ATOM     38  H15 non d ame     -37.402  11.471  24.267  0.00  0.00     0.028 H 
ENDBRANCH  33  35
BRANCH  33  39
ATOM     39  C13 non d ame     -35.754  12.004  27.211  0.00  0.00    -0.071 C 
ATOM     40  H16 non d ame     -34.714  11.876  27.512  0.00  0.00     0.028 H 
ATOM     41  H17 non d ame     -35.941  13.056  26.989  0.00  0.00     0.028 H 
ATOM     42  H18 non d ame     -36.409  11.684  28.021  0.00  0.00     0.028 H 
ENDBRANCH  33  39
ENDBRANCH   7  33
ENDBRANCH   4   7
ENDBRANCH   1   3
BRANCH   1  43
ATOM     43  C15 non d ame     -31.337  10.873  24.510  0.00  0.00     0.240 C 
ATOM     44  O5  non d ame     -30.170  10.654  24.570  0.00  0.00    -0.271 OA
ATOM     45  N6  non d ame     -31.825  12.280  24.454  0.00  0.00    -0.355 N 
ATOM     46  H46 non d ame     -32.815  12.477  24.397  0.00  0.00     0.162 HD
BRANCH  45  47
ATOM     47  C20 non d ame     -30.855  13.396  24.480  0.00  0.00     0.013 C 
ATOM     48  H30 non d ame     -30.058  13.130  25.175  0.00  0.00     0.072 H 
BRANCH  47  49
ATOM     49  C21 non d ame     -31.551  14.653  24.950  0.00  0.00    -0.038 C 
ATOM     50  H31 non d ame     -30.759  15.310  25.313  0.00  0.00     0.036 H 
ATOM     51  H32 non d ame     -32.183  14.967  24.120  0.00  0.00     0.036 H 
BRANCH  49  52
ATOM     52  C22 non d ame     -32.494  14.404  26.147  0.00  0.00     0.018 C 
ATOM     53  H33 non d ame     -33.494  14.642  25.789  0.00  0.00     0.048 H 
ATOM     54  H34 non d ame     -32.266  13.396  26.498  0.00  0.00     0.048 H 
BRANCH  52  55
ATOM     55  C23 non d ame     -32.235  15.346  27.355  0.00  0.00     0.259 C 
ATOM     56  O7  non d ame     -32.562  16.488  27.311  0.00  0.00    -0.265 OA
BRANCH  55  57
ATOM     57  O8  non d ame     -31.586  14.833  28.513  0.00  0.00    -0.317 OA
BRANCH  57  58
ATOM     58  C29 non d ame     -30.882  13.608  28.290  0.00  0.00     0.052 C 
ATOM     59  H47 non d ame     -30.907  13.446  27.212  0.00  0.00     0.082 H 
ATOM     60  H48 non d ame     -29.927  13.718  28.803  0.00  0.00     0.082 H 
BRANCH  58  61
ATOM     61  C35 non d ame     -31.679  12.466  28.976  0.00  0.00    -0.034 A 
ATOM     62  C30 non d ame     -32.099  11.366  28.233  0.00  0.00    -0.075 A 
ATOM     63  C31 non d ame     -32.815  10.341  28.850  0.00  0.00    -0.082 A 
ATOM     64  H49 non d ame     -31.868  11.308  27.170  0.00  0.00     0.084 H 
ATOM     65  C32 non d ame     -33.113  10.419  30.213  0.00  0.00    -0.083 A 
ATOM     66  H50 non d ame     -33.142   9.480  28.265  0.00  0.00     0.083 H 
ATOM     67  C33 non d ame     -32.695  11.519  30.948  0.00  0.00    -0.082 A 
ATOM     68  H51 non d ame     -33.672   9.621  30.702  0.00  0.00     0.083 H 
ATOM     69  C34 non d ame     -31.977  12.545  30.337  0.00  0.00    -0.075 A 
ATOM     70  H52 non d ame     -32.930  11.579  32.011  0.00  0.00     0.083 H 
ATOM     71  H53 non d ame     -31.651  13.406  30.922  0.00  0.00     0.084 H 
ENDBRANCH  58  61
ENDBRANCH  57  58
ENDBRANCH  55  57
ENDBRANCH  52  55
ENDBRANCH  49  52
ENDBRANCH  47  49
BRANCH  47  72
ATOM     72  C24 non d ame     -30.286  13.620  23.081  0.00  0.00    -0.039 C 
ATOM     73  H35 non d ame     -29.267  13.233  23.117  0.00  0.00     0.036 H 
ATOM     74  H36 non d ame     -31.012  13.178  22.399  0.00  0.00     0.036 H 
BRANCH  72  75
ATOM     75  C25 non d ame     -30.189  15.178  22.723  0.00  0.00    -0.001 C 
ATOM     76  C26 non d ame     -31.262  15.546  21.534  0.00  0.00    -0.035 C 
ATOM     77  C27 non d ame     -30.610  16.207  20.546  0.00  0.00     0.085 C 
ATOM     78  H38 non d ame     -31.608  14.635  21.046  0.00  0.00     0.036 H 
ATOM     79  H39 non d ame     -31.984  16.279  21.896  0.00  0.00     0.036 H 
ATOM     80  N5  non d ame     -29.133  16.034  20.801  0.00  0.00    -0.049 N 
ATOM     81  H40 non d ame     -30.875  15.688  19.624  0.00  0.00     0.075 H 
ATOM     82  H41 non d ame     -30.872  17.257  20.676  0.00  0.00     0.075 H 
ATOM     83  C28 non d ame     -29.003  15.491  22.316  0.00  0.00     0.193 C 
ATOM     84  H42 non d ame     -28.816  15.310  20.172  0.00  0.00     0.280 HD
ATOM     85  H43 non d ame     -28.725  16.957  20.754  0.00  0.00     0.280 HD
ATOM     86  H44 non d ame     -28.688  16.157  23.118  0.00  0.00     0.129 H 
ATOM     87  H37 non d ame     -30.198  15.807  23.612  0.00  0.00     0.046 H 
BRANCH  83  88
ATOM     88  O6  non d ame     -28.105  14.380  22.367  0.00  0.00    -0.369 OA
ATOM     89  H45 non d ame     -28.582  13.595  22.644  0.00  0.00     0.212 HD
ENDBRANCH  83  88
ENDBRANCH  72  75
ENDBRANCH  47  72
ENDBRANCH  45  47
ENDBRANCH   1  43
BRANCH   1  90
ATOM     90  C16 non d ame     -32.580   9.253  23.044  0.00  0.00    -0.035 C 
ATOM     91  H21 non d ame     -33.594   8.853  23.026  0.00  0.00     0.037 H 
ATOM     92  H22 non d ame     -32.325  10.119  22.434  0.00  0.00     0.037 H 
BRANCH  90  93
ATOM     93  C17 non d ame     -31.642   8.094  22.579  0.00  0.00    -0.059 C 
ATOM     94  H23 non d ame     -30.668   8.526  22.354  0.00  0.00     0.038 H 
BRANCH  93  95
ATOM     95  C18 non d ame     -31.441   7.016  23.691  0.00  0.00    -0.073 C 
ATOM     96  H24 non d ame     -31.878   6.072  23.366  0.00  0.00     0.028 H 
ATOM     97  H25 non d ame     -30.375   6.877  23.874  0.00  0.00     0.028 H 
ATOM     98  H26 non d ame     -31.927   7.345  24.609  0.00  0.00     0.028 H 
ENDBRANCH  93  95
BRANCH  93  99
ATOM     99  C19 non d ame     -32.164   7.453  21.289  0.00  0.00    -0.073 C 
ATOM    100  H27 non d ame     -32.915   8.103  20.838  0.00  0.00     0.028 H 
ATOM    101  H28 non d ame     -31.338   7.316  20.591  0.00  0.00     0.028 H 
ATOM    102  H29 non d ame     -32.610   6.486  21.518  0.00  0.00     0.028 H 
ENDBRANCH  93  99
ENDBRANCH  90  93
ENDBRANCH   1  90
TORSDOF 26
ENDMDL
MODEL 9
REMARK VINA RESULT:      -6.7      2.567      9.068
REMARK  26 active torsions:
REMARK  status: ('A' for Active; 'I' for Inactive)
REMARK    1  A    between atoms: C2_2  and  C3_3 
REMARK    2  A    between atoms: C4_6  and  C5_7 
REMARK       I    between atoms: C5_7  and  N2_9 
REMARK    3  A    between atoms: N2_9  and  C6_10 
REMARK    4  A    between atoms: C6_10  and  C7_11 
REMARK    5  A    between atoms: C6_10  and  C8_13 
REMARK       I    between atoms: C7_11  and  N3_14 
REMARK    6  A    between atoms: N3_14  and  C9_15 
REMARK    7  A    between atoms: C9_15  and  C10_16 
REMARK    8  A    between atoms: C9_15  and  C11_18 
REMARK       I    between atoms: C10_16  and  N4_21 
REMARK    9  A    between atoms: C11_18  and  C12_19 
REMARK   10  A    between atoms: C11_18  and  C13_20 
REMARK   11  A    between atoms: N4_21  and  C14_22 
REMARK   12  A    between atoms: C14_22  and  C15_23 
REMARK   13  A    between atoms: C14_22  and  C16_25 
REMARK       I    between atoms: C15_23  and  N6_40 
REMARK   14  A    between atoms: C16_25  and  C17_26 
REMARK   15  A    between atoms: C17_26  and  C18_27 
REMARK   16  A    between atoms: C17_26  and  C19_28 
REMARK   17  A    between atoms: C20_29  and  C21_30 
REMARK   18  A    between atoms: C20_29  and  C24_33 
REMARK   19  A    between atoms: C20_29  and  N6_40 
REMARK   20  A    between atoms: C21_30  and  C22_31 
REMARK   21  A    between atoms: C22_31  and  C23_32 
REMARK   22  A    between atoms: C23_32  and  O8_43 
REMARK   23  A    between atoms: C24_33  and  C25_34 
REMARK   24  A    between atoms: C28_38  and  O6_39 
REMARK   25  A    between atoms: C29_42  and  O8_43 
REMARK   26  A    between atoms: C29_42  and  C35_49 
ROOT
ATOM      1  C14 non d ame     -32.912   9.303  27.448  0.00  0.00     0.089 C 
ATOM      2  H20 non d ame     -31.882   8.947  27.413  0.00  0.00     0.087 H 
ENDROOT
BRANCH   1   3
ATOM      3  N4  non d ame     -32.874  10.723  27.765  0.00  0.00    -0.346 N 
ATOM      4  C10 non d ame     -31.773  11.597  27.218  0.00  0.00     0.241 C 
ATOM      5  O4  non d ame     -30.927  11.134  26.528  0.00  0.00    -0.271 OA
ATOM      6  H19 non d ame     -33.602  11.097  28.357  0.00  0.00     0.163 HD
BRANCH   4   7
ATOM      7  C9  non d ame     -31.753  13.065  27.552  0.00  0.00     0.092 C 
ATOM      8  H11 non d ame     -30.722  13.420  27.551  0.00  0.00     0.088 H 
BRANCH   7   9
ATOM      9  N3  non d ame     -32.470  13.812  26.515  0.00  0.00    -0.346 N 
ATOM     10  C7  non d ame     -31.740  14.427  25.434  0.00  0.00     0.240 C 
ATOM     11  O3  non d ame     -30.574  14.332  25.385  0.00  0.00    -0.271 OA
ATOM     12  H10 non d ame     -33.475  13.905  26.545  0.00  0.00     0.163 HD
BRANCH  10  13
ATOM     13  C6  non d ame     -32.508  15.224  24.335  0.00  0.00     0.086 C 
ATOM     14  H6  non d ame     -33.460  14.765  24.069  0.00  0.00     0.086 H 
BRANCH  13  15
ATOM     15  N2  non d ame     -32.814  16.552  24.843  0.00  0.00    -0.343 N 
ATOM     16  C5  non d ame     -34.082  16.783  25.539  0.00  0.00     0.273 C 
ATOM     17  O2  non d ame     -34.850  15.896  25.683  0.00  0.00    -0.266 OA
ATOM     18  H5  non d ame     -32.154  17.305  24.712  0.00  0.00     0.163 HD
BRANCH  16  19
ATOM     19  C4  non d ame     -34.418  18.181  26.082  0.00  0.00     0.154 A 
ATOM     20  C1  non d ame     -35.717  18.760  26.235  0.00  0.00    -0.017 A 
ATOM     21  C2  non d ame     -35.481  20.047  26.769  0.00  0.00     0.077 A 
ATOM     22  H1  non d ame     -36.683  18.316  25.995  0.00  0.00     0.091 H 
ATOM     23  O1  non d ame     -34.194  20.179  26.905  0.00  0.00    -0.218 OA
ATOM     24  N1  non d ame     -33.553  19.104  26.510  0.00  0.00    -0.123 NA
BRANCH  21  25
ATOM     25  C3  non d ame     -36.538  21.084  27.121  0.00  0.00    -0.029 C 
ATOM     26  H2  non d ame     -36.057  22.042  27.318  0.00  0.00     0.036 H 
ATOM     27  H3  non d ame     -37.233  21.193  26.288  0.00  0.00     0.036 H 
ATOM     28  H4  non d ame     -37.082  20.763  28.009  0.00  0.00     0.036 H 
ENDBRANCH  21  25
ENDBRANCH  16  19
ENDBRANCH  13  15
BRANCH  13  29
ATOM     29  C8  non d ame     -31.654  15.329  23.097  0.00  0.00    -0.049 C 
ATOM     30  H7  non d ame     -32.295  15.389  22.217  0.00  0.00     0.030 H 
ATOM     31  H8  non d ame     -31.036  16.226  23.157  0.00  0.00     0.030 H 
ATOM     32  H9  non d ame     -31.014  14.451  23.022  0.00  0.00     0.030 H 
ENDBRANCH  13  29
ENDBRANCH  10  13
ENDBRANCH   7   9
BRANCH   7  33
ATOM     33  C11 non d ame     -32.447  13.293  28.926  0.00  0.00    -0.033 C 
ATOM     34  H12 non d ame     -33.326  12.649  28.961  0.00  0.00     0.042 H 
BRANCH  33  35
ATOM     35  C12 non d ame     -31.516  12.882  30.110  0.00  0.00    -0.071 C 
ATOM     36  H13 non d ame     -30.515  13.276  29.938  0.00  0.00     0.028 H 
ATOM     37  H14 non d ame     -31.912  13.288  31.040  0.00  0.00     0.028 H 
ATOM     38  H15 non d ame     -31.472  11.795  30.177  0.00  0.00     0.028 H 
ENDBRANCH  33  35
BRANCH  33  39
ATOM     39  C13 non d ame     -32.928  14.773  29.072  0.00  0.00    -0.071 C 
ATOM     40  H16 non d ame     -33.947  14.788  29.458  0.00  0.00     0.028 H 
ATOM     41  H17 non d ame     -32.270  15.303  29.761  0.00  0.00     0.028 H 
ATOM     42  H18 non d ame     -32.900  15.261  28.098  0.00  0.00     0.028 H 
ENDBRANCH  33  39
ENDBRANCH   7  33
ENDBRANCH   4   7
ENDBRANCH   1   3
BRANCH   1  43
ATOM     43  C15 non d ame     -33.644   9.118  26.089  0.00  0.00     0.240 C 
ATOM     44  O5  non d ame     -34.632   9.738  25.861  0.00  0.00    -0.271 OA
ATOM     45  N6  non d ame     -33.108   8.176  25.066  0.00  0.00    -0.355 N 
ATOM     46  H46 non d ame     -32.266   7.648  25.247  0.00  0.00     0.162 HD
BRANCH  45  47
ATOM     47  C20 non d ame     -33.815   8.012  23.777  0.00  0.00     0.013 C 
ATOM     48  H30 non d ame     -34.754   8.561  23.838  0.00  0.00     0.072 H 
BRANCH  47  49
ATOM     49  C21 non d ame     -34.088   6.544  23.540  0.00  0.00    -0.038 C 
ATOM     50  H31 non d ame     -35.092   6.365  23.928  0.00  0.00     0.036 H 
ATOM     51  H32 non d ame     -33.873   6.371  22.486  0.00  0.00     0.036 H 
BRANCH  49  52
ATOM     52  C22 non d ame     -33.142   5.621  24.337  0.00  0.00     0.018 C 
ATOM     53  H33 non d ame     -32.804   4.864  23.631  0.00  0.00     0.048 H 
ATOM     54  H34 non d ame     -32.417   6.283  24.814  0.00  0.00     0.048 H 
BRANCH  52  55
ATOM     55  C23 non d ame     -33.842   4.851  25.491  0.00  0.00     0.259 C 
ATOM     56  O7  non d ame     -34.072   3.690  25.389  0.00  0.00    -0.265 OA
BRANCH  55  57
ATOM     57  O8  non d ame     -34.221   5.554  26.668  0.00  0.00    -0.317 OA
BRANCH  57  58
ATOM     58  C29 non d ame     -33.897   4.870  27.883  0.00  0.00     0.052 C 
ATOM     59  H47 non d ame     -34.003   3.809  27.661  0.00  0.00     0.082 H 
ATOM     60  H48 non d ame     -32.933   5.268  28.198  0.00  0.00     0.082 H 
BRANCH  58  61
ATOM     61  C35 non d ame     -34.959   5.257  28.948  0.00  0.00    -0.034 A 
ATOM     62  C30 non d ame     -34.590   5.387  30.283  0.00  0.00    -0.075 A 
ATOM     63  C31 non d ame     -35.543   5.734  31.240  0.00  0.00    -0.082 A 
ATOM     64  H49 non d ame     -33.555   5.217  30.580  0.00  0.00     0.084 H 
ATOM     65  C32 non d ame     -36.870   5.948  30.857  0.00  0.00    -0.083 A 
ATOM     66  H50 non d ame     -35.251   5.837  32.285  0.00  0.00     0.083 H 
ATOM     67  C33 non d ame     -37.234   5.814  29.524  0.00  0.00    -0.082 A 
ATOM     68  H51 non d ame     -37.621   6.221  31.599  0.00  0.00     0.083 H 
ATOM     69  C34 non d ame     -36.284   5.469  28.565  0.00  0.00    -0.075 A 
ATOM     70  H52 non d ame     -38.270   5.980  29.229  0.00  0.00     0.083 H 
ATOM     71  H53 non d ame     -36.577   5.367  27.520  0.00  0.00     0.084 H 
ENDBRANCH  58  61
ENDBRANCH  57  58
ENDBRANCH  55  57
ENDBRANCH  52  55
ENDBRANCH  49  52
ENDBRANCH  47  49
BRANCH  47  72
ATOM     72  C24 non d ame     -32.953   8.560  22.642  0.00  0.00    -0.039 C 
ATOM     73  H35 non d ame     -33.061   7.845  21.825  0.00  0.00     0.036 H 
ATOM     74  H36 non d ame     -33.274   9.593  22.507  0.00  0.00     0.036 H 
BRANCH  72  75
ATOM     75  C25 non d ame     -31.401   8.595  23.039  0.00  0.00    -0.001 C 
ATOM     76  C26 non d ame     -30.876  10.152  23.105  0.00  0.00    -0.035 C 
ATOM     77  C27 non d ame     -29.754  10.266  22.354  0.00  0.00     0.085 C 
ATOM     78  H38 non d ame     -31.587  10.808  22.604  0.00  0.00     0.036 H 
ATOM     79  H39 non d ame     -30.533  10.388  24.113  0.00  0.00     0.036 H 
ATOM     80  N5  non d ame     -29.652   9.013  21.520  0.00  0.00    -0.049 N 
ATOM     81  H40 non d ame     -29.930  11.118  21.696  0.00  0.00     0.075 H 
ATOM     82  H41 non d ame     -28.929  10.288  23.065  0.00  0.00     0.075 H 
ATOM     83  C28 non d ame     -30.683   7.957  22.176  0.00  0.00     0.193 C 
ATOM     84  H42 non d ame     -29.983   9.254  20.597  0.00  0.00     0.280 HD
ATOM     85  H43 non d ame     -28.712   8.663  21.643  0.00  0.00     0.280 HD
ATOM     86  H44 non d ame     -30.318   7.135  22.791  0.00  0.00     0.129 H 
ATOM     87  H37 non d ame     -31.180   7.960  23.896  0.00  0.00     0.046 H 
BRANCH  83  88
ATOM     88  O6  non d ame     -31.479   7.348  21.157  0.00  0.00    -0.369 OA
ATOM     89  H45 non d ame     -32.409   7.472  21.361  0.00  0.00     0.212 HD
ENDBRANCH  83  88
ENDBRANCH  72  75
ENDBRANCH  47  72
ENDBRANCH  45  47
ENDBRANCH   1  43
BRANCH   1  90
ATOM     90  C16 non d ame     -33.672   8.571  28.543  0.00  0.00    -0.035 C 
ATOM     91  H21 non d ame     -34.346   7.892  28.022  0.00  0.00     0.037 H 
ATOM     92  H22 non d ame     -32.907   8.173  29.209  0.00  0.00     0.037 H 
BRANCH  90  93
ATOM     93  C17 non d ame     -34.574   9.504  29.412  0.00  0.00    -0.059 C 
ATOM     94  H23 non d ame     -34.296  10.534  29.189  0.00  0.00     0.038 H 
BRANCH  93  95
ATOM     95  C18 non d ame     -36.091   9.336  29.078  0.00  0.00    -0.073 C 
ATOM     96  H24 non d ame     -36.689   9.822  29.848  0.00  0.00     0.028 H 
ATOM     97  H25 non d ame     -36.303   9.793  28.112  0.00  0.00     0.028 H 
ATOM     98  H26 non d ame     -36.339   8.276  29.040  0.00  0.00     0.028 H 
ENDBRANCH  93  95
BRANCH  93  99
ATOM     99  C19 non d ame     -34.316   9.277  30.904  0.00  0.00    -0.073 C 
ATOM    100  H27 non d ame     -33.796   8.329  31.043  0.00  0.00     0.028 H 
ATOM    101  H28 non d ame     -33.702  10.089  31.295  0.00  0.00     0.028 H 
ATOM    102  H29 non d ame     -35.266   9.253  31.437  0.00  0.00     0.028 H 
ENDBRANCH  93  99
ENDBRANCH  90  93
ENDBRANCH   1  90
TORSDOF 26
ENDMDL
MODEL 10
REMARK VINA RESULT:      -6.7      2.367      9.151
REMARK  26 active torsions:
REMARK  status: ('A' for Active; 'I' for Inactive)
REMARK    1  A    between atoms: C2_2  and  C3_3 
REMARK    2  A    between atoms: C4_6  and  C5_7 
REMARK       I    between atoms: C5_7  and  N2_9 
REMARK    3  A    between atoms: N2_9  and  C6_10 
REMARK    4  A    between atoms: C6_10  and  C7_11 
REMARK    5  A    between atoms: C6_10  and  C8_13 
REMARK       I    between atoms: C7_11  and  N3_14 
REMARK    6  A    between atoms: N3_14  and  C9_15 
REMARK    7  A    between atoms: C9_15  and  C10_16 
REMARK    8  A    between atoms: C9_15  and  C11_18 
REMARK       I    between atoms: C10_16  and  N4_21 
REMARK    9  A    between atoms: C11_18  and  C12_19 
REMARK   10  A    between atoms: C11_18  and  C13_20 
REMARK   11  A    between atoms: N4_21  and  C14_22 
REMARK   12  A    between atoms: C14_22  and  C15_23 
REMARK   13  A    between atoms: C14_22  and  C16_25 
REMARK       I    between atoms: C15_23  and  N6_40 
REMARK   14  A    between atoms: C16_25  and  C17_26 
REMARK   15  A    between atoms: C17_26  and  C18_27 
REMARK   16  A    between atoms: C17_26  and  C19_28 
REMARK   17  A    between atoms: C20_29  and  C21_30 
REMARK   18  A    between atoms: C20_29  and  C24_33 
REMARK   19  A    between atoms: C20_29  and  N6_40 
REMARK   20  A    between atoms: C21_30  and  C22_31 
REMARK   21  A    between atoms: C22_31  and  C23_32 
REMARK   22  A    between atoms: C23_32  and  O8_43 
REMARK   23  A    between atoms: C24_33  and  C25_34 
REMARK   24  A    between atoms: C28_38  and  O6_39 
REMARK   25  A    between atoms: C29_42  and  O8_43 
REMARK   26  A    between atoms: C29_42  and  C35_49 
ROOT
ATOM      1  C14 non d ame     -35.678   9.563  28.084  0.00  0.00     0.089 C 
ATOM      2  H20 non d ame     -35.537   8.740  28.785  0.00  0.00     0.087 H 
ENDROOT
BRANCH   1   3
ATOM      3  N4  non d ame     -34.646  10.552  28.358  0.00  0.00    -0.346 N 
ATOM      4  C10 non d ame     -33.249  10.114  28.720  0.00  0.00     0.241 C 
ATOM      5  O4  non d ame     -32.980   8.961  28.788  0.00  0.00    -0.271 OA
ATOM      6  H19 non d ame     -34.896  11.529  28.297  0.00  0.00     0.163 HD
BRANCH   4   7
ATOM      7  C9  non d ame     -32.192  11.151  28.995  0.00  0.00     0.092 C 
ATOM      8  H11 non d ame     -31.252  10.836  28.539  0.00  0.00     0.088 H 
BRANCH   7   9
ATOM      9  N3  non d ame     -32.574  12.418  28.366  0.00  0.00    -0.346 N 
ATOM     10  C7  non d ame     -31.894  12.867  27.176  0.00  0.00     0.240 C 
ATOM     11  O3  non d ame     -31.034  12.221  26.713  0.00  0.00    -0.271 OA
ATOM     12  H10 non d ame     -33.312  12.987  28.755  0.00  0.00     0.163 HD
BRANCH  10  13
ATOM     13  C6  non d ame     -32.303  14.219  26.513  0.00  0.00     0.086 C 
ATOM     14  H6  non d ame     -31.895  15.085  27.033  0.00  0.00     0.086 H 
BRANCH  13  15
ATOM     15  N2  non d ame     -31.773  14.259  25.160  0.00  0.00    -0.343 N 
ATOM     16  C5  non d ame     -31.101  15.471  24.684  0.00  0.00     0.273 C 
ATOM     17  O2  non d ame     -30.995  16.407  25.396  0.00  0.00    -0.266 OA
ATOM     18  H5  non d ame     -31.873  13.455  24.557  0.00  0.00     0.163 HD
BRANCH  16  19
ATOM     19  C4  non d ame     -30.535  15.526  23.257  0.00  0.00     0.154 A 
ATOM     20  C1  non d ame     -31.272  15.673  22.039  0.00  0.00    -0.017 A 
ATOM     21  C2  non d ame     -30.295  15.666  21.019  0.00  0.00     0.077 A 
ATOM     22  H1  non d ame     -32.351  15.768  21.914  0.00  0.00     0.091 H 
ATOM     23  O1  non d ame     -29.135  15.533  21.595  0.00  0.00    -0.218 OA
ATOM     24  N1  non d ame     -29.250  15.449  22.900  0.00  0.00    -0.123 NA
BRANCH  21  25
ATOM     25  C3  non d ame     -30.551  15.793  19.523  0.00  0.00    -0.029 C 
ATOM     26  H2  non d ame     -30.166  14.910  19.012  0.00  0.00     0.036 H 
ATOM     27  H3  non d ame     -31.623  15.876  19.344  0.00  0.00     0.036 H 
ATOM     28  H4  non d ame     -30.049  16.681  19.142  0.00  0.00     0.036 H 
ENDBRANCH  21  25
ENDBRANCH  16  19
ENDBRANCH  13  15
BRANCH  13  29
ATOM     29  C8  non d ame     -33.807  14.331  26.482  0.00  0.00    -0.049 C 
ATOM     30  H7  non d ame     -34.139  14.481  25.455  0.00  0.00     0.030 H 
ATOM     31  H8  non d ame     -34.247  13.415  26.877  0.00  0.00     0.030 H 
ATOM     32  H9  non d ame     -34.120  15.178  27.093  0.00  0.00     0.030 H 
ENDBRANCH  13  29
ENDBRANCH  10  13
ENDBRANCH   7   9
BRANCH   7  33
ATOM     33  C11 non d ame     -32.055  11.358  30.531  0.00  0.00    -0.033 C 
ATOM     34  H12 non d ame     -31.582  10.465  30.942  0.00  0.00     0.042 H 
BRANCH  33  35
ATOM     35  C12 non d ame     -31.133  12.572  30.863  0.00  0.00    -0.071 C 
ATOM     36  H13 non d ame     -30.257  12.225  31.410  0.00  0.00     0.028 H 
ATOM     37  H14 non d ame     -30.817  13.051  29.937  0.00  0.00     0.028 H 
ATOM     38  H15 non d ame     -31.682  13.289  31.475  0.00  0.00     0.028 H 
ENDBRANCH  33  35
BRANCH  33  39
ATOM     39  C13 non d ame     -33.458  11.512  31.202  0.00  0.00    -0.071 C 
ATOM     40  H16 non d ame     -33.427  11.099  32.211  0.00  0.00     0.028 H 
ATOM     41  H17 non d ame     -33.724  12.568  31.250  0.00  0.00     0.028 H 
ATOM     42  H18 non d ame     -34.203  10.978  30.613  0.00  0.00     0.028 H 
ENDBRANCH  33  39
ENDBRANCH   7  33
ENDBRANCH   4   7
ENDBRANCH   1   3
BRANCH   1  43
ATOM     43  C15 non d ame     -35.546   9.106  26.604  0.00  0.00     0.240 C 
ATOM     44  O5  non d ame     -36.308   9.515  25.789  0.00  0.00    -0.271 OA
ATOM     45  N6  non d ame     -34.463   8.165  26.200  0.00  0.00    -0.355 N 
ATOM     46  H46 non d ame     -33.806   7.815  26.883  0.00  0.00     0.162 HD
BRANCH  45  47
ATOM     47  C20 non d ame     -34.349   7.740  24.787  0.00  0.00     0.013 C 
ATOM     48  H30 non d ame     -34.917   8.444  24.179  0.00  0.00     0.072 H 
BRANCH  47  49
ATOM     49  C21 non d ame     -34.919   6.348  24.636  0.00  0.00    -0.038 C 
ATOM     50  H31 non d ame     -34.312   5.863  23.871  0.00  0.00     0.036 H 
ATOM     51  H32 non d ame     -34.959   5.936  25.644  0.00  0.00     0.036 H 
BRANCH  49  52
ATOM     52  C22 non d ame     -36.369   6.349  24.106  0.00  0.00     0.018 C 
ATOM     53  H33 non d ame     -36.621   7.395  23.936  0.00  0.00     0.048 H 
ATOM     54  H34 non d ame     -36.379   5.644  23.274  0.00  0.00     0.048 H 
BRANCH  52  55
ATOM     55  C23 non d ame     -37.411   5.818  25.130  0.00  0.00     0.259 C 
ATOM     56  O7  non d ame     -38.545   5.665  24.812  0.00  0.00    -0.265 OA
BRANCH  55  57
ATOM     57  O8  non d ame     -36.996   5.530  26.460  0.00  0.00    -0.317 OA
BRANCH  57  58
ATOM     58  C29 non d ame     -37.751   6.214  27.465  0.00  0.00     0.052 C 
ATOM     59  H47 non d ame     -37.720   7.268  27.190  0.00  0.00     0.082 H 
ATOM     60  H48 non d ame     -38.707   5.693  27.522  0.00  0.00     0.082 H 
BRANCH  58  61
ATOM     61  C35 non d ame     -37.015   6.038  28.820  0.00  0.00    -0.034 A 
ATOM     62  C30 non d ame     -37.745   5.903  29.997  0.00  0.00    -0.075 A 
ATOM     63  C31 non d ame     -37.083   5.745  31.214  0.00  0.00    -0.082 A 
ATOM     64  H49 non d ame     -38.834   5.921  29.966  0.00  0.00     0.084 H 
ATOM     65  C32 non d ame     -35.686   5.725  31.252  0.00  0.00    -0.083 A 
ATOM     66  H50 non d ame     -37.658   5.638  32.135  0.00  0.00     0.083 H 
ATOM     67  C33 non d ame     -34.963   5.864  30.076  0.00  0.00    -0.082 A 
ATOM     68  H51 non d ame     -35.162   5.601  32.200  0.00  0.00     0.083 H 
ATOM     69  C34 non d ame     -35.619   6.020  28.857  0.00  0.00    -0.075 A 
ATOM     70  H52 non d ame     -33.873   5.850  30.109  0.00  0.00     0.083 H 
ATOM     71  H53 non d ame     -35.044   6.126  27.937  0.00  0.00     0.084 H 
ENDBRANCH  58  61
ENDBRANCH  57  58
ENDBRANCH  55  57
ENDBRANCH  52  55
ENDBRANCH  49  52
ENDBRANCH  47  49
BRANCH  47  72
ATOM     72  C24 non d ame     -32.881   7.739  24.365  0.00  0.00    -0.039 C 
ATOM     73  H35 non d ame     -32.313   7.682  25.294  0.00  0.00     0.036 H 
ATOM     74  H36 non d ame     -32.794   6.946  23.623  0.00  0.00     0.036 H 
BRANCH  72  75
ATOM     75  C25 non d ame     -32.471   9.109  23.643  0.00  0.00    -0.001 C 
ATOM     76  C26 non d ame     -31.489   8.794  22.363  0.00  0.00    -0.035 C 
ATOM     77  C27 non d ame     -30.383   9.569  22.460  0.00  0.00     0.085 C 
ATOM     78  H38 non d ame     -31.097   7.780  22.433  0.00  0.00     0.036 H 
ATOM     79  H39 non d ame     -31.958   9.135  21.439  0.00  0.00     0.036 H 
ATOM     80  N5  non d ame     -30.367  10.142  23.856  0.00  0.00    -0.049 N 
ATOM     81  H40 non d ame     -29.538   8.888  22.346  0.00  0.00     0.075 H 
ATOM     82  H41 non d ame     -30.530  10.379  21.746  0.00  0.00     0.075 H 
ATOM     83  C28 non d ame     -31.846   9.896  24.454  0.00  0.00     0.193 C 
ATOM     84  H42 non d ame     -29.709   9.588  24.386  0.00  0.00     0.280 HD
ATOM     85  H43 non d ame     -30.222  11.137  23.755  0.00  0.00     0.280 HD
ATOM     86  H44 non d ame     -32.559  10.717  24.523  0.00  0.00     0.129 H 
ATOM     87  H37 non d ame     -33.330   9.754  23.462  0.00  0.00     0.046 H 
BRANCH  83  88
ATOM     88  O6  non d ame     -31.760   9.353  25.774  0.00  0.00    -0.369 OA
ATOM     89  H45 non d ame     -30.968   9.683  26.204  0.00  0.00     0.212 HD
ENDBRANCH  83  88
ENDBRANCH  72  75
ENDBRANCH  47  72
ENDBRANCH  45  47
ENDBRANCH   1  43
BRANCH   1  90
ATOM     90  C16 non d ame     -37.043  10.198  28.304  0.00  0.00    -0.035 C 
ATOM     91  H21 non d ame     -36.891  11.267  28.160  0.00  0.00     0.037 H 
ATOM     92  H22 non d ame     -37.723   9.652  27.650  0.00  0.00     0.037 H 
BRANCH  90  93
ATOM     93  C17 non d ame     -37.590  10.022  29.756  0.00  0.00    -0.059 C 
ATOM     94  H23 non d ame     -37.765  11.016  30.166  0.00  0.00     0.038 H 
BRANCH  93  95
ATOM     95  C18 non d ame     -38.946   9.248  29.785  0.00  0.00    -0.073 C 
ATOM     96  H24 non d ame     -38.876   8.418  30.488  0.00  0.00     0.028 H 
ATOM     97  H25 non d ame     -39.743   9.923  30.100  0.00  0.00     0.028 H 
ATOM     98  H26 non d ame     -39.167   8.864  28.790  0.00  0.00     0.028 H 
ENDBRANCH  93  95
BRANCH  93  99
ATOM     99  C19 non d ame     -36.553   9.337  30.651  0.00  0.00    -0.073 C 
ATOM    100  H27 non d ame     -36.057   8.543  30.091  0.00  0.00     0.028 H 
ATOM    101  H28 non d ame     -35.813  10.069  30.976  0.00  0.00     0.028 H 
ATOM    102  H29 non d ame     -37.049   8.913  31.523  0.00  0.00     0.028 H 
ENDBRANCH  93  99
ENDBRANCH  90  93
ENDBRANCH   1  90
TORSDOF 26
ENDMDL
MODEL 11
REMARK VINA RESULT:      -6.7      3.128      6.450
REMARK  26 active torsions:
REMARK  status: ('A' for Active; 'I' for Inactive)
REMARK    1  A    between atoms: C2_2  and  C3_3 
REMARK    2  A    between atoms: C4_6  and  C5_7 
REMARK       I    between atoms: C5_7  and  N2_9 
REMARK    3  A    between atoms: N2_9  and  C6_10 
REMARK    4  A    between atoms: C6_10  and  C7_11 
REMARK    5  A    between atoms: C6_10  and  C8_13 
REMARK       I    between atoms: C7_11  and  N3_14 
REMARK    6  A    between atoms: N3_14  and  C9_15 
REMARK    7  A    between atoms: C9_15  and  C10_16 
REMARK    8  A    between atoms: C9_15  and  C11_18 
REMARK       I    between atoms: C10_16  and  N4_21 
REMARK    9  A    between atoms: C11_18  and  C12_19 
REMARK   10  A    between atoms: C11_18  and  C13_20 
REMARK   11  A    between atoms: N4_21  and  C14_22 
REMARK   12  A    between atoms: C14_22  and  C15_23 
REMARK   13  A    between atoms: C14_22  and  C16_25 
REMARK       I    between atoms: C15_23  and  N6_40 
REMARK   14  A    between atoms: C16_25  and  C17_26 
REMARK   15  A    between atoms: C17_26  and  C18_27 
REMARK   16  A    between atoms: C17_26  and  C19_28 
REMARK   17  A    between atoms: C20_29  and  C21_30 
REMARK   18  A    between atoms: C20_29  and  C24_33 
REMARK   19  A    between atoms: C20_29  and  N6_40 
REMARK   20  A    between atoms: C21_30  and  C22_31 
REMARK   21  A    between atoms: C22_31  and  C23_32 
REMARK   22  A    between atoms: C23_32  and  O8_43 
REMARK   23  A    between atoms: C24_33  and  C25_34 
REMARK   24  A    between atoms: C28_38  and  O6_39 
REMARK   25  A    between atoms: C29_42  and  O8_43 
REMARK   26  A    between atoms: C29_42  and  C35_49 
ROOT
ATOM      1  C14 non d ame     -31.730  10.130  25.104  0.00  0.00     0.089 C 
ATOM      2  H20 non d ame     -30.858   9.484  25.206  0.00  0.00     0.087 H 
ENDROOT
BRANCH   1   3
ATOM      3  N4  non d ame     -32.664   9.774  26.162  0.00  0.00    -0.346 N 
ATOM      4  C10 non d ame     -33.939  10.558  26.349  0.00  0.00     0.241 C 
ATOM      5  O4  non d ame     -34.190  11.474  25.639  0.00  0.00    -0.271 OA
ATOM      6  H19 non d ame     -32.431   8.991  26.757  0.00  0.00     0.163 HD
BRANCH   4   7
ATOM      7  C9  non d ame     -34.896  10.170  27.445  0.00  0.00     0.092 C 
ATOM      8  H11 non d ame     -34.742   9.122  27.703  0.00  0.00     0.088 H 
BRANCH   7   9
ATOM      9  N3  non d ame     -34.610  10.958  28.647  0.00  0.00    -0.346 N 
ATOM     10  C7  non d ame     -33.445  10.660  29.444  0.00  0.00     0.240 C 
ATOM     11  O3  non d ame     -32.729   9.788  29.133  0.00  0.00    -0.271 OA
ATOM     12  H10 non d ame     -35.219  11.712  28.929  0.00  0.00     0.163 HD
BRANCH  10  13
ATOM     13  C6  non d ame     -33.147  11.501  30.724  0.00  0.00     0.086 C 
ATOM     14  H6  non d ame     -32.147  11.325  31.120  0.00  0.00     0.086 H 
BRANCH  13  15
ATOM     15  N2  non d ame     -33.217  12.913  30.387  0.00  0.00    -0.343 N 
ATOM     16  C5  non d ame     -32.000  13.619  29.978  0.00  0.00     0.273 C 
ATOM     17  O2  non d ame     -30.970  13.042  29.925  0.00  0.00    -0.266 OA
ATOM     18  H5  non d ame     -34.101  13.399  30.438  0.00  0.00     0.163 HD
BRANCH  16  19
ATOM     19  C4  non d ame     -32.061  15.111  29.617  0.00  0.00     0.154 A 
ATOM     20  C1  non d ame     -32.752  15.707  28.515  0.00  0.00    -0.017 A 
ATOM     21  C2  non d ame     -32.495  17.092  28.631  0.00  0.00     0.077 A 
ATOM     22  H1  non d ame     -33.348  15.212  27.748  0.00  0.00     0.091 H 
ATOM     23  O1  non d ame     -31.746  17.260  29.681  0.00  0.00    -0.218 OA
ATOM     24  N1  non d ame     -31.479  16.119  30.272  0.00  0.00    -0.123 NA
BRANCH  21  25
ATOM     25  C3  non d ame     -33.003  18.184  27.699  0.00  0.00    -0.029 C 
ATOM     26  H2  non d ame     -33.906  17.840  27.193  0.00  0.00     0.036 H 
ATOM     27  H3  non d ame     -33.232  19.079  28.278  0.00  0.00     0.036 H 
ATOM     28  H4  non d ame     -32.239  18.416  26.959  0.00  0.00     0.036 H 
ENDBRANCH  21  25
ENDBRANCH  16  19
ENDBRANCH  13  15
BRANCH  13  29
ATOM     29  C8  non d ame     -34.160  11.173  31.791  0.00  0.00    -0.049 C 
ATOM     30  H7  non d ame     -34.529  12.096  32.238  0.00  0.00     0.030 H 
ATOM     31  H8  non d ame     -34.992  10.628  31.346  0.00  0.00     0.030 H 
ATOM     32  H9  non d ame     -33.692  10.559  32.560  0.00  0.00     0.030 H 
ENDBRANCH  13  29
ENDBRANCH  10  13
ENDBRANCH   7   9
BRANCH   7  33
ATOM     33  C11 non d ame     -36.356  10.448  26.981  0.00  0.00    -0.033 C 
ATOM     34  H12 non d ame     -36.311  11.200  26.192  0.00  0.00     0.042 H 
BRANCH  33  35
ATOM     35  C12 non d ame     -37.015   9.170  26.376  0.00  0.00    -0.071 C 
ATOM     36  H13 non d ame     -36.688   8.293  26.935  0.00  0.00     0.028 H 
ATOM     37  H14 non d ame     -38.099   9.257  26.437  0.00  0.00     0.028 H 
ATOM     38  H15 non d ame     -36.716   9.066  25.332  0.00  0.00     0.028 H 
ENDBRANCH  33  35
BRANCH  33  39
ATOM     39  C13 non d ame     -37.214  11.028  28.151  0.00  0.00    -0.071 C 
ATOM     40  H16 non d ame     -37.919  10.271  28.495  0.00  0.00     0.028 H 
ATOM     41  H17 non d ame     -36.560  11.317  28.974  0.00  0.00     0.028 H 
ATOM     42  H18 non d ame     -37.762  11.902  27.801  0.00  0.00     0.028 H 
ENDBRANCH  33  39
ENDBRANCH   7  33
ENDBRANCH   4   7
ENDBRANCH   1   3
BRANCH   1  43
ATOM     43  C15 non d ame     -31.368  11.635  25.250  0.00  0.00     0.240 C 
ATOM     44  O5  non d ame     -30.804  12.015  26.225  0.00  0.00    -0.271 OA
ATOM     45  N6  non d ame     -31.714  12.602  24.170  0.00  0.00    -0.355 N 
ATOM     46  H46 non d ame     -32.188  12.289  23.334  0.00  0.00     0.162 HD
BRANCH  45  47
ATOM     47  C20 non d ame     -31.360  14.030  24.322  0.00  0.00     0.013 C 
ATOM     48  H30 non d ame     -30.326  14.085  24.663  0.00  0.00     0.072 H 
BRANCH  47  49
ATOM     49  C21 non d ame     -32.276  14.666  25.344  0.00  0.00    -0.038 C 
ATOM     50  H31 non d ame     -32.958  13.875  25.660  0.00  0.00     0.036 H 
ATOM     51  H32 non d ame     -31.619  15.142  26.071  0.00  0.00     0.036 H 
BRANCH  49  52
ATOM     52  C22 non d ame     -33.154  15.786  24.747  0.00  0.00     0.018 C 
ATOM     53  H33 non d ame     -32.801  16.711  25.200  0.00  0.00     0.048 H 
ATOM     54  H34 non d ame     -33.104  15.655  23.665  0.00  0.00     0.048 H 
BRANCH  52  55
ATOM     55  C23 non d ame     -34.657  15.671  25.123  0.00  0.00     0.259 C 
ATOM     56  O7  non d ame     -35.158  14.607  25.291  0.00  0.00    -0.265 OA
BRANCH  55  57
ATOM     57  O8  non d ame     -35.436  16.855  25.251  0.00  0.00    -0.317 OA
BRANCH  57  58
ATOM     58  C29 non d ame     -36.489  16.757  26.215  0.00  0.00     0.052 C 
ATOM     59  H47 non d ame     -37.413  16.711  25.638  0.00  0.00     0.082 H 
ATOM     60  H48 non d ame     -36.213  15.932  26.870  0.00  0.00     0.082 H 
BRANCH  58  61
ATOM     61  C35 non d ame     -36.497  18.065  27.050  0.00  0.00    -0.034 A 
ATOM     62  C30 non d ame     -36.737  18.015  28.420  0.00  0.00    -0.075 A 
ATOM     63  C31 non d ame     -36.744  19.191  29.171  0.00  0.00    -0.082 A 
ATOM     64  H49 non d ame     -36.919  17.057  28.905  0.00  0.00     0.084 H 
ATOM     65  C32 non d ame     -36.512  20.419  28.546  0.00  0.00    -0.083 A 
ATOM     66  H50 non d ame     -36.931  19.148  30.244  0.00  0.00     0.083 H 
ATOM     67  C33 non d ame     -36.277  20.464  27.179  0.00  0.00    -0.082 A 
ATOM     68  H51 non d ame     -36.516  21.342  29.126  0.00  0.00     0.083 H 
ATOM     69  C34 non d ame     -36.267  19.292  26.425  0.00  0.00    -0.075 A 
ATOM     70  H52 non d ame     -36.099  21.424  26.694  0.00  0.00     0.083 H 
ATOM     71  H53 non d ame     -36.080  19.336  25.352  0.00  0.00     0.084 H 
ENDBRANCH  58  61
ENDBRANCH  57  58
ENDBRANCH  55  57
ENDBRANCH  52  55
ENDBRANCH  49  52
ENDBRANCH  47  49
BRANCH  47  72
ATOM     72  C24 non d ame     -31.515  14.747  22.982  0.00  0.00    -0.039 C 
ATOM     73  H35 non d ame     -32.379  14.284  22.504  0.00  0.00     0.036 H 
ATOM     74  H36 non d ame     -31.530  15.810  23.222  0.00  0.00     0.036 H 
BRANCH  72  75
ATOM     75  C25 non d ame     -30.254  14.496  22.027  0.00  0.00    -0.001 C 
ATOM     76  C26 non d ame     -28.902  14.266  22.934  0.00  0.00    -0.035 C 
ATOM     77  C27 non d ame     -27.930  15.096  22.487  0.00  0.00     0.085 C 
ATOM     78  H38 non d ame     -29.075  14.603  23.956  0.00  0.00     0.036 H 
ATOM     79  H39 non d ame     -28.493  13.272  22.749  0.00  0.00     0.036 H 
ATOM     80  N5  non d ame     -28.592  16.101  21.576  0.00  0.00    -0.049 N 
ATOM     81  H40 non d ame     -27.556  15.611  23.373  0.00  0.00     0.075 H 
ATOM     82  H41 non d ame     -27.260  14.470  21.897  0.00  0.00     0.075 H 
ATOM     83  C28 non d ame     -30.054  15.503  21.243  0.00  0.00     0.193 C 
ATOM     84  H42 non d ame     -28.705  16.947  22.117  0.00  0.00     0.280 HD
ATOM     85  H43 non d ame     -28.048  16.116  20.724  0.00  0.00     0.280 HD
ATOM     86  H44 non d ame     -30.258  15.045  20.276  0.00  0.00     0.129 H 
ATOM     87  H37 non d ame     -30.463  13.760  21.252  0.00  0.00     0.046 H 
BRANCH  83  88
ATOM     88  O6  non d ame     -31.049  16.517  21.402  0.00  0.00    -0.369 OA
ATOM     89  H45 non d ame     -31.587  16.319  22.172  0.00  0.00     0.212 HD
ENDBRANCH  83  88
ENDBRANCH  72  75
ENDBRANCH  47  72
ENDBRANCH  45  47
ENDBRANCH   1  43
BRANCH   1  90
ATOM     90  C16 non d ame     -32.393   9.892  23.757  0.00  0.00    -0.035 C 
ATOM     91  H21 non d ame     -33.288   9.309  23.973  0.00  0.00     0.037 H 
ATOM     92  H22 non d ame     -32.483  10.878  23.301  0.00  0.00     0.037 H 
BRANCH  90  93
ATOM     93  C17 non d ame     -31.533   9.030  22.778  0.00  0.00    -0.059 C 
ATOM     94  H23 non d ame     -32.075   8.959  21.836  0.00  0.00     0.038 H 
BRANCH  93  95
ATOM     95  C18 non d ame     -30.145   9.682  22.484  0.00  0.00    -0.073 C 
ATOM     96  H24 non d ame     -29.768  10.160  23.388  0.00  0.00     0.028 H 
ATOM     97  H25 non d ame     -29.443   8.912  22.162  0.00  0.00     0.028 H 
ATOM     98  H26 non d ame     -30.252  10.427  21.696  0.00  0.00     0.028 H 
ENDBRANCH  93  95
BRANCH  93  99
ATOM     99  C19 non d ame     -31.363   7.605  23.312  0.00  0.00    -0.073 C 
ATOM    100  H27 non d ame     -32.209   7.352  23.952  0.00  0.00     0.028 H 
ATOM    101  H28 non d ame     -31.319   6.906  22.477  0.00  0.00     0.028 H 
ATOM    102  H29 non d ame     -30.440   7.540  23.887  0.00  0.00     0.028 H 
ENDBRANCH  93  99
ENDBRANCH  90  93
ENDBRANCH   1  90
TORSDOF 26
ENDMDL
MODEL 12
REMARK VINA RESULT:      -6.6      2.535      9.334
REMARK  26 active torsions:
REMARK  status: ('A' for Active; 'I' for Inactive)
REMARK    1  A    between atoms: C2_2  and  C3_3 
REMARK    2  A    between atoms: C4_6  and  C5_7 
REMARK       I    between atoms: C5_7  and  N2_9 
REMARK    3  A    between atoms: N2_9  and  C6_10 
REMARK    4  A    between atoms: C6_10  and  C7_11 
REMARK    5  A    between atoms: C6_10  and  C8_13 
REMARK       I    between atoms: C7_11  and  N3_14 
REMARK    6  A    between atoms: N3_14  and  C9_15 
REMARK    7  A    between atoms: C9_15  and  C10_16 
REMARK    8  A    between atoms: C9_15  and  C11_18 
REMARK       I    between atoms: C10_16  and  N4_21 
REMARK    9  A    between atoms: C11_18  and  C12_19 
REMARK   10  A    between atoms: C11_18  and  C13_20 
REMARK   11  A    between atoms: N4_21  and  C14_22 
REMARK   12  A    between atoms: C14_22  and  C15_23 
REMARK   13  A    between atoms: C14_22  and  C16_25 
REMARK       I    between atoms: C15_23  and  N6_40 
REMARK   14  A    between atoms: C16_25  and  C17_26 
REMARK   15  A    between atoms: C17_26  and  C18_27 
REMARK   16  A    between atoms: C17_26  and  C19_28 
REMARK   17  A    between atoms: C20_29  and  C21_30 
REMARK   18  A    between atoms: C20_29  and  C24_33 
REMARK   19  A    between atoms: C20_29  and  N6_40 
REMARK   20  A    between atoms: C21_30  and  C22_31 
REMARK   21  A    between atoms: C22_31  and  C23_32 
REMARK   22  A    between atoms: C23_32  and  O8_43 
REMARK   23  A    between atoms: C24_33  and  C25_34 
REMARK   24  A    between atoms: C28_38  and  O6_39 
REMARK   25  A    between atoms: C29_42  and  O8_43 
REMARK   26  A    between atoms: C29_42  and  C35_49 
ROOT
ATOM      1  C14 non d ame     -34.203   8.519  24.948  0.00  0.00     0.089 C 
ATOM      2  H20 non d ame     -34.588   8.283  23.956  0.00  0.00     0.087 H 
ENDROOT
BRANCH   1   3
ATOM      3  N4  non d ame     -34.832   9.760  25.377  0.00  0.00    -0.346 N 
ATOM      4  C10 non d ame     -35.848  10.443  24.497  0.00  0.00     0.241 C 
ATOM      5  O4  non d ame     -36.141   9.978  23.446  0.00  0.00    -0.271 OA
ATOM      6  H19 non d ame     -34.567  10.140  26.275  0.00  0.00     0.163 HD
BRANCH   4   7
ATOM      7  C9  non d ame     -36.492  11.723  24.961  0.00  0.00     0.092 C 
ATOM      8  H11 non d ame     -36.840  11.599  25.987  0.00  0.00     0.088 H 
BRANCH   7   9
ATOM      9  N3  non d ame     -35.497  12.798  24.967  0.00  0.00    -0.346 N 
ATOM     10  C7  non d ame     -34.815  13.142  26.190  0.00  0.00     0.240 C 
ATOM     11  O3  non d ame     -35.057  12.564  27.179  0.00  0.00    -0.271 OA
ATOM     12  H10 non d ame     -35.279  13.307  24.122  0.00  0.00     0.163 HD
BRANCH  10  13
ATOM     13  C6  non d ame     -33.758  14.290  26.192  0.00  0.00     0.086 C 
ATOM     14  H6  non d ame     -32.943  14.112  26.894  0.00  0.00     0.086 H 
BRANCH  13  15
ATOM     15  N2  non d ame     -33.156  14.377  24.871  0.00  0.00    -0.343 N 
ATOM     16  C5  non d ame     -31.700  14.477  24.747  0.00  0.00     0.273 C 
ATOM     17  O2  non d ame     -31.022  14.489  25.716  0.00  0.00    -0.266 OA
ATOM     18  H5  non d ame     -33.743  14.370  24.050  0.00  0.00     0.163 HD
BRANCH  16  19
ATOM     19  C4  non d ame     -31.050  14.569  23.358  0.00  0.00     0.154 A 
ATOM     20  C1  non d ame     -31.448  15.411  22.271  0.00  0.00    -0.017 A 
ATOM     21  C2  non d ame     -30.537  15.117  21.232  0.00  0.00     0.077 A 
ATOM     22  H1  non d ame     -32.271  16.124  22.240  0.00  0.00     0.091 H 
ATOM     23  O1  non d ame     -29.715  14.214  21.681  0.00  0.00    -0.218 OA
ATOM     24  N1  non d ame     -29.995  13.878  22.919  0.00  0.00    -0.123 NA
BRANCH  21  25
ATOM     25  C3  non d ame     -30.520  15.745  19.844  0.00  0.00    -0.029 C 
ATOM     26  H2  non d ame     -29.715  16.478  19.787  0.00  0.00     0.036 H 
ATOM     27  H3  non d ame     -30.357  14.968  19.097  0.00  0.00     0.036 H 
ATOM     28  H4  non d ame     -31.473  16.237  19.656  0.00  0.00     0.036 H 
ENDBRANCH  21  25
ENDBRANCH  16  19
ENDBRANCH  13  15
BRANCH  13  29
ATOM     29  C8  non d ame     -34.429  15.594  26.541  0.00  0.00    -0.049 C 
ATOM     30  H7  non d ame     -34.690  16.125  25.626  0.00  0.00     0.030 H 
ATOM     31  H8  non d ame     -35.333  15.394  27.115  0.00  0.00     0.030 H 
ATOM     32  H9  non d ame     -33.748  16.205  27.135  0.00  0.00     0.030 H 
ENDBRANCH  13  29
ENDBRANCH  10  13
ENDBRANCH   7   9
BRANCH   7  33
ATOM     33  C11 non d ame     -37.652  12.099  23.993  0.00  0.00    -0.033 C 
ATOM     34  H12 non d ame     -37.607  11.416  23.145  0.00  0.00     0.042 H 
BRANCH  33  35
ATOM     35  C12 non d ame     -39.045  11.911  24.673  0.00  0.00    -0.071 C 
ATOM     36  H13 non d ame     -39.661  11.252  24.062  0.00  0.00     0.028 H 
ATOM     37  H14 non d ame     -38.910  11.471  25.660  0.00  0.00     0.028 H 
ATOM     38  H15 non d ame     -39.535  12.879  24.770  0.00  0.00     0.028 H 
ENDBRANCH  33  35
BRANCH  33  39
ATOM     39  C13 non d ame     -37.479  13.554  23.450  0.00  0.00    -0.071 C 
ATOM     40  H16 non d ame     -36.520  13.953  23.780  0.00  0.00     0.028 H 
ATOM     41  H17 non d ame     -37.512  13.542  22.360  0.00  0.00     0.028 H 
ATOM     42  H18 non d ame     -38.284  14.182  23.830  0.00  0.00     0.028 H 
ENDBRANCH  33  39
ENDBRANCH   7  33
ENDBRANCH   4   7
ENDBRANCH   1   3
BRANCH   1  43
ATOM     43  C15 non d ame     -34.534   7.410  25.987  0.00  0.00     0.240 C 
ATOM     44  O5  non d ame     -34.216   6.285  25.772  0.00  0.00    -0.271 OA
ATOM     45  N6  non d ame     -35.239   7.752  27.255  0.00  0.00    -0.355 N 
ATOM     46  H46 non d ame     -35.509   8.705  27.450  0.00  0.00     0.162 HD
BRANCH  45  47
ATOM     47  C20 non d ame     -35.546   6.686  28.234  0.00  0.00     0.013 C 
ATOM     48  H30 non d ame     -35.784   5.779  27.678  0.00  0.00     0.072 H 
BRANCH  47  49
ATOM     49  C21 non d ame     -36.731   7.105  29.073  0.00  0.00    -0.038 C 
ATOM     50  H31 non d ame     -37.591   6.582  28.651  0.00  0.00     0.036 H 
ATOM     51  H32 non d ame     -36.438   6.925  30.107  0.00  0.00     0.036 H 
BRANCH  49  52
ATOM     52  C22 non d ame     -37.041   8.613  28.963  0.00  0.00     0.018 C 
ATOM     53  H33 non d ame     -36.772   8.897  27.947  0.00  0.00     0.048 H 
ATOM     54  H34 non d ame     -38.071   8.728  29.306  0.00  0.00     0.048 H 
BRANCH  52  55
ATOM     55  C23 non d ame     -36.177   9.501  29.900  0.00  0.00     0.259 C 
ATOM     56  O7  non d ame     -36.564   9.788  30.986  0.00  0.00    -0.265 OA
BRANCH  55  57
ATOM     57  O8  non d ame     -34.920   9.982  29.439  0.00  0.00    -0.317 OA
BRANCH  57  58
ATOM     58  C29 non d ame     -33.908  10.026  30.450  0.00  0.00     0.052 C 
ATOM     59  H47 non d ame     -34.379  10.485  31.319  0.00  0.00     0.082 H 
ATOM     60  H48 non d ame     -33.513   9.012  30.516  0.00  0.00     0.082 H 
BRANCH  58  61
ATOM     61  C35 non d ame     -32.774  10.963  29.954  0.00  0.00    -0.034 A 
ATOM     62  C30 non d ame     -32.011  11.678  30.871  0.00  0.00    -0.075 A 
ATOM     63  C31 non d ame     -30.992  12.520  30.425  0.00  0.00    -0.082 A 
ATOM     64  H49 non d ame     -32.210  11.581  31.938  0.00  0.00     0.084 H 
ATOM     65  C32 non d ame     -30.741  12.647  29.056  0.00  0.00    -0.083 A 
ATOM     66  H50 non d ame     -30.395  13.079  31.146  0.00  0.00     0.083 H 
ATOM     67  C33 non d ame     -31.508  11.933  28.145  0.00  0.00    -0.082 A 
ATOM     68  H51 non d ame     -29.946  13.302  28.700  0.00  0.00     0.083 H 
ATOM     69  C34 non d ame     -32.525  11.089  28.586  0.00  0.00    -0.075 A 
ATOM     70  H52 non d ame     -31.310  12.036  27.077  0.00  0.00     0.083 H 
ATOM     71  H53 non d ame     -33.122  10.531  27.864  0.00  0.00     0.084 H 
ENDBRANCH  58  61
ENDBRANCH  57  58
ENDBRANCH  55  57
ENDBRANCH  52  55
ENDBRANCH  49  52
ENDBRANCH  47  49
BRANCH  47  72
ATOM     72  C24 non d ame     -34.337   6.452  29.138  0.00  0.00    -0.039 C 
ATOM     73  H35 non d ame     -33.475   6.789  28.561  0.00  0.00     0.036 H 
ATOM     74  H36 non d ame     -34.584   6.936  30.082  0.00  0.00     0.036 H 
BRANCH  72  75
ATOM     75  C25 non d ame     -34.121   4.895  29.447  0.00  0.00    -0.001 C 
ATOM     76  C26 non d ame     -33.942   4.666  31.065  0.00  0.00    -0.035 C 
ATOM     77  C27 non d ame     -32.822   3.936  31.281  0.00  0.00     0.085 C 
ATOM     78  H38 non d ame     -33.726   5.615  31.556  0.00  0.00     0.036 H 
ATOM     79  H39 non d ame     -34.739   4.026  31.443  0.00  0.00     0.036 H 
ATOM     80  N5  non d ame     -32.045   3.925  29.987  0.00  0.00    -0.049 N 
ATOM     81  H40 non d ame     -32.254   4.488  32.031  0.00  0.00     0.075 H 
ATOM     82  H41 non d ame     -33.169   2.925  31.495  0.00  0.00     0.075 H 
ATOM     83  C28 non d ame     -33.070   4.441  28.850  0.00  0.00     0.193 C 
ATOM     84  H42 non d ame     -31.308   4.608  30.089  0.00  0.00     0.280 HD
ATOM     85  H43 non d ame     -31.816   2.959  29.799  0.00  0.00     0.280 HD
ATOM     86  H44 non d ame     -33.525   3.738  28.155  0.00  0.00     0.129 H 
ATOM     87  H37 non d ame     -34.850   4.267  28.935  0.00  0.00     0.046 H 
BRANCH  83  88
ATOM     88  O6  non d ame     -32.442   5.433  28.035  0.00  0.00    -0.369 OA
ATOM     89  H45 non d ame     -31.658   5.061  27.626  0.00  0.00     0.212 HD
ENDBRANCH  83  88
ENDBRANCH  72  75
ENDBRANCH  47  72
ENDBRANCH  45  47
ENDBRANCH   1  43
BRANCH   1  90
ATOM     90  C16 non d ame     -32.698   8.724  24.880  0.00  0.00    -0.035 C 
ATOM     91  H21 non d ame     -32.411   9.086  25.867  0.00  0.00     0.037 H 
ATOM     92  H22 non d ame     -32.295   7.782  24.508  0.00  0.00     0.037 H 
BRANCH  90  93
ATOM     93  C17 non d ame     -32.260   9.825  23.863  0.00  0.00    -0.059 C 
ATOM     94  H23 non d ame     -33.157  10.347  23.532  0.00  0.00     0.038 H 
BRANCH  93  95
ATOM     95  C18 non d ame     -31.305  10.878  24.510  0.00  0.00    -0.073 C 
ATOM     96  H24 non d ame     -30.381  10.391  24.818  0.00  0.00     0.028 H 
ATOM     97  H25 non d ame     -31.078  11.658  23.782  0.00  0.00     0.028 H 
ATOM     98  H26 non d ame     -31.790  11.323  25.378  0.00  0.00     0.028 H 
ENDBRANCH  93  95
BRANCH  93  99
ATOM     99  C19 non d ame     -31.617   9.197  22.623  0.00  0.00    -0.073 C 
ATOM    100  H27 non d ame     -30.604   9.584  22.503  0.00  0.00     0.028 H 
ATOM    101  H28 non d ame     -31.579   8.114  22.741  0.00  0.00     0.028 H 
ATOM    102  H29 non d ame     -32.208   9.446  21.742  0.00  0.00     0.028 H 
ENDBRANCH  93  99
ENDBRANCH  90  93
ENDBRANCH   1  90
TORSDOF 26
ENDMDL
MODEL 13
REMARK VINA RESULT:      -6.6      1.472      2.901
REMARK  26 active torsions:
REMARK  status: ('A' for Active; 'I' for Inactive)
REMARK    1  A    between atoms: C2_2  and  C3_3 
REMARK    2  A    between atoms: C4_6  and  C5_7 
REMARK       I    between atoms: C5_7  and  N2_9 
REMARK    3  A    between atoms: N2_9  and  C6_10 
REMARK    4  A    between atoms: C6_10  and  C7_11 
REMARK    5  A    between atoms: C6_10  and  C8_13 
REMARK       I    between atoms: C7_11  and  N3_14 
REMARK    6  A    between atoms: N3_14  and  C9_15 
REMARK    7  A    between atoms: C9_15  and  C10_16 
REMARK    8  A    between atoms: C9_15  and  C11_18 
REMARK       I    between atoms: C10_16  and  N4_21 
REMARK    9  A    between atoms: C11_18  and  C12_19 
REMARK   10  A    between atoms: C11_18  and  C13_20 
REMARK   11  A    between atoms: N4_21  and  C14_22 
REMARK   12  A    between atoms: C14_22  and  C15_23 
REMARK   13  A    between atoms: C14_22  and  C16_25 
REMARK       I    between atoms: C15_23  and  N6_40 
REMARK   14  A    between atoms: C16_25  and  C17_26 
REMARK   15  A    between atoms: C17_26  and  C18_27 
REMARK   16  A    between atoms: C17_26  and  C19_28 
REMARK   17  A    between atoms: C20_29  and  C21_30 
REMARK   18  A    between atoms: C20_29  and  C24_33 
REMARK   19  A    between atoms: C20_29  and  N6_40 
REMARK   20  A    between atoms: C21_30  and  C22_31 
REMARK   21  A    between atoms: C22_31  and  C23_32 
REMARK   22  A    between atoms: C23_32  and  O8_43 
REMARK   23  A    between atoms: C24_33  and  C25_34 
REMARK   24  A    between atoms: C28_38  and  O6_39 
REMARK   25  A    between atoms: C29_42  and  O8_43 
REMARK   26  A    between atoms: C29_42  and  C35_49 
ROOT
ATOM      1  C14 non d ame     -33.060  10.371  25.616  0.00  0.00     0.089 C 
ATOM      2  H20 non d ame     -33.838  10.395  24.852  0.00  0.00     0.087 H 
ENDROOT
BRANCH   1   3
ATOM      3  N4  non d ame     -32.455   9.047  25.583  0.00  0.00    -0.346 N 
ATOM      4  C10 non d ame     -33.132   7.918  24.846  0.00  0.00     0.241 C 
ATOM      5  O4  non d ame     -34.164   8.098  24.290  0.00  0.00    -0.271 OA
ATOM      6  H19 non d ame     -31.577   8.915  26.065  0.00  0.00     0.163 HD
BRANCH   4   7
ATOM      7  C9  non d ame     -32.488   6.557  24.818  0.00  0.00     0.092 C 
ATOM      8  H11 non d ame     -31.434   6.653  25.078  0.00  0.00     0.088 H 
BRANCH   7   9
ATOM      9  N3  non d ame     -33.109   5.701  25.832  0.00  0.00    -0.346 N 
ATOM     10  C7  non d ame     -32.704   5.809  27.213  0.00  0.00     0.240 C 
ATOM     11  O3  non d ame     -31.879   6.579  27.524  0.00  0.00    -0.271 OA
ATOM     12  H10 non d ame     -33.821   5.032  25.579  0.00  0.00     0.163 HD
BRANCH  10  13
ATOM     13  C6  non d ame     -33.366   4.893  28.288  0.00  0.00     0.086 C 
ATOM     14  H6  non d ame     -32.741   4.758  29.170  0.00  0.00     0.086 H 
BRANCH  13  15
ATOM     15  N2  non d ame     -34.598   5.516  28.744  0.00  0.00    -0.343 N 
ATOM     16  C5  non d ame     -34.917   5.523  30.173  0.00  0.00     0.273 C 
ATOM     17  O2  non d ame     -34.178   5.023  30.948  0.00  0.00    -0.266 OA
ATOM     18  H5  non d ame     -35.226   5.938  28.074  0.00  0.00     0.163 HD
BRANCH  16  19
ATOM     19  C4  non d ame     -36.215   6.180  30.669  0.00  0.00     0.154 A 
ATOM     20  C1  non d ame     -36.518   7.578  30.705  0.00  0.00    -0.017 A 
ATOM     21  C2  non d ame     -37.823   7.654  31.240  0.00  0.00     0.077 A 
ATOM     22  H1  non d ame     -35.888   8.410  30.392  0.00  0.00     0.091 H 
ATOM     23  O1  non d ame     -38.215   6.436  31.478  0.00  0.00    -0.218 OA
ATOM     24  N1  non d ame     -37.294   5.559  31.153  0.00  0.00    -0.123 NA
BRANCH  21  25
ATOM     25  C3  non d ame     -38.622   8.925  31.491  0.00  0.00    -0.029 C 
ATOM     26  H2  non d ame     -39.188   8.823  32.418  0.00  0.00     0.036 H 
ATOM     27  H3  non d ame     -37.941   9.772  31.574  0.00  0.00     0.036 H 
ATOM     28  H4  non d ame     -39.310   9.092  30.663  0.00  0.00     0.036 H 
ENDBRANCH  21  25
ENDBRANCH  16  19
ENDBRANCH  13  15
BRANCH  13  29
ATOM     29  C8  non d ame     -33.663   3.542  27.688  0.00  0.00    -0.049 C 
ATOM     30  H7  non d ame     -34.065   3.670  26.683  0.00  0.00     0.030 H 
ATOM     31  H8  non d ame     -32.744   2.958  27.639  0.00  0.00     0.030 H 
ATOM     32  H9  non d ame     -34.392   3.021  28.308  0.00  0.00     0.030 H 
ENDBRANCH  13  29
ENDBRANCH  10  13
ENDBRANCH   7   9
BRANCH   7  33
ATOM     33  C11 non d ame     -32.687   5.919  23.412  0.00  0.00    -0.033 C 
ATOM     34  H12 non d ame     -33.522   6.433  22.934  0.00  0.00     0.042 H 
BRANCH  33  35
ATOM     35  C12 non d ame     -31.430   6.125  22.510  0.00  0.00    -0.071 C 
ATOM     36  H13 non d ame     -31.395   5.344  21.751  0.00  0.00     0.028 H 
ATOM     37  H14 non d ame     -31.486   7.100  22.026  0.00  0.00     0.028 H 
ATOM     38  H15 non d ame     -30.530   6.075  23.124  0.00  0.00     0.028 H 
ENDBRANCH  33  35
BRANCH  33  39
ATOM     39  C13 non d ame     -33.056   4.406  23.532  0.00  0.00    -0.071 C 
ATOM     40  H16 non d ame     -33.679   4.115  22.685  0.00  0.00     0.028 H 
ATOM     41  H17 non d ame     -32.144   3.808  23.534  0.00  0.00     0.028 H 
ATOM     42  H18 non d ame     -33.602   4.237  24.460  0.00  0.00     0.028 H 
ENDBRANCH  33  39
ENDBRANCH   7  33
ENDBRANCH   4   7
ENDBRANCH   1   3
BRANCH   1  43
ATOM     43  C15 non d ame     -31.950  11.429  25.359  0.00  0.00     0.240 C 
ATOM     44  O5  non d ame     -30.819  11.083  25.242  0.00  0.00    -0.271 OA
ATOM     45  N6  non d ame     -32.298  12.874  25.248  0.00  0.00    -0.355 N 
ATOM     46  H46 non d ame     -33.257  13.180  25.341  0.00  0.00     0.162 HD
BRANCH  45  47
ATOM     47  C20 non d ame     -31.232  13.869  25.002  0.00  0.00     0.013 C 
ATOM     48  H30 non d ame     -30.308  13.327  24.801  0.00  0.00     0.072 H 
BRANCH  47  49
ATOM     49  C21 non d ame     -31.065  14.738  26.228  0.00  0.00    -0.038 C 
ATOM     50  H31 non d ame     -30.112  15.253  26.096  0.00  0.00     0.036 H 
ATOM     51  H32 non d ame     -31.988  15.311  26.311  0.00  0.00     0.036 H 
BRANCH  49  52
ATOM     52  C22 non d ame     -30.941  13.918  27.531  0.00  0.00     0.018 C 
ATOM     53  H33 non d ame     -31.558  13.033  27.383  0.00  0.00     0.048 H 
ATOM     54  H34 non d ame     -29.870  13.812  27.710  0.00  0.00     0.048 H 
BRANCH  52  55
ATOM     55  C23 non d ame     -31.515  14.639  28.781  0.00  0.00     0.259 C 
ATOM     56  O7  non d ame     -31.014  14.487  29.848  0.00  0.00    -0.265 OA
BRANCH  55  57
ATOM     57  O8  non d ame     -32.659  15.473  28.641  0.00  0.00    -0.317 OA
BRANCH  57  58
ATOM     58  C29 non d ame     -32.434  16.836  29.014  0.00  0.00     0.052 C 
ATOM     59  H47 non d ame     -33.100  17.024  29.856  0.00  0.00     0.082 H 
ATOM     60  H48 non d ame     -31.356  16.934  29.138  0.00  0.00     0.082 H 
BRANCH  58  61
ATOM     61  C35 non d ame     -32.876  17.736  27.829  0.00  0.00    -0.034 A 
ATOM     62  C30 non d ame     -32.525  19.082  27.809  0.00  0.00    -0.075 A 
ATOM     63  C31 non d ame     -32.922  19.891  26.744  0.00  0.00    -0.082 A 
ATOM     64  H49 non d ame     -31.941  19.504  28.627  0.00  0.00     0.084 H 
ATOM     65  C32 non d ame     -33.674  19.349  25.699  0.00  0.00    -0.083 A 
ATOM     66  H50 non d ame     -32.645  20.946  26.731  0.00  0.00     0.083 H 
ATOM     67  C33 non d ame     -34.024  18.006  25.725  0.00  0.00    -0.082 A 
ATOM     68  H51 non d ame     -33.987  19.974  24.863  0.00  0.00     0.083 H 
ATOM     69  C34 non d ame     -33.628  17.194  26.785  0.00  0.00    -0.075 A 
ATOM     70  H52 non d ame     -34.612  17.586  24.908  0.00  0.00     0.083 H 
ATOM     71  H53 non d ame     -33.906  16.139  26.798  0.00  0.00     0.084 H 
ENDBRANCH  58  61
ENDBRANCH  57  58
ENDBRANCH  55  57
ENDBRANCH  52  55
ENDBRANCH  49  52
ENDBRANCH  47  49
BRANCH  47  72
ATOM     72  C24 non d ame     -31.605  14.742  23.805  0.00  0.00    -0.039 C 
ATOM     73  H35 non d ame     -32.616  14.437  23.529  0.00  0.00     0.036 H 
ATOM     74  H36 non d ame     -31.413  15.766  24.123  0.00  0.00     0.036 H 
BRANCH  72  75
ATOM     75  C25 non d ame     -30.662  14.453  22.543  0.00  0.00    -0.001 C 
ATOM     76  C26 non d ame     -29.166  14.005  23.055  0.00  0.00    -0.035 C 
ATOM     77  C27 non d ame     -28.242  14.769  22.424  0.00  0.00     0.085 C 
ATOM     78  H38 non d ame     -29.036  14.262  24.105  0.00  0.00     0.036 H 
ATOM     79  H39 non d ame     -28.939  12.996  22.709  0.00  0.00     0.036 H 
ATOM     80  N5  non d ame     -28.983  15.915  21.780  0.00  0.00    -0.049 N 
ATOM     81  H40 non d ame     -27.600  15.160  23.214  0.00  0.00     0.075 H 
ATOM     82  H41 non d ame     -27.821  14.135  21.644  0.00  0.00     0.075 H 
ATOM     83  C28 non d ame     -30.543  15.502  21.798  0.00  0.00     0.193 C 
ATOM     84  H42 non d ame     -28.855  16.715  22.383  0.00  0.00     0.280 HD
ATOM     85  H43 non d ame     -28.671  15.953  20.820  0.00  0.00     0.280 HD
ATOM     86  H44 non d ame     -31.036  15.157  20.890  0.00  0.00     0.129 H 
ATOM     87  H37 non d ame     -31.146  13.815  21.804  0.00  0.00     0.046 H 
BRANCH  83  88
ATOM     88  O6  non d ame     -31.337  16.592  22.272  0.00  0.00    -0.369 OA
ATOM     89  H45 non d ame     -31.022  16.865  23.137  0.00  0.00     0.212 HD
ENDBRANCH  83  88
ENDBRANCH  72  75
ENDBRANCH  47  72
ENDBRANCH  45  47
ENDBRANCH   1  43
BRANCH   1  90
ATOM     90  C16 non d ame     -33.678  10.600  26.986  0.00  0.00    -0.035 C 
ATOM     91  H21 non d ame     -33.586   9.647  27.507  0.00  0.00     0.037 H 
ATOM     92  H22 non d ame     -33.183  11.486  27.381  0.00  0.00     0.037 H 
BRANCH  90  93
ATOM     93  C17 non d ame     -35.204  10.930  26.939  0.00  0.00    -0.059 C 
ATOM     94  H23 non d ame     -35.598  10.538  26.002  0.00  0.00     0.038 H 
BRANCH  93  95
ATOM     95  C18 non d ame     -35.989  10.254  28.108  0.00  0.00    -0.073 C 
ATOM     96  H24 non d ame     -35.291   9.952  28.888  0.00  0.00     0.028 H 
ATOM     97  H25 non d ame     -36.708  10.963  28.520  0.00  0.00     0.028 H 
ATOM     98  H26 non d ame     -36.517   9.378  27.733  0.00  0.00     0.028 H 
ENDBRANCH  93  95
BRANCH  93  99
ATOM     99  C19 non d ame     -35.435  12.443  26.932  0.00  0.00    -0.073 C 
ATOM    100  H27 non d ame     -35.221  12.839  25.938  0.00  0.00     0.028 H 
ATOM    101  H28 non d ame     -36.473  12.654  27.189  0.00  0.00     0.028 H 
ATOM    102  H29 non d ame     -34.778  12.915  27.661  0.00  0.00     0.028 H 
ENDBRANCH  93  99
ENDBRANCH  90  93
ENDBRANCH   1  90
TORSDOF 26
ENDMDL
MODEL 14
REMARK VINA RESULT:      -6.5      1.978     10.470
REMARK  26 active torsions:
REMARK  status: ('A' for Active; 'I' for Inactive)
REMARK    1  A    between atoms: C2_2  and  C3_3 
REMARK    2  A    between atoms: C4_6  and  C5_7 
REMARK       I    between atoms: C5_7  and  N2_9 
REMARK    3  A    between atoms: N2_9  and  C6_10 
REMARK    4  A    between atoms: C6_10  and  C7_11 
REMARK    5  A    between atoms: C6_10  and  C8_13 
REMARK       I    between atoms: C7_11  and  N3_14 
REMARK    6  A    between atoms: N3_14  and  C9_15 
REMARK    7  A    between atoms: C9_15  and  C10_16 
REMARK    8  A    between atoms: C9_15  and  C11_18 
REMARK       I    between atoms: C10_16  and  N4_21 
REMARK    9  A    between atoms: C11_18  and  C12_19 
REMARK   10  A    between atoms: C11_18  and  C13_20 
REMARK   11  A    between atoms: N4_21  and  C14_22 
REMARK   12  A    between atoms: C14_22  and  C15_23 
REMARK   13  A    between atoms: C14_22  and  C16_25 
REMARK       I    between atoms: C15_23  and  N6_40 
REMARK   14  A    between atoms: C16_25  and  C17_26 
REMARK   15  A    between atoms: C17_26  and  C18_27 
REMARK   16  A    between atoms: C17_26  and  C19_28 
REMARK   17  A    between atoms: C20_29  and  C21_30 
REMARK   18  A    between atoms: C20_29  and  C24_33 
REMARK   19  A    between atoms: C20_29  and  N6_40 
REMARK   20  A    between atoms: C21_30  and  C22_31 
REMARK   21  A    between atoms: C22_31  and  C23_32 
REMARK   22  A    between atoms: C23_32  and  O8_43 
REMARK   23  A    between atoms: C24_33  and  C25_34 
REMARK   24  A    between atoms: C28_38  and  O6_39 
REMARK   25  A    between atoms: C29_42  and  O8_43 
REMARK   26  A    between atoms: C29_42  and  C35_49 
ROOT
ATOM      1  C14 non d ame     -33.146  10.306  29.725  0.00  0.00     0.089 C 
ATOM      2  H20 non d ame     -32.074  10.133  29.620  0.00  0.00     0.087 H 
ENDROOT
BRANCH   1   3
ATOM      3  N4  non d ame     -33.674  10.597  28.401  0.00  0.00    -0.346 N 
ATOM      4  C10 non d ame     -32.743  10.738  27.223  0.00  0.00     0.241 C 
ATOM      5  O4  non d ame     -31.572  10.617  27.366  0.00  0.00    -0.271 OA
ATOM      6  H19 non d ame     -34.674  10.699  28.301  0.00  0.00     0.163 HD
BRANCH   4   7
ATOM      7  C9  non d ame     -33.309  11.033  25.859  0.00  0.00     0.092 C 
ATOM      8  H11 non d ame     -34.395  10.933  25.891  0.00  0.00     0.088 H 
BRANCH   7   9
ATOM      9  N3  non d ame     -33.012  12.421  25.496  0.00  0.00    -0.346 N 
ATOM     10  C7  non d ame     -33.729  13.501  26.129  0.00  0.00     0.240 C 
ATOM     11  O3  non d ame     -34.549  13.270  26.931  0.00  0.00    -0.271 OA
ATOM     12  H10 non d ame     -32.309  12.636  24.804  0.00  0.00     0.163 HD
BRANCH  10  13
ATOM     13  C6  non d ame     -33.410  14.977  25.736  0.00  0.00     0.086 C 
ATOM     14  H6  non d ame     -32.727  15.461  26.434  0.00  0.00     0.086 H 
BRANCH  13  15
ATOM     15  N2  non d ame     -32.756  14.988  24.438  0.00  0.00    -0.343 N 
ATOM     16  C5  non d ame     -31.486  15.701  24.276  0.00  0.00     0.273 C 
ATOM     17  O2  non d ame     -31.002  16.264  25.195  0.00  0.00    -0.266 OA
ATOM     18  H5  non d ame     -33.179  14.508  23.657  0.00  0.00     0.163 HD
BRANCH  16  19
ATOM     19  C4  non d ame     -30.783  15.720  22.911  0.00  0.00     0.154 A 
ATOM     20  C1  non d ame     -31.392  15.884  21.626  0.00  0.00    -0.017 A 
ATOM     21  C2  non d ame     -30.322  15.828  20.706  0.00  0.00     0.077 A 
ATOM     22  H1  non d ame     -32.449  16.022  21.396  0.00  0.00     0.091 H 
ATOM     23  O1  non d ame     -29.230  15.655  21.392  0.00  0.00    -0.218 OA
ATOM     24  N1  non d ame     -29.474  15.588  22.680  0.00  0.00    -0.123 NA
BRANCH  21  25
ATOM     25  C3  non d ame     -30.427  15.950  19.192  0.00  0.00    -0.029 C 
ATOM     26  H2  non d ame     -31.120  15.198  18.814  0.00  0.00     0.036 H 
ATOM     27  H3  non d ame     -30.793  16.943  18.932  0.00  0.00     0.036 H 
ATOM     28  H4  non d ame     -29.446  15.796  18.745  0.00  0.00     0.036 H 
ENDBRANCH  21  25
ENDBRANCH  16  19
ENDBRANCH  13  15
BRANCH  13  29
ATOM     29  C8  non d ame     -34.691  15.772  25.676  0.00  0.00    -0.049 C 
ATOM     30  H7  non d ame     -35.328  15.498  26.516  0.00  0.00     0.030 H 
ATOM     31  H8  non d ame     -34.460  16.836  25.727  0.00  0.00     0.030 H 
ATOM     32  H9  non d ame     -35.208  15.556  24.741  0.00  0.00     0.030 H 
ENDBRANCH  13  29
ENDBRANCH  10  13
ENDBRANCH   7   9
BRANCH   7  33
ATOM     33  C11 non d ame     -32.666  10.077  24.813  0.00  0.00    -0.033 C 
ATOM     34  H12 non d ame     -32.172   9.274  25.362  0.00  0.00     0.042 H 
BRANCH  33  35
ATOM     35  C12 non d ame     -33.747   9.423  23.897  0.00  0.00    -0.071 C 
ATOM     36  H13 non d ame     -33.644   9.806  22.882  0.00  0.00     0.028 H 
ATOM     37  H14 non d ame     -33.613   8.342  23.893  0.00  0.00     0.028 H 
ATOM     38  H15 non d ame     -34.740   9.665  24.277  0.00  0.00     0.028 H 
ENDBRANCH  33  35
BRANCH  33  39
ATOM     39  C13 non d ame     -31.582  10.820  23.967  0.00  0.00    -0.071 C 
ATOM     40  H16 non d ame     -32.011  11.729  23.545  0.00  0.00     0.028 H 
ATOM     41  H17 non d ame     -30.737  11.079  24.606  0.00  0.00     0.028 H 
ATOM     42  H18 non d ame     -31.241  10.170  23.162  0.00  0.00     0.028 H 
ENDBRANCH  33  39
ENDBRANCH   7  33
ENDBRANCH   4   7
ENDBRANCH   1   3
BRANCH   1  43
ATOM     43  C15 non d ame     -33.889   9.064  30.294  0.00  0.00     0.240 C 
ATOM     44  O5  non d ame     -34.183   9.027  31.445  0.00  0.00    -0.271 OA
ATOM     45  N6  non d ame     -34.242   7.924  29.402  0.00  0.00    -0.355 N 
ATOM     46  H46 non d ame     -34.002   7.947  28.421  0.00  0.00     0.162 HD
BRANCH  45  47
ATOM     47  C20 non d ame     -34.951   6.750  29.957  0.00  0.00     0.013 C 
ATOM     48  H30 non d ame     -34.607   6.605  30.981  0.00  0.00     0.072 H 
BRANCH  47  49
ATOM     49  C21 non d ame     -34.626   5.530  29.125  0.00  0.00    -0.038 C 
ATOM     50  H31 non d ame     -34.545   4.704  29.832  0.00  0.00     0.036 H 
ATOM     51  H32 non d ame     -35.378   5.502  28.337  0.00  0.00     0.036 H 
BRANCH  49  52
ATOM     52  C22 non d ame     -33.257   5.634  28.418  0.00  0.00     0.018 C 
ATOM     53  H33 non d ame     -33.097   6.697  28.239  0.00  0.00     0.048 H 
ATOM     54  H34 non d ame     -32.559   5.076  29.043  0.00  0.00     0.048 H 
BRANCH  52  55
ATOM     55  C23 non d ame     -33.220   4.954  27.022  0.00  0.00     0.259 C 
ATOM     56  O7  non d ame     -33.327   3.775  26.921  0.00  0.00    -0.265 OA
BRANCH  55  57
ATOM     57  O8  non d ame     -33.041   5.756  25.860  0.00  0.00    -0.317 OA
BRANCH  57  58
ATOM     58  C29 non d ame     -33.019   5.013  24.638  0.00  0.00     0.052 C 
ATOM     59  H47 non d ame     -32.323   4.192  24.804  0.00  0.00     0.082 H 
ATOM     60  H48 non d ame     -34.062   4.804  24.401  0.00  0.00     0.082 H 
BRANCH  58  61
ATOM     61  C35 non d ame     -32.439   5.931  23.528  0.00  0.00    -0.034 A 
ATOM     62  C30 non d ame     -31.255   6.628  23.750  0.00  0.00    -0.075 A 
ATOM     63  C31 non d ame     -30.734   7.453  22.754  0.00  0.00    -0.082 A 
ATOM     64  H49 non d ame     -30.736   6.529  24.703  0.00  0.00     0.084 H 
ATOM     65  C32 non d ame     -31.403   7.581  21.534  0.00  0.00    -0.083 A 
ATOM     66  H50 non d ame     -29.805   7.997  22.930  0.00  0.00     0.083 H 
ATOM     67  C33 non d ame     -32.585   6.887  21.319  0.00  0.00    -0.082 A 
ATOM     68  H51 non d ame     -31.001   8.224  20.750  0.00  0.00     0.083 H 
ATOM     69  C34 non d ame     -33.108   6.060  22.310  0.00  0.00    -0.075 A 
ATOM     70  H52 non d ame     -33.106   6.991  20.366  0.00  0.00     0.083 H 
ATOM     71  H53 non d ame     -34.037   5.517  22.133  0.00  0.00     0.084 H 
ENDBRANCH  58  61
ENDBRANCH  57  58
ENDBRANCH  55  57
ENDBRANCH  52  55
ENDBRANCH  49  52
ENDBRANCH  47  49
BRANCH  47  72
ATOM     72  C24 non d ame     -36.458   6.997  29.933  0.00  0.00    -0.039 C 
ATOM     73  H35 non d ame     -36.812   6.723  30.928  0.00  0.00     0.036 H 
ATOM     74  H36 non d ame     -36.579   8.019  29.574  0.00  0.00     0.036 H 
BRANCH  72  75
ATOM     75  C25 non d ame     -37.200   6.038  28.886  0.00  0.00    -0.001 C 
ATOM     76  C26 non d ame     -37.742   6.918  27.608  0.00  0.00    -0.035 C 
ATOM     77  C27 non d ame     -39.053   6.639  27.411  0.00  0.00     0.085 C 
ATOM     78  H38 non d ame     -37.742   7.979  27.858  0.00  0.00     0.036 H 
ATOM     79  H39 non d ame     -37.268   6.574  26.689  0.00  0.00     0.036 H 
ATOM     80  N5  non d ame     -39.536   5.902  28.636  0.00  0.00    -0.049 N 
ATOM     81  H40 non d ame     -39.552   7.608  27.360  0.00  0.00     0.075 H 
ATOM     82  H41 non d ame     -39.082   5.965  26.556  0.00  0.00     0.075 H 
ATOM     83  C28 non d ame     -38.208   5.442  29.431  0.00  0.00     0.193 C 
ATOM     84  H42 non d ame     -40.031   6.577  29.201  0.00  0.00     0.280 HD
ATOM     85  H43 non d ame     -40.014   5.076  28.303  0.00  0.00     0.280 HD
ATOM     86  H44 non d ame     -37.870   4.407  29.393  0.00  0.00     0.129 H 
ATOM     87  H37 non d ame     -36.619   5.144  28.661  0.00  0.00     0.046 H 
BRANCH  83  88
ATOM     88  O6  non d ame     -38.332   5.753  30.820  0.00  0.00    -0.369 OA
ATOM     89  H45 non d ame     -37.806   6.529  31.022  0.00  0.00     0.212 HD
ENDBRANCH  83  88
ENDBRANCH  72  75
ENDBRANCH  47  72
ENDBRANCH  45  47
ENDBRANCH   1  43
BRANCH   1  90
ATOM     90  C16 non d ame     -33.386  11.504  30.630  0.00  0.00    -0.035 C 
ATOM     91  H21 non d ame     -34.190  12.067  30.156  0.00  0.00     0.037 H 
ATOM     92  H22 non d ame     -33.527  11.089  31.627  0.00  0.00     0.037 H 
BRANCH  90  93
ATOM     93  C17 non d ame     -32.166  12.475  30.723  0.00  0.00    -0.059 C 
ATOM     94  H23 non d ame     -32.227  12.992  31.680  0.00  0.00     0.038 H 
BRANCH  93  95
ATOM     95  C18 non d ame     -30.803  11.713  30.677  0.00  0.00    -0.073 C 
ATOM     96  H24 non d ame     -30.642  11.198  31.624  0.00  0.00     0.028 H 
ATOM     97  H25 non d ame     -30.821  10.984  29.867  0.00  0.00     0.028 H 
ATOM     98  H26 non d ame     -29.995  12.424  30.508  0.00  0.00     0.028 H 
ENDBRANCH  93  95
BRANCH  93  99
ATOM     99  C19 non d ame     -32.231  13.541  29.626  0.00  0.00    -0.073 C 
ATOM    100  H27 non d ame     -31.294  14.099  29.606  0.00  0.00     0.028 H 
ATOM    101  H28 non d ame     -32.386  13.060  28.660  0.00  0.00     0.028 H 
ATOM    102  H29 non d ame     -33.056  14.222  29.830  0.00  0.00     0.028 H 
ENDBRANCH  93  99
ENDBRANCH  90  93
ENDBRANCH   1  90
TORSDOF 26
ENDMDL
MODEL 15
REMARK VINA RESULT:      -6.5      2.608      6.434
REMARK  26 active torsions:
REMARK  status: ('A' for Active; 'I' for Inactive)
REMARK    1  A    between atoms: C2_2  and  C3_3 
REMARK    2  A    between atoms: C4_6  and  C5_7 
REMARK       I    between atoms: C5_7  and  N2_9 
REMARK    3  A    between atoms: N2_9  and  C6_10 
REMARK    4  A    between atoms: C6_10  and  C7_11 
REMARK    5  A    between atoms: C6_10  and  C8_13 
REMARK       I    between atoms: C7_11  and  N3_14 
REMARK    6  A    between atoms: N3_14  and  C9_15 
REMARK    7  A    between atoms: C9_15  and  C10_16 
REMARK    8  A    between atoms: C9_15  and  C11_18 
REMARK       I    between atoms: C10_16  and  N4_21 
REMARK    9  A    between atoms: C11_18  and  C12_19 
REMARK   10  A    between atoms: C11_18  and  C13_20 
REMARK   11  A    between atoms: N4_21  and  C14_22 
REMARK   12  A    between atoms: C14_22  and  C15_23 
REMARK   13  A    between atoms: C14_22  and  C16_25 
REMARK       I    between atoms: C15_23  and  N6_40 
REMARK   14  A    between atoms: C16_25  and  C17_26 
REMARK   15  A    between atoms: C17_26  and  C18_27 
REMARK   16  A    between atoms: C17_26  and  C19_28 
REMARK   17  A    between atoms: C20_29  and  C21_30 
REMARK   18  A    between atoms: C20_29  and  C24_33 
REMARK   19  A    between atoms: C20_29  and  N6_40 
REMARK   20  A    between atoms: C21_30  and  C22_31 
REMARK   21  A    between atoms: C22_31  and  C23_32 
REMARK   22  A    between atoms: C23_32  and  O8_43 
REMARK   23  A    between atoms: C24_33  and  C25_34 
REMARK   24  A    between atoms: C28_38  and  O6_39 
REMARK   25  A    between atoms: C29_42  and  O8_43 
REMARK   26  A    between atoms: C29_42  and  C35_49 
ROOT
ATOM      1  C14 non d ame     -32.942  12.358  29.327  0.00  0.00     0.089 C 
ATOM      2  H20 non d ame     -32.821  12.544  30.395  0.00  0.00     0.087 H 
ENDROOT
BRANCH   1   3
ATOM      3  N4  non d ame     -33.847  11.228  29.179  0.00  0.00    -0.346 N 
ATOM      4  C10 non d ame     -33.926  10.169  30.250  0.00  0.00     0.241 C 
ATOM      5  O4  non d ame     -33.248  10.246  31.221  0.00  0.00    -0.271 OA
ATOM      6  H19 non d ame     -34.414  11.180  28.344  0.00  0.00     0.163 HD
BRANCH   4   7
ATOM      7  C9  non d ame     -34.873   9.010  30.082  0.00  0.00     0.092 C 
ATOM      8  H11 non d ame     -35.783   9.358  29.593  0.00  0.00     0.088 H 
BRANCH   7   9
ATOM      9  N3  non d ame     -34.266   8.005  29.206  0.00  0.00    -0.346 N 
ATOM     10  C7  non d ame     -34.519   8.040  27.786  0.00  0.00     0.240 C 
ATOM     11  O3  non d ame     -35.210   8.869  27.333  0.00  0.00    -0.271 OA
ATOM     12  H10 non d ame     -33.669   7.283  29.582  0.00  0.00     0.163 HD
BRANCH  10  13
ATOM     13  C6  non d ame     -33.872   6.965  26.858  0.00  0.00     0.086 C 
ATOM     14  H6  non d ame     -34.589   6.512  26.174  0.00  0.00     0.086 H 
BRANCH  13  15
ATOM     15  N2  non d ame     -32.859   7.604  26.034  0.00  0.00    -0.343 N 
ATOM     16  C5  non d ame     -33.122   7.826  24.610  0.00  0.00     0.273 C 
ATOM     17  O2  non d ame     -34.150   7.486  24.137  0.00  0.00    -0.266 OA
ATOM     18  H5  non d ame     -31.981   7.888  26.445  0.00  0.00     0.163 HD
BRANCH  16  19
ATOM     19  C4  non d ame     -32.060   8.501  23.727  0.00  0.00     0.154 A 
ATOM     20  C1  non d ame     -31.616   9.859  23.795  0.00  0.00    -0.017 A 
ATOM     21  C2  non d ame     -30.641   9.974  22.779  0.00  0.00     0.077 A 
ATOM     22  H1  non d ame     -31.950  10.642  24.475  0.00  0.00     0.091 H 
ATOM     23  O1  non d ame     -30.542   8.810  22.204  0.00  0.00    -0.218 OA
ATOM     24  N1  non d ame     -31.362   7.935  22.739  0.00  0.00    -0.123 NA
BRANCH  21  25
ATOM     25  C3  non d ame     -29.850  11.226  22.425  0.00  0.00    -0.029 C 
ATOM     26  H2  non d ame     -30.236  11.650  21.498  0.00  0.00     0.036 H 
ATOM     27  H3  non d ame     -29.950  11.957  23.227  0.00  0.00     0.036 H 
ATOM     28  H4  non d ame     -28.800  10.969  22.297  0.00  0.00     0.036 H 
ENDBRANCH  21  25
ENDBRANCH  16  19
ENDBRANCH  13  15
BRANCH  13  29
ATOM     29  C8  non d ame     -33.246   5.881  27.699  0.00  0.00    -0.049 C 
ATOM     30  H7  non d ame     -33.412   6.098  28.753  0.00  0.00     0.030 H 
ATOM     31  H8  non d ame     -33.700   4.922  27.450  0.00  0.00     0.030 H 
ATOM     32  H9  non d ame     -32.175   5.840  27.499  0.00  0.00     0.030 H 
ENDBRANCH  13  29
ENDBRANCH  10  13
ENDBRANCH   7   9
BRANCH   7  33
ATOM     33  C11 non d ame     -35.164   8.374  31.473  0.00  0.00    -0.033 C 
ATOM     34  H12 non d ame     -34.344   8.647  32.137  0.00  0.00     0.042 H 
BRANCH  33  35
ATOM     35  C12 non d ame     -36.479   8.940  32.094  0.00  0.00    -0.071 C 
ATOM     36  H13 non d ame     -36.232   9.640  32.893  0.00  0.00     0.028 H 
ATOM     37  H14 non d ame     -37.051   9.456  31.323  0.00  0.00     0.028 H 
ATOM     38  H15 non d ame     -37.072   8.121  32.500  0.00  0.00     0.028 H 
ENDBRANCH  33  35
BRANCH  33  39
ATOM     39  C13 non d ame     -35.209   6.815  31.376  0.00  0.00    -0.071 C 
ATOM     40  H16 non d ame     -36.230   6.492  31.169  0.00  0.00     0.028 H 
ATOM     41  H17 non d ame     -34.552   6.481  30.573  0.00  0.00     0.028 H 
ATOM     42  H18 non d ame     -34.875   6.383  32.319  0.00  0.00     0.028 H 
ENDBRANCH  33  39
ENDBRANCH   7  33
ENDBRANCH   4   7
ENDBRANCH   1   3
BRANCH   1  43
ATOM     43  C15 non d ame     -33.551  13.581  28.583  0.00  0.00     0.240 C 
ATOM     44  O5  non d ame     -33.313  14.682  28.963  0.00  0.00    -0.271 OA
ATOM     45  N6  non d ame     -34.422  13.381  27.391  0.00  0.00    -0.355 N 
ATOM     46  H46 non d ame     -34.626  12.450  27.055  0.00  0.00     0.162 HD
BRANCH  45  47
ATOM     47  C20 non d ame     -34.992  14.554  26.692  0.00  0.00     0.013 C 
ATOM     48  H30 non d ame     -34.838  15.428  27.326  0.00  0.00     0.072 H 
BRANCH  47  49
ATOM     49  C21 non d ame     -36.470  14.332  26.467  0.00  0.00    -0.038 C 
ATOM     50  H31 non d ame     -36.602  13.250  26.420  0.00  0.00     0.036 H 
ATOM     51  H32 non d ame     -36.975  14.909  27.241  0.00  0.00     0.036 H 
BRANCH  49  52
ATOM     52  C22 non d ame     -36.961  14.891  25.115  0.00  0.00     0.018 C 
ATOM     53  H33 non d ame     -36.077  14.953  24.482  0.00  0.00     0.048 H 
ATOM     54  H34 non d ame     -37.798  14.256  24.820  0.00  0.00     0.048 H 
BRANCH  52  55
ATOM     55  C23 non d ame     -37.529  16.334  25.202  0.00  0.00     0.259 C 
ATOM     56  O7  non d ame     -38.701  16.519  25.278  0.00  0.00    -0.265 OA
BRANCH  55  57
ATOM     57  O8  non d ame     -36.632  17.439  25.175  0.00  0.00    -0.317 OA
BRANCH  57  58
ATOM     58  C29 non d ame     -36.526  18.132  26.422  0.00  0.00     0.052 C 
ATOM     59  H47 non d ame     -37.091  19.055  26.296  0.00  0.00     0.082 H 
ATOM     60  H48 non d ame     -36.820  17.412  27.186  0.00  0.00     0.082 H 
BRANCH  58  61
ATOM     61  C35 non d ame     -35.033  18.497  26.642  0.00  0.00    -0.034 A 
ATOM     62  C30 non d ame     -34.404  19.398  25.787  0.00  0.00    -0.075 A 
ATOM     63  C31 non d ame     -33.063  19.725  25.984  0.00  0.00    -0.082 A 
ATOM     64  H49 non d ame     -34.960  19.845  24.964  0.00  0.00     0.084 H 
ATOM     65  C32 non d ame     -32.351  19.148  27.038  0.00  0.00    -0.083 A 
ATOM     66  H50 non d ame     -32.573  20.432  25.314  0.00  0.00     0.083 H 
ATOM     67  C33 non d ame     -32.982  18.248  27.886  0.00  0.00    -0.082 A 
ATOM     68  H51 non d ame     -31.303  19.400  27.199  0.00  0.00     0.083 H 
ATOM     69  C34 non d ame     -34.322  17.919  27.694  0.00  0.00    -0.075 A 
ATOM     70  H52 non d ame     -32.423  17.797  28.707  0.00  0.00     0.083 H 
ATOM     71  H53 non d ame     -34.811  17.212  28.365  0.00  0.00     0.084 H 
ENDBRANCH  58  61
ENDBRANCH  57  58
ENDBRANCH  55  57
ENDBRANCH  52  55
ENDBRANCH  49  52
ENDBRANCH  47  49
BRANCH  47  72
ATOM     72  C24 non d ame     -34.293  14.745  25.348  0.00  0.00    -0.039 C 
ATOM     73  H35 non d ame     -34.320  13.766  24.867  0.00  0.00     0.036 H 
ATOM     74  H36 non d ame     -34.791  15.594  24.881  0.00  0.00     0.036 H 
BRANCH  72  75
ATOM     75  C25 non d ame     -32.752  15.141  25.531  0.00  0.00    -0.001 C 
ATOM     76  C26 non d ame     -32.363  16.360  24.499  0.00  0.00    -0.035 C 
ATOM     77  C27 non d ame     -31.252  16.009  23.808  0.00  0.00     0.085 C 
ATOM     78  H38 non d ame     -33.125  16.455  23.726  0.00  0.00     0.036 H 
ATOM     79  H39 non d ame     -32.045  17.239  25.061  0.00  0.00     0.036 H 
ATOM     80  N5  non d ame     -31.039  14.532  24.035  0.00  0.00    -0.049 N 
ATOM     81  H40 non d ame     -31.497  16.175  22.758  0.00  0.00     0.075 H 
ATOM     82  H41 non d ame     -30.434  16.561  24.270  0.00  0.00     0.075 H 
ATOM     83  C28 non d ame     -31.979  14.136  25.287  0.00  0.00     0.193 C 
ATOM     84  H42 non d ame     -31.386  14.062  23.212  0.00  0.00     0.280 HD
ATOM     85  H43 non d ame     -30.073  14.421  24.310  0.00  0.00     0.280 HD
ATOM     86  H44 non d ame     -31.547  13.975  26.274  0.00  0.00     0.129 H 
ATOM     87  H37 non d ame     -32.481  15.271  26.578  0.00  0.00     0.046 H 
BRANCH  83  88
ATOM     88  O6  non d ame     -32.716  12.947  24.994  0.00  0.00    -0.369 OA
ATOM     89  H45 non d ame     -32.132  12.300  24.590  0.00  0.00     0.212 HD
ENDBRANCH  83  88
ENDBRANCH  72  75
ENDBRANCH  47  72
ENDBRANCH  45  47
ENDBRANCH   1  43
BRANCH   1  90
ATOM     90  C16 non d ame     -31.599  12.002  28.711  0.00  0.00    -0.035 C 
ATOM     91  H21 non d ame     -31.484  10.930  28.869  0.00  0.00     0.037 H 
ATOM     92  H22 non d ame     -31.630  12.402  27.698  0.00  0.00     0.037 H 
BRANCH  90  93
ATOM     93  C17 non d ame     -30.384  12.682  29.418  0.00  0.00    -0.059 C 
ATOM     94  H23 non d ame     -29.534  12.005  29.342  0.00  0.00     0.038 H 
BRANCH  93  95
ATOM     95  C18 non d ame     -29.984  14.029  28.736  0.00  0.00    -0.073 C 
ATOM     96  H24 non d ame     -29.593  13.829  27.738  0.00  0.00     0.028 H 
ATOM     97  H25 non d ame     -30.862  14.672  28.658  0.00  0.00     0.028 H 
ATOM     98  H26 non d ame     -29.221  14.527  29.333  0.00  0.00     0.028 H 
ENDBRANCH  93  95
BRANCH  93  99
ATOM     99  C19 non d ame     -30.666  12.891  30.909  0.00  0.00    -0.073 C 
ATOM    100  H27 non d ame     -31.366  13.718  31.034  0.00  0.00     0.028 H 
ATOM    101  H28 non d ame     -31.101  11.983  31.327  0.00  0.00     0.028 H 
ATOM    102  H29 non d ame     -29.736  13.119  31.427  0.00  0.00     0.028 H 
ENDBRANCH  93  99
ENDBRANCH  90  93
ENDBRANCH   1  90
TORSDOF 26
ENDMDL
MODEL 16
REMARK VINA RESULT:      -6.5      2.481      6.093
REMARK  26 active torsions:
REMARK  status: ('A' for Active; 'I' for Inactive)
REMARK    1  A    between atoms: C2_2  and  C3_3 
REMARK    2  A    between atoms: C4_6  and  C5_7 
REMARK       I    between atoms: C5_7  and  N2_9 
REMARK    3  A    between atoms: N2_9  and  C6_10 
REMARK    4  A    between atoms: C6_10  and  C7_11 
REMARK    5  A    between atoms: C6_10  and  C8_13 
REMARK       I    between atoms: C7_11  and  N3_14 
REMARK    6  A    between atoms: N3_14  and  C9_15 
REMARK    7  A    between atoms: C9_15  and  C10_16 
REMARK    8  A    between atoms: C9_15  and  C11_18 
REMARK       I    between atoms: C10_16  and  N4_21 
REMARK    9  A    between atoms: C11_18  and  C12_19 
REMARK   10  A    between atoms: C11_18  and  C13_20 
REMARK   11  A    between atoms: N4_21  and  C14_22 
REMARK   12  A    between atoms: C14_22  and  C15_23 
REMARK   13  A    between atoms: C14_22  and  C16_25 
REMARK       I    between atoms: C15_23  and  N6_40 
REMARK   14  A    between atoms: C16_25  and  C17_26 
REMARK   15  A    between atoms: C17_26  and  C18_27 
REMARK   16  A    between atoms: C17_26  and  C19_28 
REMARK   17  A    between atoms: C20_29  and  C21_30 
REMARK   18  A    between atoms: C20_29  and  C24_33 
REMARK   19  A    between atoms: C20_29  and  N6_40 
REMARK   20  A    between atoms: C21_30  and  C22_31 
REMARK   21  A    between atoms: C22_31  and  C23_32 
REMARK   22  A    between atoms: C23_32  and  O8_43 
REMARK   23  A    between atoms: C24_33  and  C25_34 
REMARK   24  A    between atoms: C28_38  and  O6_39 
REMARK   25  A    between atoms: C29_42  and  O8_43 
REMARK   26  A    between atoms: C29_42  and  C35_49 
ROOT
ATOM      1  C14 non d ame     -34.137   9.880  29.185  0.00  0.00     0.089 C 
ATOM      2  H20 non d ame     -35.136  10.138  28.834  0.00  0.00     0.087 H 
ENDROOT
BRANCH   1   3
ATOM      3  N4  non d ame     -33.992   8.436  29.068  0.00  0.00    -0.346 N 
ATOM      4  C10 non d ame     -35.105   7.604  28.483  0.00  0.00     0.241 C 
ATOM      5  O4  non d ame     -36.109   8.117  28.116  0.00  0.00    -0.271 OA
ATOM      6  H19 non d ame     -33.130   8.018  29.389  0.00  0.00     0.163 HD
BRANCH   4   7
ATOM      7  C9  non d ame     -34.935   6.112  28.364  0.00  0.00     0.092 C 
ATOM      8  H11 non d ame     -35.917   5.639  28.347  0.00  0.00     0.088 H 
BRANCH   7   9
ATOM      9  N3  non d ame     -34.278   5.794  27.094  0.00  0.00    -0.346 N 
ATOM     10  C7  non d ame     -35.050   5.268  25.995  0.00  0.00     0.240 C 
ATOM     11  O3  non d ame     -36.201   5.093  26.117  0.00  0.00    -0.271 OA
ATOM     12  H10 non d ame     -33.286   5.937  26.974  0.00  0.00     0.163 HD
BRANCH  10  13
ATOM     13  C6  non d ame     -34.345   4.928  24.645  0.00  0.00     0.086 C 
ATOM     14  H6  non d ame     -35.021   4.976  23.792  0.00  0.00     0.086 H 
BRANCH  13  15
ATOM     15  N2  non d ame     -33.298   5.907  24.401  0.00  0.00    -0.343 N 
ATOM     16  C5  non d ame     -33.392   6.787  23.234  0.00  0.00     0.273 C 
ATOM     17  O2  non d ame     -34.311   6.698  22.497  0.00  0.00    -0.266 OA
ATOM     18  H5  non d ame     -32.514   5.974  25.034  0.00  0.00     0.163 HD
BRANCH  16  19
ATOM     19  C4  non d ame     -32.294   7.827  22.964  0.00  0.00     0.154 A 
ATOM     20  C1  non d ame     -30.952   7.577  22.537  0.00  0.00    -0.017 A 
ATOM     21  C2  non d ame     -30.357   8.855  22.437  0.00  0.00     0.077 A 
ATOM     22  H1  non d ame     -30.480   6.617  22.331  0.00  0.00     0.091 H 
ATOM     23  O1  non d ame     -31.263   9.730  22.768  0.00  0.00    -0.218 OA
ATOM     24  N1  non d ame     -32.400   9.154  23.081  0.00  0.00    -0.123 NA
BRANCH  21  25
ATOM     25  C3  non d ame     -28.924   9.153  22.018  0.00  0.00    -0.029 C 
ATOM     26  H2  non d ame     -28.521   9.951  22.642  0.00  0.00     0.036 H 
ATOM     27  H3  non d ame     -28.317   8.256  22.139  0.00  0.00     0.036 H 
ATOM     28  H4  non d ame     -28.908   9.465  20.975  0.00  0.00     0.036 H 
ENDBRANCH  21  25
ENDBRANCH  16  19
ENDBRANCH  13  15
BRANCH  13  29
ATOM     29  C8  non d ame     -33.750   3.544  24.720  0.00  0.00    -0.049 C 
ATOM     30  H7  non d ame     -33.910   3.133  25.717  0.00  0.00     0.030 H 
ATOM     31  H8  non d ame     -34.230   2.902  23.982  0.00  0.00     0.030 H 
ATOM     32  H9  non d ame     -32.680   3.597  24.516  0.00  0.00     0.030 H 
ENDBRANCH  13  29
ENDBRANCH  10  13
ENDBRANCH   7   9
BRANCH   7  33
ATOM     33  C11 non d ame     -34.058   5.595  29.542  0.00  0.00    -0.033 C 
ATOM     34  H12 non d ame     -33.306   6.357  29.751  0.00  0.00     0.042 H 
BRANCH  33  35
ATOM     35  C12 non d ame     -34.904   5.403  30.840  0.00  0.00    -0.071 C 
ATOM     36  H13 non d ame     -34.701   6.221  31.531  0.00  0.00     0.028 H 
ATOM     37  H14 non d ame     -35.964   5.398  30.585  0.00  0.00     0.028 H 
ATOM     38  H15 non d ame     -34.639   4.456  31.310  0.00  0.00     0.028 H 
ENDBRANCH  33  35
BRANCH  33  39
ATOM     39  C13 non d ame     -33.315   4.278  29.151  0.00  0.00    -0.071 C 
ATOM     40  H16 non d ame     -33.905   3.732  28.414  0.00  0.00     0.028 H 
ATOM     41  H17 non d ame     -32.340   4.522  28.727  0.00  0.00     0.028 H 
ATOM     42  H18 non d ame     -33.178   3.660  30.038  0.00  0.00     0.028 H 
ENDBRANCH  33  39
ENDBRANCH   7  33
ENDBRANCH   4   7
ENDBRANCH   1   3
BRANCH   1  43
ATOM     43  C15 non d ame     -33.023  10.559  28.339  0.00  0.00     0.240 C 
ATOM     44  O5  non d ame     -32.409   9.920  27.547  0.00  0.00    -0.271 OA
ATOM     45  N6  non d ame     -32.726  12.010  28.510  0.00  0.00    -0.355 N 
ATOM     46  H46 non d ame     -33.245  12.565  29.177  0.00  0.00     0.162 HD
BRANCH  45  47
ATOM     47  C20 non d ame     -31.665  12.643  27.697  0.00  0.00     0.013 C 
ATOM     48  H30 non d ame     -30.920  11.881  27.468  0.00  0.00     0.072 H 
BRANCH  47  49
ATOM     49  C21 non d ame     -31.031  13.765  28.488  0.00  0.00    -0.038 C 
ATOM     50  H31 non d ame     -30.196  13.312  29.024  0.00  0.00     0.036 H 
ATOM     51  H32 non d ame     -30.849  14.564  27.770  0.00  0.00     0.036 H 
BRANCH  49  52
ATOM     52  C22 non d ame     -31.974  14.348  29.562  0.00  0.00     0.018 C 
ATOM     53  H33 non d ame     -32.965  13.964  29.326  0.00  0.00     0.048 H 
ATOM     54  H34 non d ame     -31.512  14.109  30.521  0.00  0.00     0.048 H 
BRANCH  52  55
ATOM     55  C23 non d ame     -32.093  15.896  29.518  0.00  0.00     0.259 C 
ATOM     56  O7  non d ame     -31.440  16.573  30.245  0.00  0.00    -0.265 OA
BRANCH  55  57
ATOM     57  O8  non d ame     -33.004  16.500  28.607  0.00  0.00    -0.317 OA
BRANCH  57  58
ATOM     58  C29 non d ame     -32.565  17.763  28.097  0.00  0.00     0.052 C 
ATOM     59  H47 non d ame     -32.346  18.374  28.972  0.00  0.00     0.082 H 
ATOM     60  H48 non d ame     -31.777  17.534  27.380  0.00  0.00     0.082 H 
BRANCH  58  61
ATOM     61  C35 non d ame     -33.751  18.409  27.332  0.00  0.00    -0.034 A 
ATOM     62  C30 non d ame     -34.153  19.706  27.637  0.00  0.00    -0.075 A 
ATOM     63  C31 non d ame     -35.219  20.287  26.950  0.00  0.00    -0.082 A 
ATOM     64  H49 non d ame     -33.634  20.267  28.414  0.00  0.00     0.084 H 
ATOM     65  C32 non d ame     -35.885  19.564  25.957  0.00  0.00    -0.083 A 
ATOM     66  H50 non d ame     -35.530  21.304  27.191  0.00  0.00     0.083 H 
ATOM     67  C33 non d ame     -35.483  18.269  25.659  0.00  0.00    -0.082 A 
ATOM     68  H51 non d ame     -36.719  20.011  25.415  0.00  0.00     0.083 H 
ATOM     69  C34 non d ame     -34.417  17.686  26.341  0.00  0.00    -0.075 A 
ATOM     70  H52 non d ame     -36.006  17.707  24.885  0.00  0.00     0.083 H 
ATOM     71  H53 non d ame     -34.107  16.669  26.100  0.00  0.00     0.084 H 
ENDBRANCH  58  61
ENDBRANCH  57  58
ENDBRANCH  55  57
ENDBRANCH  52  55
ENDBRANCH  49  52
ENDBRANCH  47  49
BRANCH  47  72
ATOM     72  C24 non d ame     -32.265  13.202  26.409  0.00  0.00    -0.039 C 
ATOM     73  H35 non d ame     -32.607  12.332  25.847  0.00  0.00     0.036 H 
ATOM     74  H36 non d ame     -32.980  13.960  26.727  0.00  0.00     0.036 H 
BRANCH  72  75
ATOM     75  C25 non d ame     -31.162  13.941  25.512  0.00  0.00    -0.001 C 
ATOM     76  C26 non d ame     -31.617  15.496  25.234  0.00  0.00    -0.035 C 
ATOM     77  C27 non d ame     -31.550  15.739  23.903  0.00  0.00     0.085 C 
ATOM     78  H38 non d ame     -32.674  15.623  25.464  0.00  0.00     0.036 H 
ATOM     79  H39 non d ame     -30.881  16.182  25.655  0.00  0.00     0.036 H 
ATOM     80  N5  non d ame     -31.409  14.402  23.217  0.00  0.00    -0.049 N 
ATOM     81  H40 non d ame     -32.514  16.174  23.638  0.00  0.00     0.075 H 
ATOM     82  H41 non d ame     -30.635  16.312  23.757  0.00  0.00     0.075 H 
ATOM     83  C28 non d ame     -31.011  13.349  24.374  0.00  0.00     0.193 C 
ATOM     84  H42 non d ame     -32.324  14.162  22.865  0.00  0.00     0.280 HD
ATOM     85  H43 non d ame     -30.630  14.489  22.580  0.00  0.00     0.280 HD
ATOM     86  H44 non d ame     -29.986  12.993  24.471  0.00  0.00     0.129 H 
ATOM     87  H37 non d ame     -30.151  13.779  25.885  0.00  0.00     0.046 H 
BRANCH  83  88
ATOM     88  O6  non d ame     -31.815  12.172  24.268  0.00  0.00    -0.369 OA
ATOM     89  H45 non d ame     -31.829  11.876  23.355  0.00  0.00     0.212 HD
ENDBRANCH  83  88
ENDBRANCH  72  75
ENDBRANCH  47  72
ENDBRANCH  45  47
ENDBRANCH   1  43
BRANCH   1  90
ATOM     90  C16 non d ame     -33.985  10.277  30.645  0.00  0.00    -0.035 C 
ATOM     91  H21 non d ame     -33.168   9.665  31.027  0.00  0.00     0.037 H 
ATOM     92  H22 non d ame     -33.895  11.363  30.641  0.00  0.00     0.037 H 
BRANCH  90  93
ATOM     93  C17 non d ame     -35.234   9.940  31.520  0.00  0.00    -0.059 C 
ATOM     94  H23 non d ame     -35.234   8.865  31.697  0.00  0.00     0.038 H 
BRANCH  93  95
ATOM     95  C18 non d ame     -35.190  10.653  32.909  0.00  0.00    -0.073 C 
ATOM     96  H24 non d ame     -35.402   9.929  33.696  0.00  0.00     0.028 H 
ATOM     97  H25 non d ame     -34.199  11.080  33.067  0.00  0.00     0.028 H 
ATOM     98  H26 non d ame     -35.935  11.447  32.934  0.00  0.00     0.028 H 
ENDBRANCH  93  95
BRANCH  93  99
ATOM     99  C19 non d ame     -36.529  10.278  30.776  0.00  0.00    -0.073 C 
ATOM    100  H27 non d ame     -36.299  10.899  29.909  0.00  0.00     0.028 H 
ATOM    101  H28 non d ame     -37.009   9.357  30.444  0.00  0.00     0.028 H 
ATOM    102  H29 non d ame     -37.201  10.817  31.442  0.00  0.00     0.028 H 
ENDBRANCH  93  99
ENDBRANCH  90  93
ENDBRANCH   1  90
TORSDOF 26
ENDMDL
MODEL 17
REMARK VINA RESULT:      -6.5      2.618      8.090
REMARK  26 active torsions:
REMARK  status: ('A' for Active; 'I' for Inactive)
REMARK    1  A    between atoms: C2_2  and  C3_3 
REMARK    2  A    between atoms: C4_6  and  C5_7 
REMARK       I    between atoms: C5_7  and  N2_9 
REMARK    3  A    between atoms: N2_9  and  C6_10 
REMARK    4  A    between atoms: C6_10  and  C7_11 
REMARK    5  A    between atoms: C6_10  and  C8_13 
REMARK       I    between atoms: C7_11  and  N3_14 
REMARK    6  A    between atoms: N3_14  and  C9_15 
REMARK    7  A    between atoms: C9_15  and  C10_16 
REMARK    8  A    between atoms: C9_15  and  C11_18 
REMARK       I    between atoms: C10_16  and  N4_21 
REMARK    9  A    between atoms: C11_18  and  C12_19 
REMARK   10  A    between atoms: C11_18  and  C13_20 
REMARK   11  A    between atoms: N4_21  and  C14_22 
REMARK   12  A    between atoms: C14_22  and  C15_23 
REMARK   13  A    between atoms: C14_22  and  C16_25 
REMARK       I    between atoms: C15_23  and  N6_40 
REMARK   14  A    between atoms: C16_25  and  C17_26 
REMARK   15  A    between atoms: C17_26  and  C18_27 
REMARK   16  A    between atoms: C17_26  and  C19_28 
REMARK   17  A    between atoms: C20_29  and  C21_30 
REMARK   18  A    between atoms: C20_29  and  C24_33 
REMARK   19  A    between atoms: C20_29  and  N6_40 
REMARK   20  A    between atoms: C21_30  and  C22_31 
REMARK   21  A    between atoms: C22_31  and  C23_32 
REMARK   22  A    between atoms: C23_32  and  O8_43 
REMARK   23  A    between atoms: C24_33  and  C25_34 
REMARK   24  A    between atoms: C28_38  and  O6_39 
REMARK   25  A    between atoms: C29_42  and  O8_43 
REMARK   26  A    between atoms: C29_42  and  C35_49 
ROOT
ATOM      1  C14 non d ame     -35.206   6.278  27.974  0.00  0.00     0.089 C 
ATOM      2  H20 non d ame     -34.941   5.527  28.719  0.00  0.00     0.087 H 
ENDROOT
BRANCH   1   3
ATOM      3  N4  non d ame     -35.179   7.576  28.631  0.00  0.00    -0.346 N 
ATOM      4  C10 non d ame     -35.015   7.669  30.127  0.00  0.00     0.241 C 
ATOM      5  O4  non d ame     -34.910   6.686  30.782  0.00  0.00    -0.271 OA
ATOM      6  H19 non d ame     -35.273   8.401  28.056  0.00  0.00     0.163 HD
BRANCH   4   7
ATOM      7  C9  non d ame     -34.983   9.022  30.789  0.00  0.00     0.092 C 
ATOM      8  H11 non d ame     -34.574   8.919  31.795  0.00  0.00     0.088 H 
BRANCH   7   9
ATOM      9  N3  non d ame     -34.087   9.910  30.045  0.00  0.00    -0.346 N 
ATOM     10  C7  non d ame     -33.350  10.937  30.739  0.00  0.00     0.240 C 
ATOM     11  O3  non d ame     -33.468  11.063  31.897  0.00  0.00    -0.271 OA
ATOM     12  H10 non d ame     -33.977   9.815  29.046  0.00  0.00     0.163 HD
BRANCH  10  13
ATOM     13  C6  non d ame     -32.400  11.883  29.941  0.00  0.00     0.086 C 
ATOM     14  H6  non d ame     -32.178  11.511  28.940  0.00  0.00     0.086 H 
BRANCH  13  15
ATOM     15  N2  non d ame     -33.051  13.171  29.770  0.00  0.00    -0.343 N 
ATOM     16  C5  non d ame     -32.700  14.011  28.622  0.00  0.00     0.273 C 
ATOM     17  O2  non d ame     -31.891  13.642  27.844  0.00  0.00    -0.266 OA
ATOM     18  H5  non d ame     -33.739  13.480  30.442  0.00  0.00     0.163 HD
BRANCH  16  19
ATOM     19  C4  non d ame     -33.382  15.374  28.429  0.00  0.00     0.154 A 
ATOM     20  C1  non d ame     -34.629  15.632  27.776  0.00  0.00    -0.017 A 
ATOM     21  C2  non d ame     -34.804  17.031  27.867  0.00  0.00     0.077 A 
ATOM     22  H1  non d ame     -35.302  14.916  27.306  0.00  0.00     0.091 H 
ATOM     23  O1  non d ame     -33.774  17.510  28.503  0.00  0.00    -0.218 OA
ATOM     24  N1  non d ame     -32.931  16.562  28.840  0.00  0.00    -0.123 NA
BRANCH  21  25
ATOM     25  C3  non d ame     -35.981  17.830  27.323  0.00  0.00    -0.029 C 
ATOM     26  H2  non d ame     -35.854  18.883  27.577  0.00  0.00     0.036 H 
ATOM     27  H3  non d ame     -36.025  17.721  26.240  0.00  0.00     0.036 H 
ATOM     28  H4  non d ame     -36.906  17.460  27.763  0.00  0.00     0.036 H 
ENDBRANCH  21  25
ENDBRANCH  16  19
ENDBRANCH  13  15
BRANCH  13  29
ATOM     29  C8  non d ame     -31.106  12.054  30.696  0.00  0.00    -0.049 C 
ATOM     30  H7  non d ame     -30.614  12.970  30.370  0.00  0.00     0.030 H 
ATOM     31  H8  non d ame     -31.315  12.115  31.764  0.00  0.00     0.030 H 
ATOM     32  H9  non d ame     -30.455  11.202  30.501  0.00  0.00     0.030 H 
ENDBRANCH  13  29
ENDBRANCH  10  13
ENDBRANCH   7   9
BRANCH   7  33
ATOM     33  C11 non d ame     -36.418   9.626  30.801  0.00  0.00    -0.033 C 
ATOM     34  H12 non d ame     -36.402  10.496  31.459  0.00  0.00     0.042 H 
BRANCH  33  35
ATOM     35  C12 non d ame     -36.840  10.118  29.382  0.00  0.00    -0.071 C 
ATOM     36  H13 non d ame     -37.541  10.947  29.478  0.00  0.00     0.028 H 
ATOM     37  H14 non d ame     -35.958  10.450  28.836  0.00  0.00     0.028 H 
ATOM     38  H15 non d ame     -37.317   9.301  28.840  0.00  0.00     0.028 H 
ENDBRANCH  33  35
BRANCH  33  39
ATOM     39  C13 non d ame     -37.451   8.605  31.377  0.00  0.00    -0.071 C 
ATOM     40  H16 non d ame     -36.964   7.641  31.528  0.00  0.00     0.028 H 
ATOM     41  H17 non d ame     -37.834   8.972  32.329  0.00  0.00     0.028 H 
ATOM     42  H18 non d ame     -38.276   8.488  30.675  0.00  0.00     0.028 H 
ENDBRANCH  33  39
ENDBRANCH   7  33
ENDBRANCH   4   7
ENDBRANCH   1   3
BRANCH   1  43
ATOM     43  C15 non d ame     -34.204   6.303  26.785  0.00  0.00     0.240 C 
ATOM     44  O5  non d ame     -33.285   5.549  26.770  0.00  0.00    -0.271 OA
ATOM     45  N6  non d ame     -34.394   7.261  25.659  0.00  0.00    -0.355 N 
ATOM     46  H46 non d ame     -35.175   7.903  25.658  0.00  0.00     0.162 HD
BRANCH  45  47
ATOM     47  C20 non d ame     -33.434   7.272  24.534  0.00  0.00     0.013 C 
ATOM     48  H30 non d ame     -32.917   6.313  24.525  0.00  0.00     0.072 H 
BRANCH  47  49
ATOM     49  C21 non d ame     -32.440   8.393  24.737  0.00  0.00    -0.038 C 
ATOM     50  H31 non d ame     -32.727   8.876  25.672  0.00  0.00     0.036 H 
ATOM     51  H32 non d ame     -31.456   7.935  24.640  0.00  0.00     0.036 H 
BRANCH  49  52
ATOM     52  C22 non d ame     -32.527   9.478  23.642  0.00  0.00     0.018 C 
ATOM     53  H33 non d ame     -33.348   9.177  22.993  0.00  0.00     0.048 H 
ATOM     54  H34 non d ame     -32.572  10.430  24.173  0.00  0.00     0.048 H 
BRANCH  52  55
ATOM     55  C23 non d ame     -31.269   9.554  22.734  0.00  0.00     0.259 C 
ATOM     56  O7  non d ame     -30.999   8.659  21.999  0.00  0.00    -0.265 OA
BRANCH  55  57
ATOM     57  O8  non d ame     -30.430  10.701  22.799  0.00  0.00    -0.317 OA
BRANCH  57  58
ATOM     58  C29 non d ame     -30.820  11.651  23.797  0.00  0.00     0.052 C 
ATOM     59  H47 non d ame     -31.905  11.577  23.864  0.00  0.00     0.082 H 
ATOM     60  H48 non d ame     -30.203  11.434  24.668  0.00  0.00     0.082 H 
BRANCH  58  61
ATOM     61  C35 non d ame     -30.455  13.068  23.278  0.00  0.00    -0.034 A 
ATOM     62  C30 non d ame     -30.939  14.195  23.934  0.00  0.00    -0.075 A 
ATOM     63  C31 non d ame     -30.611  15.468  23.468  0.00  0.00    -0.082 A 
ATOM     64  H49 non d ame     -31.575  14.082  24.812  0.00  0.00     0.084 H 
ATOM     65  C32 non d ame     -29.799  15.611  22.340  0.00  0.00    -0.083 A 
ATOM     66  H50 non d ame     -30.991  16.350  23.985  0.00  0.00     0.083 H 
ATOM     67  C33 non d ame     -29.321  14.483  21.687  0.00  0.00    -0.082 A 
ATOM     68  H51 non d ame     -29.538  16.602  21.970  0.00  0.00     0.083 H 
ATOM     69  C34 non d ame     -29.645  13.209  22.150  0.00  0.00    -0.075 A 
ATOM     70  H52 non d ame     -28.689  14.597  20.806  0.00  0.00     0.083 H 
ATOM     71  H53 non d ame     -29.264  12.328  21.633  0.00  0.00     0.084 H 
ENDBRANCH  58  61
ENDBRANCH  57  58
ENDBRANCH  55  57
ENDBRANCH  52  55
ENDBRANCH  49  52
ENDBRANCH  47  49
BRANCH  47  72
ATOM     72  C24 non d ame     -34.181   7.484  23.219  0.00  0.00    -0.039 C 
ATOM     73  H35 non d ame     -35.239   7.470  23.481  0.00  0.00     0.036 H 
ATOM     74  H36 non d ame     -33.741   8.379  22.777  0.00  0.00     0.036 H 
BRANCH  72  75
ATOM     75  C25 non d ame     -33.930   6.279  22.194  0.00  0.00    -0.001 C 
ATOM     76  C26 non d ame     -32.583   5.445  22.631  0.00  0.00    -0.035 C 
ATOM     77  C27 non d ame     -31.771   5.331  21.552  0.00  0.00     0.085 C 
ATOM     78  H38 non d ame     -31.991   6.031  23.334  0.00  0.00     0.036 H 
ATOM     79  H39 non d ame     -32.842   4.412  22.864  0.00  0.00     0.036 H 
ATOM     80  N5  non d ame     -32.287   6.291  20.508  0.00  0.00    -0.049 N 
ATOM     81  H40 non d ame     -30.790   5.667  21.889  0.00  0.00     0.075 H 
ATOM     82  H41 non d ame     -31.904   4.311  21.193  0.00  0.00     0.075 H 
ATOM     83  C28 non d ame     -33.769   6.716  20.989  0.00  0.00     0.193 C 
ATOM     84  H42 non d ame     -31.691   7.105  20.547  0.00  0.00     0.280 HD
ATOM     85  H43 non d ame     -32.367   5.764  19.649  0.00  0.00     0.280 HD
ATOM     86  H44 non d ame     -34.650   6.295  20.506  0.00  0.00     0.129 H 
ATOM     87  H37 non d ame     -34.834   5.700  22.009  0.00  0.00     0.046 H 
BRANCH  83  88
ATOM     88  O6  non d ame     -33.928   8.133  20.903  0.00  0.00    -0.369 OA
ATOM     89  H45 non d ame     -34.308   8.362  20.053  0.00  0.00     0.212 HD
ENDBRANCH  83  88
ENDBRANCH  72  75
ENDBRANCH  47  72
ENDBRANCH  45  47
ENDBRANCH   1  43
BRANCH   1  90
ATOM     90  C16 non d ame     -36.610   6.014  27.454  0.00  0.00    -0.035 C 
ATOM     91  H21 non d ame     -36.723   6.662  26.586  0.00  0.00     0.037 H 
ATOM     92  H22 non d ame     -36.676   4.932  27.337  0.00  0.00     0.037 H 
BRANCH  90  93
ATOM     93  C17 non d ame     -37.736   6.420  28.456  0.00  0.00    -0.059 C 
ATOM     94  H23 non d ame     -37.346   7.217  29.089  0.00  0.00     0.038 H 
BRANCH  93  95
ATOM     95  C18 non d ame     -39.004   6.968  27.727  0.00  0.00    -0.073 C 
ATOM     96  H24 non d ame     -38.920   6.776  26.657  0.00  0.00     0.028 H 
ATOM     97  H25 non d ame     -39.892   6.468  28.116  0.00  0.00     0.028 H 
ATOM     98  H26 non d ame     -39.088   8.041  27.899  0.00  0.00     0.028 H 
ENDBRANCH  93  95
BRANCH  93  99
ATOM     99  C19 non d ame     -38.100   5.249  29.373  0.00  0.00    -0.073 C 
ATOM    100  H27 non d ame     -38.374   5.629  30.358  0.00  0.00     0.028 H 
ATOM    101  H28 non d ame     -38.943   4.703  28.949  0.00  0.00     0.028 H 
ATOM    102  H29 non d ame     -37.245   4.581  29.466  0.00  0.00     0.028 H 
ENDBRANCH  93  99
ENDBRANCH  90  93
ENDBRANCH   1  90
TORSDOF 26
ENDMDL
MODEL 18
REMARK VINA RESULT:      -6.4      2.735      8.530
REMARK  26 active torsions:
REMARK  status: ('A' for Active; 'I' for Inactive)
REMARK    1  A    between atoms: C2_2  and  C3_3 
REMARK    2  A    between atoms: C4_6  and  C5_7 
REMARK       I    between atoms: C5_7  and  N2_9 
REMARK    3  A    between atoms: N2_9  and  C6_10 
REMARK    4  A    between atoms: C6_10  and  C7_11 
REMARK    5  A    between atoms: C6_10  and  C8_13 
REMARK       I    between atoms: C7_11  and  N3_14 
REMARK    6  A    between atoms: N3_14  and  C9_15 
REMARK    7  A    between atoms: C9_15  and  C10_16 
REMARK    8  A    between atoms: C9_15  and  C11_18 
REMARK       I    between atoms: C10_16  and  N4_21 
REMARK    9  A    between atoms: C11_18  and  C12_19 
REMARK   10  A    between atoms: C11_18  and  C13_20 
REMARK   11  A    between atoms: N4_21  and  C14_22 
REMARK   12  A    between atoms: C14_22  and  C15_23 
REMARK   13  A    between atoms: C14_22  and  C16_25 
REMARK       I    between atoms: C15_23  and  N6_40 
REMARK   14  A    between atoms: C16_25  and  C17_26 
REMARK   15  A    between atoms: C17_26  and  C18_27 
REMARK   16  A    between atoms: C17_26  and  C19_28 
REMARK   17  A    between atoms: C20_29  and  C21_30 
REMARK   18  A    between atoms: C20_29  and  C24_33 
REMARK   19  A    between atoms: C20_29  and  N6_40 
REMARK   20  A    between atoms: C21_30  and  C22_31 
REMARK   21  A    between atoms: C22_31  and  C23_32 
REMARK   22  A    between atoms: C23_32  and  O8_43 
REMARK   23  A    between atoms: C24_33  and  C25_34 
REMARK   24  A    between atoms: C28_38  and  O6_39 
REMARK   25  A    between atoms: C29_42  and  O8_43 
REMARK   26  A    between atoms: C29_42  and  C35_49 
ROOT
ATOM      1  C14 non d ame     -35.367  11.574  25.868  0.00  0.00     0.089 C 
ATOM      2  H20 non d ame     -35.867  12.454  26.274  0.00  0.00     0.087 H 
ENDROOT
BRANCH   1   3
ATOM      3  N4  non d ame     -34.093  12.011  25.315  0.00  0.00    -0.346 N 
ATOM      4  C10 non d ame     -33.358  13.178  25.924  0.00  0.00     0.241 C 
ATOM      5  O4  non d ame     -33.814  13.753  26.857  0.00  0.00    -0.271 OA
ATOM      6  H19 non d ame     -33.724  11.509  24.520  0.00  0.00     0.163 HD
BRANCH   4   7
ATOM      7  C9  non d ame     -32.039  13.612  25.342  0.00  0.00     0.092 C 
ATOM      8  H11 non d ame     -31.279  13.594  26.124  0.00  0.00     0.088 H 
BRANCH   7   9
ATOM      9  N3  non d ame     -31.622  12.660  24.310  0.00  0.00    -0.346 N 
ATOM     10  C7  non d ame     -31.017  11.407  24.687  0.00  0.00     0.240 C 
ATOM     11  O3  non d ame     -30.855  11.150  25.818  0.00  0.00    -0.271 OA
ATOM     12  H10 non d ame     -31.753  12.868  23.331  0.00  0.00     0.163 HD
BRANCH  10  13
ATOM     13  C6  non d ame     -30.572  10.398  23.583  0.00  0.00     0.086 C 
ATOM     14  H6  non d ame     -29.894   9.632  23.960  0.00  0.00     0.086 H 
BRANCH  13  15
ATOM     15  N2  non d ame     -31.746   9.702  23.080  0.00  0.00    -0.343 N 
ATOM     16  C5  non d ame     -31.626   8.311  22.638  0.00  0.00     0.273 C 
ATOM     17  O2  non d ame     -30.581   7.762  22.688  0.00  0.00    -0.266 OA
ATOM     18  H5  non d ame     -32.634  10.181  23.038  0.00  0.00     0.163 HD
BRANCH  16  19
ATOM     19  C4  non d ame     -32.858   7.564  22.106  0.00  0.00     0.154 A 
ATOM     20  C1  non d ame     -33.480   7.721  20.827  0.00  0.00    -0.017 A 
ATOM     21  C2  non d ame     -34.563   6.814  20.834  0.00  0.00     0.077 A 
ATOM     22  H1  non d ame     -33.190   8.391  20.017  0.00  0.00     0.091 H 
ATOM     23  O1  non d ame     -34.554   6.210  21.987  0.00  0.00    -0.218 OA
ATOM     24  N1  non d ame     -33.569   6.631  22.746  0.00  0.00    -0.123 NA
BRANCH  21  25
ATOM     25  C3  non d ame     -35.555   6.585  19.702  0.00  0.00    -0.029 C 
ATOM     26  H2  non d ame     -35.363   7.298  18.900  0.00  0.00     0.036 H 
ATOM     27  H3  non d ame     -35.442   5.570  19.320  0.00  0.00     0.036 H 
ATOM     28  H4  non d ame     -36.569   6.723  20.074  0.00  0.00     0.036 H 
ENDBRANCH  21  25
ENDBRANCH  16  19
ENDBRANCH  13  15
BRANCH  13  29
ATOM     29  C8  non d ame     -29.894  11.142  22.461  0.00  0.00    -0.049 C 
ATOM     30  H7  non d ame     -30.323  10.835  21.508  0.00  0.00     0.030 H 
ATOM     31  H8  non d ame     -30.041  12.214  22.596  0.00  0.00     0.030 H 
ATOM     32  H9  non d ame     -28.827  10.918  22.469  0.00  0.00     0.030 H 
ENDBRANCH  13  29
ENDBRANCH  10  13
ENDBRANCH   7   9
BRANCH   7  33
ATOM     33  C11 non d ame     -32.192  15.026  24.710  0.00  0.00    -0.033 C 
ATOM     34  H12 non d ame     -33.259  15.228  24.609  0.00  0.00     0.042 H 
BRANCH  33  35
ATOM     35  C12 non d ame     -31.590  16.132  25.633  0.00  0.00    -0.071 C 
ATOM     36  H13 non d ame     -32.296  16.362  26.431  0.00  0.00     0.028 H 
ATOM     37  H14 non d ame     -30.656  15.774  26.066  0.00  0.00     0.028 H 
ATOM     38  H15 non d ame     -31.400  17.031  25.047  0.00  0.00     0.028 H 
ENDBRANCH  33  35
BRANCH  33  39
ATOM     39  C13 non d ame     -31.556  15.072  23.283  0.00  0.00    -0.071 C 
ATOM     40  H16 non d ame     -31.837  16.003  22.789  0.00  0.00     0.028 H 
ATOM     41  H17 non d ame     -30.470  15.019  23.367  0.00  0.00     0.028 H 
ATOM     42  H18 non d ame     -31.915  14.227  22.698  0.00  0.00     0.028 H 
ENDBRANCH  33  39
ENDBRANCH   7  33
ENDBRANCH   4   7
ENDBRANCH   1   3
BRANCH   1  43
ATOM     43  C15 non d ame     -35.092  10.499  26.957  0.00  0.00     0.240 C 
ATOM     44  O5  non d ame     -34.620   9.452  26.649  0.00  0.00    -0.271 OA
ATOM     45  N6  non d ame     -35.406  10.777  28.387  0.00  0.00    -0.355 N 
ATOM     46  H46 non d ame     -35.802  11.665  28.662  0.00  0.00     0.162 HD
BRANCH  45  47
ATOM     47  C20 non d ame     -35.137   9.745  29.412  0.00  0.00     0.013 C 
ATOM     48  H30 non d ame     -35.204   8.770  28.931  0.00  0.00     0.072 H 
BRANCH  47  49
ATOM     49  C21 non d ame     -36.169   9.852  30.512  0.00  0.00    -0.038 C 
ATOM     50  H31 non d ame     -35.948  10.784  31.034  0.00  0.00     0.036 H 
ATOM     51  H32 non d ame     -37.134   9.716  30.023  0.00  0.00     0.036 H 
BRANCH  49  52
ATOM     52  C22 non d ame     -36.048   8.725  31.560  0.00  0.00     0.018 C 
ATOM     53  H33 non d ame     -35.094   8.238  31.360  0.00  0.00     0.048 H 
ATOM     54  H34 non d ame     -36.225   9.200  32.526  0.00  0.00     0.048 H 
BRANCH  52  55
ATOM     55  C23 non d ame     -37.131   7.620  31.421  0.00  0.00     0.259 C 
ATOM     56  O7  non d ame     -38.279   7.875  31.595  0.00  0.00    -0.265 OA
BRANCH  55  57
ATOM     57  O8  non d ame     -36.735   6.292  31.097  0.00  0.00    -0.317 OA
BRANCH  57  58
ATOM     58  C29 non d ame     -35.995   6.188  29.877  0.00  0.00     0.052 C 
ATOM     59  H47 non d ame     -36.648   5.662  29.181  0.00  0.00     0.082 H 
ATOM     60  H48 non d ame     -35.655   7.198  29.650  0.00  0.00     0.082 H 
BRANCH  58  61
ATOM     61  C35 non d ame     -34.750   5.300  30.147  0.00  0.00    -0.034 A 
ATOM     62  C30 non d ame     -34.415   4.949  31.451  0.00  0.00    -0.075 A 
ATOM     63  C31 non d ame     -33.296   4.152  31.693  0.00  0.00    -0.082 A 
ATOM     64  H49 non d ame     -35.027   5.298  32.282  0.00  0.00     0.084 H 
ATOM     65  C32 non d ame     -32.511   3.708  30.625  0.00  0.00    -0.083 A 
ATOM     66  H50 non d ame     -33.037   3.877  32.716  0.00  0.00     0.083 H 
ATOM     67  C33 non d ame     -32.848   4.064  29.327  0.00  0.00    -0.082 A 
ATOM     68  H51 non d ame     -31.636   3.084  30.807  0.00  0.00     0.083 H 
ATOM     69  C34 non d ame     -33.966   4.858  29.080  0.00  0.00    -0.075 A 
ATOM     70  H52 non d ame     -32.233   3.718  28.496  0.00  0.00     0.083 H 
ATOM     71  H53 non d ame     -34.225   5.132  28.057  0.00  0.00     0.084 H 
ENDBRANCH  58  61
ENDBRANCH  57  58
ENDBRANCH  55  57
ENDBRANCH  52  55
ENDBRANCH  49  52
ENDBRANCH  47  49
BRANCH  47  72
ATOM     72  C24 non d ame     -33.742   9.952  30.000  0.00  0.00    -0.039 C 
ATOM     73  H35 non d ame     -33.837   9.713  31.060  0.00  0.00     0.036 H 
ATOM     74  H36 non d ame     -33.073   9.369  29.368  0.00  0.00     0.036 H 
BRANCH  72  75
ATOM     75  C25 non d ame     -33.277  11.481  29.899  0.00  0.00    -0.001 C 
ATOM     76  C26 non d ame     -31.909  11.590  28.993  0.00  0.00    -0.035 C 
ATOM     77  C27 non d ame     -30.984  12.300  29.683  0.00  0.00     0.085 C 
ATOM     78  H38 non d ame     -31.450  10.607  28.888  0.00  0.00     0.036 H 
ATOM     79  H39 non d ame     -32.093  12.203  28.110  0.00  0.00     0.036 H 
ATOM     80  N5  non d ame     -31.478  12.402  31.106  0.00  0.00    -0.049 N 
ATOM     81  H40 non d ame     -30.078  11.693  29.664  0.00  0.00     0.075 H 
ATOM     82  H41 non d ame     -30.984  13.293  29.234  0.00  0.00     0.075 H 
ATOM     83  C28 non d ame     -33.034  11.974  31.068  0.00  0.00     0.193 C 
ATOM     84  H42 non d ame     -30.967  11.712  31.637  0.00  0.00     0.280 HD
ATOM     85  H43 non d ame     -31.419  13.379  31.359  0.00  0.00     0.280 HD
ATOM     86  H44 non d ame     -33.818  12.728  31.131  0.00  0.00     0.129 H 
ATOM     87  H37 non d ame     -34.099  12.147  29.638  0.00  0.00     0.046 H 
BRANCH  83  88
ATOM     88  O6  non d ame     -33.315  11.043  32.115  0.00  0.00    -0.369 OA
ATOM     89  H45 non d ame     -33.300  11.498  32.960  0.00  0.00     0.212 HD
ENDBRANCH  83  88
ENDBRANCH  72  75
ENDBRANCH  47  72
ENDBRANCH  45  47
ENDBRANCH   1  43
BRANCH   1  90
ATOM     90  C16 non d ame     -36.209  10.971  24.755  0.00  0.00    -0.035 C 
ATOM     91  H21 non d ame     -35.640  11.134  23.841  0.00  0.00     0.037 H 
ATOM     92  H22 non d ame     -36.435   9.956  25.082  0.00  0.00     0.037 H 
BRANCH  90  93
ATOM     93  C17 non d ame     -37.584  11.684  24.552  0.00  0.00    -0.059 C 
ATOM     94  H23 non d ame     -38.271  10.961  24.114  0.00  0.00     0.038 H 
BRANCH  93  95
ATOM     95  C18 non d ame     -38.199  12.172  25.902  0.00  0.00    -0.073 C 
ATOM     96  H24 non d ame     -37.854  11.530  26.712  0.00  0.00     0.028 H 
ATOM     97  H25 non d ame     -37.886  13.199  26.094  0.00  0.00     0.028 H 
ATOM     98  H26 non d ame     -39.286  12.130  25.842  0.00  0.00     0.028 H 
ENDBRANCH  93  95
BRANCH  93  99
ATOM     99  C19 non d ame     -37.455  12.845  23.562  0.00  0.00    -0.073 C 
ATOM    100  H27 non d ame     -36.613  13.476  23.848  0.00  0.00     0.028 H 
ATOM    101  H28 non d ame     -37.288  12.451  22.559  0.00  0.00     0.028 H 
ATOM    102  H29 non d ame     -38.371  13.435  23.571  0.00  0.00     0.028 H 
ENDBRANCH  93  99
ENDBRANCH  90  93
ENDBRANCH   1  90
TORSDOF 26
ENDMDL
MODEL 19
REMARK VINA RESULT:      -6.2      3.102      9.791
REMARK  26 active torsions:
REMARK  status: ('A' for Active; 'I' for Inactive)
REMARK    1  A    between atoms: C2_2  and  C3_3 
REMARK    2  A    between atoms: C4_6  and  C5_7 
REMARK       I    between atoms: C5_7  and  N2_9 
REMARK    3  A    between atoms: N2_9  and  C6_10 
REMARK    4  A    between atoms: C6_10  and  C7_11 
REMARK    5  A    between atoms: C6_10  and  C8_13 
REMARK       I    between atoms: C7_11  and  N3_14 
REMARK    6  A    between atoms: N3_14  and  C9_15 
REMARK    7  A    between atoms: C9_15  and  C10_16 
REMARK    8  A    between atoms: C9_15  and  C11_18 
REMARK       I    between atoms: C10_16  and  N4_21 
REMARK    9  A    between atoms: C11_18  and  C12_19 
REMARK   10  A    between atoms: C11_18  and  C13_20 
REMARK   11  A    between atoms: N4_21  and  C14_22 
REMARK   12  A    between atoms: C14_22  and  C15_23 
REMARK   13  A    between atoms: C14_22  and  C16_25 
REMARK       I    between atoms: C15_23  and  N6_40 
REMARK   14  A    between atoms: C16_25  and  C17_26 
REMARK   15  A    between atoms: C17_26  and  C18_27 
REMARK   16  A    between atoms: C17_26  and  C19_28 
REMARK   17  A    between atoms: C20_29  and  C21_30 
REMARK   18  A    between atoms: C20_29  and  C24_33 
REMARK   19  A    between atoms: C20_29  and  N6_40 
REMARK   20  A    between atoms: C21_30  and  C22_31 
REMARK   21  A    between atoms: C22_31  and  C23_32 
REMARK   22  A    between atoms: C23_32  and  O8_43 
REMARK   23  A    between atoms: C24_33  and  C25_34 
REMARK   24  A    between atoms: C28_38  and  O6_39 
REMARK   25  A    between atoms: C29_42  and  O8_43 
REMARK   26  A    between atoms: C29_42  and  C35_49 
ROOT
ATOM      1  C14 non d ame     -36.313  14.459  26.391  0.00  0.00     0.089 C 
ATOM      2  H20 non d ame     -37.090  15.097  26.813  0.00  0.00     0.087 H 
ENDROOT
BRANCH   1   3
ATOM      3  N4  non d ame     -35.034  15.109  26.636  0.00  0.00    -0.346 N 
ATOM      4  C10 non d ame     -34.951  16.313  27.541  0.00  0.00     0.241 C 
ATOM      5  O4  non d ame     -35.929  16.743  28.058  0.00  0.00    -0.271 OA
ATOM      6  H19 non d ame     -34.214  14.728  26.185  0.00  0.00     0.163 HD
BRANCH   4   7
ATOM      7  C9  non d ame     -33.618  16.968  27.788  0.00  0.00     0.092 C 
ATOM      8  H11 non d ame     -33.497  17.145  28.857  0.00  0.00     0.088 H 
BRANCH   7   9
ATOM      9  N3  non d ame     -32.543  16.062  27.374  0.00  0.00    -0.346 N 
ATOM     10  C7  non d ame     -32.365  14.800  28.048  0.00  0.00     0.240 C 
ATOM     11  O3  non d ame     -33.077  14.498  28.927  0.00  0.00    -0.271 OA
ATOM     12  H10 non d ame     -31.920  16.309  26.619  0.00  0.00     0.163 HD
BRANCH  10  13
ATOM     13  C6  non d ame     -31.217  13.841  27.605  0.00  0.00     0.086 C 
ATOM     14  H6  non d ame     -31.537  12.801  27.541  0.00  0.00     0.086 H 
BRANCH  13  15
ATOM     15  N2  non d ame     -30.773  14.221  26.273  0.00  0.00    -0.343 N 
ATOM     16  C5  non d ame     -31.190  13.421  25.119  0.00  0.00     0.273 C 
ATOM     17  O2  non d ame     -31.879  12.474  25.272  0.00  0.00    -0.266 OA
ATOM     18  H5  non d ame     -30.181  15.030  26.152  0.00  0.00     0.163 HD
BRANCH  16  19
ATOM     19  C4  non d ame     -30.730  13.812  23.706  0.00  0.00     0.154 A 
ATOM     20  C1  non d ame     -30.942  15.061  23.042  0.00  0.00    -0.017 A 
ATOM     21  C2  non d ame     -30.329  14.911  21.778  0.00  0.00     0.077 A 
ATOM     22  H1  non d ame     -31.463  15.942  23.418  0.00  0.00     0.091 H 
ATOM     23  O1  non d ame     -29.824  13.713  21.733  0.00  0.00    -0.218 OA
ATOM     24  N1  non d ame     -30.046  13.052  22.846  0.00  0.00    -0.123 NA
BRANCH  21  25
ATOM     25  C3  non d ame     -30.270  15.958  20.674  0.00  0.00    -0.029 C 
ATOM     26  H2  non d ame     -29.411  16.610  20.837  0.00  0.00     0.036 H 
ATOM     27  H3  non d ame     -30.170  15.463  19.708  0.00  0.00     0.036 H 
ATOM     28  H4  non d ame     -31.183  16.552  20.686  0.00  0.00     0.036 H 
ENDBRANCH  21  25
ENDBRANCH  16  19
ENDBRANCH  13  15
BRANCH  13  29
ATOM     29  C8  non d ame     -30.070  13.940  28.579  0.00  0.00    -0.049 C 
ATOM     30  H7  non d ame     -30.447  14.250  29.553  0.00  0.00     0.030 H 
ATOM     31  H8  non d ame     -29.586  12.968  28.669  0.00  0.00     0.030 H 
ATOM     32  H9  non d ame     -29.349  14.674  28.218  0.00  0.00     0.030 H 
ENDBRANCH  13  29
ENDBRANCH  10  13
ENDBRANCH   7   9
BRANCH   7  33
ATOM     33  C11 non d ame     -33.529  18.286  26.964  0.00  0.00    -0.033 C 
ATOM     34  H12 non d ame     -34.530  18.716  26.923  0.00  0.00     0.042 H 
BRANCH  33  35
ATOM     35  C12 non d ame     -32.599  19.330  27.659  0.00  0.00    -0.071 C 
ATOM     36  H13 non d ame     -32.498  19.081  28.715  0.00  0.00     0.028 H 
ATOM     37  H14 non d ame     -31.617  19.311  27.186  0.00  0.00     0.028 H 
ATOM     38  H15 non d ame     -33.032  20.325  27.560  0.00  0.00     0.028 H 
ENDBRANCH  33  35
BRANCH  33  39
ATOM     39  C13 non d ame     -33.065  18.000  25.500  0.00  0.00    -0.071 C 
ATOM     40  H16 non d ame     -32.201  17.336  25.515  0.00  0.00     0.028 H 
ATOM     41  H17 non d ame     -33.878  17.528  24.946  0.00  0.00     0.028 H 
ATOM     42  H18 non d ame     -32.795  18.938  25.015  0.00  0.00     0.028 H 
ENDBRANCH  33  39
ENDBRANCH   7  33
ENDBRANCH   4   7
ENDBRANCH   1   3
BRANCH   1  43
ATOM     43  C15 non d ame     -36.287  13.050  27.049  0.00  0.00     0.240 C 
ATOM     44  O5  non d ame     -37.308  12.503  27.313  0.00  0.00    -0.271 OA
ATOM     45  N6  non d ame     -34.989  12.379  27.342  0.00  0.00    -0.355 N 
ATOM     46  H46 non d ame     -34.115  12.832  27.117  0.00  0.00     0.162 HD
BRANCH  45  47
ATOM     47  C20 non d ame     -34.981  11.038  27.966  0.00  0.00     0.013 C 
ATOM     48  H30 non d ame     -35.566  11.092  28.885  0.00  0.00     0.072 H 
BRANCH  47  49
ATOM     49  C21 non d ame     -33.556  10.643  28.283  0.00  0.00    -0.038 C 
ATOM     50  H31 non d ame     -33.276   9.913  27.521  0.00  0.00     0.036 H 
ATOM     51  H32 non d ame     -33.004  11.578  28.371  0.00  0.00     0.036 H 
BRANCH  49  52
ATOM     52  C22 non d ame     -33.421   9.925  29.644  0.00  0.00     0.018 C 
ATOM     53  H33 non d ame     -34.028   9.025  29.564  0.00  0.00     0.048 H 
ATOM     54  H34 non d ame     -32.349   9.845  29.829  0.00  0.00     0.048 H 
BRANCH  52  55
ATOM     55  C23 non d ame     -34.003  10.731  30.837  0.00  0.00     0.259 C 
ATOM     56  O7  non d ame     -33.359  11.578  31.366  0.00  0.00    -0.265 OA
BRANCH  55  57
ATOM     57  O8  non d ame     -35.314  10.435  31.305  0.00  0.00    -0.317 OA
BRANCH  57  58
ATOM     58  C29 non d ame     -35.357   9.419  32.311  0.00  0.00     0.052 C 
ATOM     59  H47 non d ame     -34.318   9.176  32.528  0.00  0.00     0.082 H 
ATOM     60  H48 non d ame     -36.003   9.809  33.097  0.00  0.00     0.082 H 
BRANCH  58  61
ATOM     61  C35 non d ame     -36.036   8.165  31.696  0.00  0.00    -0.034 A 
ATOM     62  C30 non d ame     -35.282   7.026  31.428  0.00  0.00    -0.075 A 
ATOM     63  C31 non d ame     -35.892   5.900  30.876  0.00  0.00    -0.082 A 
ATOM     64  H49 non d ame     -34.216   7.016  31.650  0.00  0.00     0.084 H 
ATOM     65  C32 non d ame     -37.260   5.917  30.590  0.00  0.00    -0.083 A 
ATOM     66  H50 non d ame     -35.299   5.009  30.668  0.00  0.00     0.083 H 
ATOM     67  C33 non d ame     -38.006   7.056  30.856  0.00  0.00    -0.082 A 
ATOM     68  H51 non d ame     -37.744   5.040  30.159  0.00  0.00     0.083 H 
ATOM     69  C34 non d ame     -37.402   8.183  31.410  0.00  0.00    -0.075 A 
ATOM     70  H52 non d ame     -39.073   7.067  30.630  0.00  0.00     0.083 H 
ATOM     71  H53 non d ame     -37.996   9.073  31.617  0.00  0.00     0.084 H 
ENDBRANCH  58  61
ENDBRANCH  57  58
ENDBRANCH  55  57
ENDBRANCH  52  55
ENDBRANCH  49  52
ENDBRANCH  47  49
BRANCH  47  72
ATOM     72  C24 non d ame     -35.592  10.017  27.008  0.00  0.00    -0.039 C 
ATOM     73  H35 non d ame     -36.345  10.567  26.442  0.00  0.00     0.036 H 
ATOM     74  H36 non d ame     -34.748   9.562  26.492  0.00  0.00     0.036 H 
BRANCH  72  75
ATOM     75  C25 non d ame     -36.353   8.847  27.795  0.00  0.00    -0.001 C 
ATOM     76  C26 non d ame     -35.625   7.405  27.490  0.00  0.00    -0.035 C 
ATOM     77  C27 non d ame     -36.568   6.516  27.095  0.00  0.00     0.085 C 
ATOM     78  H38 non d ame     -34.974   7.490  26.621  0.00  0.00     0.036 H 
ATOM     79  H39 non d ame     -35.244   6.976  28.417  0.00  0.00     0.036 H 
ATOM     80  N5  non d ame     -37.817   7.305  26.785  0.00  0.00    -0.049 N 
ATOM     81  H40 non d ame     -36.186   6.078  26.171  0.00  0.00     0.075 H 
ATOM     82  H41 non d ame     -36.753   5.882  27.962  0.00  0.00     0.075 H 
ATOM     83  C28 non d ame     -37.590   8.767  27.431  0.00  0.00     0.193 C 
ATOM     84  H42 non d ame     -37.855   7.399  25.781  0.00  0.00     0.280 HD
ATOM     85  H43 non d ame     -38.572   6.849  27.278  0.00  0.00     0.280 HD
ATOM     86  H44 non d ame     -38.087   9.046  28.359  0.00  0.00     0.129 H 
ATOM     87  H37 non d ame     -36.534   9.101  28.839  0.00  0.00     0.046 H 
BRANCH  83  88
ATOM     88  O6  non d ame     -37.942   9.782  26.489  0.00  0.00    -0.369 OA
ATOM     89  H45 non d ame     -38.251   9.373  25.678  0.00  0.00     0.212 HD
ENDBRANCH  83  88
ENDBRANCH  72  75
ENDBRANCH  47  72
ENDBRANCH  45  47
ENDBRANCH   1  43
BRANCH   1  90
ATOM     90  C16 non d ame     -36.519  14.319  24.891  0.00  0.00    -0.035 C 
ATOM     91  H21 non d ame     -35.595  14.679  24.438  0.00  0.00     0.037 H 
ATOM     92  H22 non d ame     -36.834  13.288  24.738  0.00  0.00     0.037 H 
BRANCH  90  93
ATOM     93  C17 non d ame     -37.664  15.220  24.329  0.00  0.00    -0.059 C 
ATOM     94  H23 non d ame     -37.844  14.921  23.297  0.00  0.00     0.038 H 
BRANCH  93  95
ATOM     95  C18 non d ame     -39.000  15.035  25.118  0.00  0.00    -0.073 C 
ATOM     96  H24 non d ame     -39.446  14.076  24.859  0.00  0.00     0.028 H 
ATOM     97  H25 non d ame     -38.795  15.062  26.189  0.00  0.00     0.028 H 
ATOM     98  H26 non d ame     -39.689  15.839  24.860  0.00  0.00     0.028 H 
ENDBRANCH  93  95
BRANCH  93  99
ATOM     99  C19 non d ame     -37.243  16.692  24.310  0.00  0.00    -0.073 C 
ATOM    100  H27 non d ame     -36.904  16.986  25.304  0.00  0.00     0.028 H 
ATOM    101  H28 non d ame     -36.430  16.828  23.596  0.00  0.00     0.028 H 
ATOM    102  H29 non d ame     -38.091  17.309  24.016  0.00  0.00     0.028 H 
ENDBRANCH  93  99
ENDBRANCH  90  93
ENDBRANCH   1  90
TORSDOF 26
ENDMDL
MODEL 20
REMARK VINA RESULT:      -6.2      2.365      8.929
REMARK  26 active torsions:
REMARK  status: ('A' for Active; 'I' for Inactive)
REMARK    1  A    between atoms: C2_2  and  C3_3 
REMARK    2  A    between atoms: C4_6  and  C5_7 
REMARK       I    between atoms: C5_7  and  N2_9 
REMARK    3  A    between atoms: N2_9  and  C6_10 
REMARK    4  A    between atoms: C6_10  and  C7_11 
REMARK    5  A    between atoms: C6_10  and  C8_13 
REMARK       I    between atoms: C7_11  and  N3_14 
REMARK    6  A    between atoms: N3_14  and  C9_15 
REMARK    7  A    between atoms: C9_15  and  C10_16 
REMARK    8  A    between atoms: C9_15  and  C11_18 
REMARK       I    between atoms: C10_16  and  N4_21 
REMARK    9  A    between atoms: C11_18  and  C12_19 
REMARK   10  A    between atoms: C11_18  and  C13_20 
REMARK   11  A    between atoms: N4_21  and  C14_22 
REMARK   12  A    between atoms: C14_22  and  C15_23 
REMARK   13  A    between atoms: C14_22  and  C16_25 
REMARK       I    between atoms: C15_23  and  N6_40 
REMARK   14  A    between atoms: C16_25  and  C17_26 
REMARK   15  A    between atoms: C17_26  and  C18_27 
REMARK   16  A    between atoms: C17_26  and  C19_28 
REMARK   17  A    between atoms: C20_29  and  C21_30 
REMARK   18  A    between atoms: C20_29  and  C24_33 
REMARK   19  A    between atoms: C20_29  and  N6_40 
REMARK   20  A    between atoms: C21_30  and  C22_31 
REMARK   21  A    between atoms: C22_31  and  C23_32 
REMARK   22  A    between atoms: C23_32  and  O8_43 
REMARK   23  A    between atoms: C24_33  and  C25_34 
REMARK   24  A    between atoms: C28_38  and  O6_39 
REMARK   25  A    between atoms: C29_42  and  O8_43 
REMARK   26  A    between atoms: C29_42  and  C35_49 
ROOT
ATOM      1  C14 non d ame     -35.384   9.657  28.064  0.00  0.00     0.089 C 
ATOM      2  H20 non d ame     -35.546   9.482  29.128  0.00  0.00     0.087 H 
ENDROOT
BRANCH   1   3
ATOM      3  N4  non d ame     -34.283  10.601  27.940  0.00  0.00    -0.346 N 
ATOM      4  C10 non d ame     -33.081  10.493  28.844  0.00  0.00     0.241 C 
ATOM      5  O4  non d ame     -33.024   9.641  29.667  0.00  0.00    -0.271 OA
ATOM      6  H19 non d ame     -34.352  11.321  27.234  0.00  0.00     0.163 HD
BRANCH   4   7
ATOM      7  C9  non d ame     -31.948  11.475  28.696  0.00  0.00     0.092 C 
ATOM      8  H11 non d ame     -31.037  10.935  28.436  0.00  0.00     0.088 H 
BRANCH   7   9
ATOM      9  N3  non d ame     -32.238  12.394  27.593  0.00  0.00    -0.346 N 
ATOM     10  C7  non d ame     -31.582  12.223  26.320  0.00  0.00     0.240 C 
ATOM     11  O3  non d ame     -30.816  11.350  26.167  0.00  0.00    -0.271 OA
ATOM     12  H10 non d ame     -32.895  13.152  27.710  0.00  0.00     0.163 HD
BRANCH  10  13
ATOM     13  C6  non d ame     -31.893  13.206  25.150  0.00  0.00     0.086 C 
ATOM     14  H6  non d ame     -32.911  13.107  24.774  0.00  0.00     0.086 H 
BRANCH  13  15
ATOM     15  N2  non d ame     -31.759  14.571  25.633  0.00  0.00    -0.343 N 
ATOM     16  C5  non d ame     -32.889  15.494  25.508  0.00  0.00     0.273 C 
ATOM     17  O2  non d ame     -33.900  15.131  25.015  0.00  0.00    -0.266 OA
ATOM     18  H5  non d ame     -30.890  14.874  26.050  0.00  0.00     0.163 HD
BRANCH  16  19
ATOM     19  C4  non d ame     -32.762  16.939  26.016  0.00  0.00     0.154 A 
ATOM     20  C1  non d ame     -32.753  17.379  27.378  0.00  0.00    -0.017 A 
ATOM     21  C2  non d ame     -32.616  18.783  27.306  0.00  0.00     0.077 A 
ATOM     22  H1  non d ame     -32.834  16.773  28.280  0.00  0.00     0.091 H 
ATOM     23  O1  non d ame     -32.552  19.101  26.045  0.00  0.00    -0.218 OA
ATOM     24  N1  non d ame     -32.636  18.042  25.274  0.00  0.00    -0.123 NA
BRANCH  21  25
ATOM     25  C3  non d ame     -32.552  19.745  28.485  0.00  0.00    -0.029 C 
ATOM     26  H2  non d ame     -33.440  19.619  29.105  0.00  0.00     0.036 H 
ATOM     27  H3  non d ame     -31.663  19.534  29.078  0.00  0.00     0.036 H 
ATOM     28  H4  non d ame     -32.509  20.769  28.116  0.00  0.00     0.036 H 
ENDBRANCH  21  25
ENDBRANCH  16  19
ENDBRANCH  13  15
BRANCH  13  29
ATOM     29  C8  non d ame     -30.929  12.964  24.016  0.00  0.00    -0.049 C 
ATOM     30  H7  non d ame     -31.159  12.011  23.541  0.00  0.00     0.030 H 
ATOM     31  H8  non d ame     -31.021  13.766  23.284  0.00  0.00     0.030 H 
ATOM     32  H9  non d ame     -29.910  12.941  24.404  0.00  0.00     0.030 H 
ENDBRANCH  13  29
ENDBRANCH  10  13
ENDBRANCH   7   9
BRANCH   7  33
ATOM     33  C11 non d ame     -31.790  12.285  30.016  0.00  0.00    -0.033 C 
ATOM     34  H12 non d ame     -31.718  13.340  29.747  0.00  0.00     0.042 H 
BRANCH  33  35
ATOM     35  C12 non d ame     -33.037  12.120  30.939  0.00  0.00    -0.071 C 
ATOM     36  H13 non d ame     -33.590  13.059  30.974  0.00  0.00     0.028 H 
ATOM     37  H14 non d ame     -33.680  11.335  30.543  0.00  0.00     0.028 H 
ATOM     38  H15 non d ame     -32.713  11.853  31.945  0.00  0.00     0.028 H 
ENDBRANCH  33  35
BRANCH  33  39
ATOM     39  C13 non d ame     -30.476  11.887  30.763  0.00  0.00    -0.071 C 
ATOM     40  H16 non d ame     -29.789  11.413  30.062  0.00  0.00     0.028 H 
ATOM     41  H17 non d ame     -30.010  12.781  31.181  0.00  0.00     0.028 H 
ATOM     42  H18 non d ame     -30.712  11.192  31.568  0.00  0.00     0.028 H 
ENDBRANCH  33  39
ENDBRANCH   7  33
ENDBRANCH   4   7
ENDBRANCH   1   3
BRANCH   1  43
ATOM     43  C15 non d ame     -35.008   8.354  27.305  0.00  0.00     0.240 C 
ATOM     44  O5  non d ame     -35.578   8.069  26.301  0.00  0.00    -0.271 OA
ATOM     45  N6  non d ame     -33.930   7.464  27.822  0.00  0.00    -0.355 N 
ATOM     46  H46 non d ame     -33.435   7.699  28.671  0.00  0.00     0.162 HD
BRANCH  45  47
ATOM     47  C20 non d ame     -33.582   6.228  27.087  0.00  0.00     0.013 C 
ATOM     48  H30 non d ame     -34.398   6.007  26.399  0.00  0.00     0.072 H 
BRANCH  47  49
ATOM     49  C21 non d ame     -33.413   5.093  28.070  0.00  0.00    -0.038 C 
ATOM     50  H31 non d ame     -33.535   4.178  27.488  0.00  0.00     0.036 H 
ATOM     51  H32 non d ame     -32.474   5.288  28.587  0.00  0.00     0.036 H 
BRANCH  49  52
ATOM     52  C22 non d ame     -34.512   5.070  29.154  0.00  0.00     0.018 C 
ATOM     53  H33 non d ame     -34.348   4.154  29.721  0.00  0.00     0.048 H 
ATOM     54  H34 non d ame     -34.453   6.038  29.654  0.00  0.00     0.048 H 
BRANCH  52  55
ATOM     55  C23 non d ame     -35.953   4.969  28.584  0.00  0.00     0.259 C 
ATOM     56  O7  non d ame     -36.230   4.130  27.789  0.00  0.00    -0.265 OA
BRANCH  55  57
ATOM     57  O8  non d ame     -36.939   5.902  29.011  0.00  0.00    -0.317 OA
BRANCH  57  58
ATOM     58  C29 non d ame     -37.117   5.951  30.430  0.00  0.00     0.052 C 
ATOM     59  H47 non d ame     -38.174   5.750  30.601  0.00  0.00     0.082 H 
ATOM     60  H48 non d ame     -36.360   5.285  30.845  0.00  0.00     0.082 H 
BRANCH  58  61
ATOM     61  C35 non d ame     -36.809   7.398  30.901  0.00  0.00    -0.034 A 
ATOM     62  C30 non d ame     -35.583   7.692  31.489  0.00  0.00    -0.075 A 
ATOM     63  C31 non d ame     -35.307   8.992  31.913  0.00  0.00    -0.082 A 
ATOM     64  H49 non d ame     -34.840   6.907  31.619  0.00  0.00     0.084 H 
ATOM     65  C32 non d ame     -36.263   9.998  31.749  0.00  0.00    -0.083 A 
ATOM     66  H50 non d ame     -34.344   9.220  32.373  0.00  0.00     0.083 H 
ATOM     67  C33 non d ame     -37.486   9.698  31.164  0.00  0.00    -0.082 A 
ATOM     68  H51 non d ame     -36.054  11.016  32.077  0.00  0.00     0.083 H 
ATOM     69  C34 non d ame     -37.765   8.401  30.737  0.00  0.00    -0.075 A 
ATOM     70  H52 non d ame     -38.231  10.484  31.039  0.00  0.00     0.083 H 
ATOM     71  H53 non d ame     -38.728   8.174  30.278  0.00  0.00     0.084 H 
ENDBRANCH  58  61
ENDBRANCH  57  58
ENDBRANCH  55  57
ENDBRANCH  52  55
ENDBRANCH  49  52
ENDBRANCH  47  49
BRANCH  47  72
ATOM     72  C24 non d ame     -32.280   6.434  26.316  0.00  0.00    -0.039 C 
ATOM     73  H35 non d ame     -31.744   7.216  26.857  0.00  0.00     0.036 H 
ATOM     74  H36 non d ame     -31.841   5.442  26.219  0.00  0.00     0.036 H 
BRANCH  72  75
ATOM     75  C25 non d ame     -32.547   6.981  24.835  0.00  0.00    -0.001 C 
ATOM     76  C26 non d ame     -31.626   6.148  23.757  0.00  0.00    -0.035 C 
ATOM     77  C27 non d ame     -30.951   7.033  22.985  0.00  0.00     0.085 C 
ATOM     78  H38 non d ame     -30.836   5.609  24.278  0.00  0.00     0.036 H 
ATOM     79  H39 non d ame     -32.265   5.626  23.045  0.00  0.00     0.036 H 
ATOM     80  N5  non d ame     -31.072   8.382  23.651  0.00  0.00    -0.049 N 
ATOM     81  H40 non d ame     -29.909   6.713  23.019  0.00  0.00     0.075 H 
ATOM     82  H41 non d ame     -31.483   7.057  22.034  0.00  0.00     0.075 H 
ATOM     83  C28 non d ame     -32.256   8.236  24.739  0.00  0.00     0.193 C 
ATOM     84  H42 non d ame     -30.203   8.540  24.140  0.00  0.00     0.280 HD
ATOM     85  H43 non d ame     -31.373   9.029  22.934  0.00  0.00     0.280 HD
ATOM     86  H44 non d ame     -33.243   8.654  24.544  0.00  0.00     0.129 H 
ATOM     87  H37 non d ame     -33.611   7.071  24.613  0.00  0.00     0.046 H 
BRANCH  83  88
ATOM     88  O6  non d ame     -31.846   8.791  25.991  0.00  0.00    -0.369 OA
ATOM     89  H45 non d ame     -31.580   9.704  25.864  0.00  0.00     0.212 HD
ENDBRANCH  83  88
ENDBRANCH  72  75
ENDBRANCH  47  72
ENDBRANCH  45  47
ENDBRANCH   1  43
BRANCH   1  90
ATOM     90  C16 non d ame     -36.632  10.267  27.447  0.00  0.00    -0.035 C 
ATOM     91  H21 non d ame     -37.036   9.497  26.791  0.00  0.00     0.037 H 
ATOM     92  H22 non d ame     -37.222  10.631  28.288  0.00  0.00     0.037 H 
BRANCH  90  93
ATOM     93  C17 non d ame     -36.342  11.507  26.542  0.00  0.00    -0.059 C 
ATOM     94  H23 non d ame     -35.336  11.857  26.772  0.00  0.00     0.038 H 
BRANCH  93  95
ATOM     95  C18 non d ame     -36.388  11.151  25.022  0.00  0.00    -0.073 C 
ATOM     96  H24 non d ame     -37.017  10.273  24.873  0.00  0.00     0.028 H 
ATOM     97  H25 non d ame     -36.801  11.991  24.464  0.00  0.00     0.028 H 
ATOM     98  H26 non d ame     -35.380  10.940  24.667  0.00  0.00     0.028 H 
ENDBRANCH  93  95
BRANCH  93  99
ATOM     99  C19 non d ame     -37.306  12.653  26.861  0.00  0.00    -0.073 C 
ATOM    100  H27 non d ame     -37.614  13.138  25.934  0.00  0.00     0.028 H 
ATOM    101  H28 non d ame     -38.184  12.259  27.372  0.00  0.00     0.028 H 
ATOM    102  H29 non d ame     -36.808  13.379  27.503  0.00  0.00     0.028 H 
ENDBRANCH  93  99
ENDBRANCH  90  93
ENDBRANCH   1  90
TORSDOF 26
ENDMDL
