6lu7_ligand.pdbqt
     RDKit          3D

101103  0  0  0  0  0  0  0  0999 V2000
  -11.5726   13.4497   68.4723 C   0  0  1  0  0  0  0  0  0  0  0  0
  -11.1694   14.3243   69.6654 C   0  0  0  0  0  0  0  0  0  0  0  0
  -11.8807   13.9668   70.9879 C   0  0  0  0  0  0  0  0  0  0  0  0
  -11.5678   12.5545   71.4824 C   0  0  0  0  0  0  0  0  0  0  0  0
  -11.4985   14.9823   72.0690 C   0  0  0  0  0  0  0  0  0  0  0  0
  -11.2306   14.1461   67.1563 C   0  0  0  0  0  0  0  0  0  0  0  0
  -12.2146   15.0441   66.7634 N   0  0  0  0  0  0  0  0  0  0  0  0
  -10.1854   13.9383   66.5432 O   0  0  0  0  0  0  0  0  0  0  0  0
  -12.2392   15.6645   65.4397 C   0  0  1  0  0  0  0  0  0  0  0  0
  -13.2574   14.9342   64.5348 C   0  0  0  0  0  0  0  0  0  0  0  0
  -12.8811   13.4837   64.2001 C   0  0  1  0  0  0  0  0  0  0  0  0
  -13.9369   12.7296   63.3897 C   0  0  1  0  0  0  0  0  0  0  0  0
  -14.4896   13.5246   62.3471 O   0  0  0  0  0  0  0  0  0  0  0  0
  -11.6384   13.3523   63.3231 C   0  0  0  0  0  0  0  0  0  0  0  0
  -11.8493   12.0573   62.5463 C   0  0  0  0  0  0  0  0  0  0  0  0
  -13.1975   11.5697   62.8744 N   0  0  0  0  0  0  0  0  0  0  0  0
  -12.6084   17.1580   65.5410 C   0  0  0  0  0  0  0  0  0  0  0  0
  -11.5394   18.0041   66.2383 C   0  0  0  0  0  0  0  0  0  0  0  0
  -11.6510   18.0064   67.7461 C   0  0  0  0  0  0  0  0  0  0  0  0
  -12.6753   17.7798   68.3753 O   0  0  0  0  0  0  0  0  0  0  0  0
  -10.4431   18.3544   68.2795 O   0  0  0  0  0  0  0  0  0  0  0  0
  -10.3958   18.4780   69.7082 C   0  0  0  0  0  0  0  0  0  0  0  0
   -8.9555   18.5578   70.1270 C   0  0  0  0  0  0  0  0  0  0  0  0
   -8.3005   19.7945   70.1903 C   0  0  0  0  0  0  0  0  0  0  0  0
   -6.9556   19.8635   70.5571 C   0  0  0  0  0  0  0  0  0  0  0  0
   -6.2526   18.6979   70.8566 C   0  0  0  0  0  0  0  0  0  0  0  0
   -6.8926   17.4619   70.7866 C   0  0  0  0  0  0  0  0  0  0  0  0
   -8.2373   17.3909   70.4198 C   0  0  0  0  0  0  0  0  0  0  0  0
  -10.8523   12.1846   68.4509 N   0  0  0  0  0  0  0  0  0  0  0  0
  -11.4297   11.0068   67.9960 C   0  0  0  0  0  0  0  0  0  0  0  0
  -12.6072   10.8800   67.6640 O   0  0  0  0  0  0  0  0  0  0  0  0
  -10.4463    9.8408   67.9776 C   0  0  2  0  0  0  0  0  0  0  0  0
  -10.2466    9.3023   66.5463 C   0  0  0  0  0  0  0  0  0  0  0  0
   -9.3339    8.0709   66.5437 C   0  0  0  0  0  0  0  0  0  0  0  0
   -9.6518   10.3729   65.6256 C   0  0  0  0  0  0  0  0  0  0  0  0
  -11.0790    8.8508   68.8421 N   0  0  0  0  0  0  0  0  0  0  0  0
  -10.8010    8.7566   70.2004 C   0  0  0  0  0  0  0  0  0  0  0  0
   -9.9384    9.4082   70.7855 O   0  0  0  0  0  0  0  0  0  0  0  0
  -11.7127    7.7566   70.9065 C   0  0  2  0  0  0  0  0  0  0  0  0
  -13.1278    8.3062   71.0301 C   0  0  0  0  0  0  0  0  0  0  0  0
  -11.1520    7.4996   72.2259 N   0  0  0  0  0  0  0  0  0  0  0  0
  -10.2741    6.4554   72.4833 C   0  0  0  0  0  0  0  0  0  0  0  0
   -9.9568    5.5957   71.6655 O   0  0  0  0  0  0  0  0  0  0  0  0
   -9.7314    6.4537   73.8348 C   0  0  0  0  0  0  0  0  0  0  0  0
  -10.0659    7.3881   74.7381 N   0  0  0  0  0  0  0  0  0  0  0  0
   -9.3665    7.0704   75.8895 O   0  0  0  0  0  0  0  0  0  0  0  0
   -8.6205    5.9550   75.6744 C   0  0  0  0  0  0  0  0  0  0  0  0
   -7.8085    5.4757   76.8055 C   0  0  0  0  0  0  0  0  0  0  0  0
   -8.8155    5.5236   74.3873 C   0  0  0  0  0  0  0  0  0  0  0  0
  -12.6496   13.2451   68.4894 H   0  0  0  0  0  0  0  0  0  0  0  0
  -11.4059   15.3696   69.4333 H   0  0  0  0  0  0  0  0  0  0  0  0
  -10.0812   14.2850   69.8076 H   0  0  0  0  0  0  0  0  0  0  0  0
  -12.9645   14.0402   70.8317 H   0  0  0  0  0  0  0  0  0  0  0  0
  -10.4879   12.3817   71.5380 H   0  0  0  0  0  0  0  0  0  0  0  0
  -12.0079   11.7985   70.8266 H   0  0  0  0  0  0  0  0  0  0  0  0
  -11.9874   12.3885   72.4807 H   0  0  0  0  0  0  0  0  0  0  0  0
  -10.4204   14.9709   72.2620 H   0  0  0  0  0  0  0  0  0  0  0  0
  -12.0144   14.7638   73.0101 H   0  0  0  0  0  0  0  0  0  0  0  0
  -11.7801   15.9962   71.7676 H   0  0  0  0  0  0  0  0  0  0  0  0
  -13.0622   15.1109   67.3194 H   0  0  0  0  0  0  0  0  0  0  0  0
  -11.2427   15.5809   64.9907 H   0  0  0  0  0  0  0  0  0  0  0  0
  -14.2406   14.9373   65.0239 H   0  0  0  0  0  0  0  0  0  0  0  0
  -13.3705   15.5005   63.6016 H   0  0  0  0  0  0  0  0  0  0  0  0
  -12.7102   12.9212   65.1277 H   0  0  0  0  0  0  0  0  0  0  0  0
  -14.7665   12.4056   64.0260 H   0  0  0  0  0  0  0  0  0  0  0  0
  -13.7907   13.6790   61.6903 H   0  0  0  0  0  0  0  0  0  0  0  0
  -11.5529   14.1942   62.6258 H   0  0  0  0  0  0  0  0  0  0  0  0
  -10.7236   13.3177   63.9221 H   0  0  0  0  0  0  0  0  0  0  0  0
  -11.7676   12.2376   61.4690 H   0  0  0  0  0  0  0  0  0  0  0  0
  -11.0991   11.3052   62.8116 H   0  0  0  0  0  0  0  0  0  0  0  0
  -13.1093   10.8890   63.6306 H   0  0  0  0  0  0  0  0  0  0  0  0
  -12.7204   17.5519   64.5225 H   0  0  0  0  0  0  0  0  0  0  0  0
  -13.5814   17.2766   66.0332 H   0  0  0  0  0  0  0  0  0  0  0  0
  -11.6454   19.0480   65.9201 H   0  0  0  0  0  0  0  0  0  0  0  0
  -10.5409   17.6611   65.9448 H   0  0  0  0  0  0  0  0  0  0  0  0
  -10.8796   17.6203   70.1876 H   0  0  0  0  0  0  0  0  0  0  0  0
  -10.9329   19.3854   70.0085 H   0  0  0  0  0  0  0  0  0  0  0  0
   -8.8341   20.7116   69.9537 H   0  0  0  0  0  0  0  0  0  0  0  0
   -6.4560   20.8266   70.6070 H   0  0  0  0  0  0  0  0  0  0  0  0
   -5.2060   18.7525   71.1412 H   0  0  0  0  0  0  0  0  0  0  0  0
   -6.3443   16.5527   71.0153 H   0  0  0  0  0  0  0  0  0  0  0  0
   -8.7211   16.4194   70.3640 H   0  0  0  0  0  0  0  0  0  0  0  0
   -9.8428   12.2231   68.5581 H   0  0  0  0  0  0  0  0  0  0  0  0
   -9.4847   10.1320   68.4154 H   0  0  0  0  0  0  0  0  0  0  0  0
  -11.2168    9.0015   66.1285 H   0  0  0  0  0  0  0  0  0  0  0  0
   -8.3518    8.3048   66.9689 H   0  0  0  0  0  0  0  0  0  0  0  0
   -9.1813    7.7029   65.5233 H   0  0  0  0  0  0  0  0  0  0  0  0
   -9.7693    7.2513   67.1242 H   0  0  0  0  0  0  0  0  0  0  0  0
   -8.6990   10.7471   66.0149 H   0  0  0  0  0  0  0  0  0  0  0  0
  -10.3323   11.2224   65.5151 H   0  0  0  0  0  0  0  0  0  0  0  0
   -9.4727    9.9684   64.6236 H   0  0  0  0  0  0  0  0  0  0  0  0
  -11.8904    8.3612   68.4756 H   0  0  0  0  0  0  0  0  0  0  0  0
  -11.7177    6.8203   70.3367 H   0  0  0  0  0  0  0  0  0  0  0  0
  -13.1347    9.2674   71.5569 H   0  0  0  0  0  0  0  0  0  0  0  0
  -13.7652    7.6145   71.5912 H   0  0  0  0  0  0  0  0  0  0  0  0
  -13.5838    8.4658   70.0477 H   0  0  0  0  0  0  0  0  0  0  0  0
  -11.2663    8.2223   72.9316 H   0  0  0  0  0  0  0  0  0  0  0  0
   -7.2469    4.5766   76.5335 H   0  0  0  0  0  0  0  0  0  0  0  0
   -8.4470    5.2324   77.6603 H   0  0  0  0  0  0  0  0  0  0  0  0
   -7.0927    6.2429   77.1162 H   0  0  0  0  0  0  0  0  0  0  0  0
   -8.3640    4.6640   73.9135 H   0  0  0  0  0  0  0  0  0  0  0  0
 16 15  1  0
 16 12  1  0
 13 12  1  0
 15 14  1  0
 12 11  1  0
 14 11  1  0
 10 11  1  0
 10  9  1  0
 18 17  1  0
 18 19  1  0
 17  9  1  0
 21 19  1  0
 21 22  1  0
  9  7  1  0
 19 20  2  0
 22 23  1  0
 24 23  2  0
 24 25  1  0
 23 28  1  0
 25 26  2  0
  7  6  1  0
 26 27  1  0
 28 27  2  0
 35 33  1  0
  8  6  2  0
 31 30  2  0
  6  1  1  0
 33 34  1  0
 33 32  1  0
 30 32  1  0
 30 29  1  0
 32 36  1  0
  1 29  1  0
  1  2  1  0
 36 37  1  0
  2  3  1  0
 43 42  2  0
 37 39  1  0
 37 38  2  0
 39 40  1  0
 39 41  1  0
  3  4  1  0
  3  5  1  0
 42 41  1  0
 42 44  1  0
 49 44  1  0
 49 47  2  0
 44 45  2  0
 47 48  1  0
 47 46  1  0
 45 46  1  0
  1 50  1  6
  2 51  1  0
  2 52  1  0
  3 53  1  0
  4 54  1  0
  4 55  1  0
  4 56  1  0
  5 57  1  0
  5 58  1  0
  5 59  1  0
  7 60  1  0
  9 61  1  6
 10 62  1  0
 10 63  1  0
 11 64  1  1
 12 65  1  1
 13 66  1  0
 14 67  1  0
 14 68  1  0
 15 69  1  0
 15 70  1  0
 16 71  1  0
 17 72  1  0
 17 73  1  0
 18 74  1  0
 18 75  1  0
 22 76  1  0
 22 77  1  0
 24 78  1  0
 25 79  1  0
 26 80  1  0
 27 81  1  0
 28 82  1  0
 29 83  1  0
 32 84  1  1
 33 85  1  0
 34 86  1  0
 34 87  1  0
 34 88  1  0
 35 89  1  0
 35 90  1  0
 35 91  1  0
 36 92  1  0
 39 93  1  6
 40 94  1  0
 40 95  1  0
 40 96  1  0
 41 97  1  0
 48 98  1  0
 48 99  1  0
 48100  1  0
 49101  1  0
M  END
>  <_TriposChargeType>  (1) 
GASTEIGER

>  <energy_abs>  (1) 
78.89351251200351

>  <SMILE>  (1) 
[H]O[C@@]1([H])N([H])C([H])([H])C([H])([H])[C@@]1([H])C([H])([H])[C@]([H])(N([H])C(=O)[C@@]([H])(N([H])C(=O)[C@@]([H])(N([H])C(=O)[C@@]([H])(N([H])C(=O)c1noc(C([H])([H])[H])c1[H])C([H])([H])[H])C([H])(C([H])([H])[H])C([H])([H])[H])C([H])([H])C([H])(C([H])([H])[H])C([H])([H])[H])C([H])([H])C([H])([H])C(=O)OC([H])([H])c1c([H])c([H])c([H])c([H])c1[H]

$$$$
