@<TRIPOS>MOLECULE
6lu7_ligand.pdbqt
 101 103 0 0 0
SMALL
GASTEIGER

@<TRIPOS>ATOM
      1 CA        -30.9230   14.0960   24.5240 C.3     4  LEU44       0.0996
      2 N         -31.5950   12.8590   24.1550 N.am    4  LEU44      -0.3025
      3 C         -31.3840   11.6060   24.9670 C.2     3  VAL33       0.2342
      4 O         -30.6660   11.6170   25.9120 O.2     3  VAL33      -0.2738
      5 CA        -32.0920   10.3360   24.5740 C.3     3  VAL33       0.1017
      6 N         -31.1040    9.2810   24.3290 N.am    3  VAL33      -0.3022
      7 C         -30.9320    8.7500   22.9990 C.2     2  ALA22       0.2337
      8 O         -31.5810    9.1590   22.1150 O.2     2  ALA22      -0.2738
      9 CA        -29.8810    7.6250   22.7450 C.3     2  ALA22       0.0969
     10 CB        -28.6500    8.2180   22.1080 C.3     2  ALA22      -0.0381
     11 N         -30.4640    6.6250   21.8660 N.am    2  ALA22      -0.2990
     12 C41       -31.5720    5.7980   22.3490 C.2     1  02J11       0.2663
     13 O42       -31.9850    5.9430   23.4470 O.2     1  02J11      -0.2684
     14 C3        -32.1990    4.7380   21.4300 C.ar    1  02J11       0.1678
     15 N2        -32.4620    4.8610   20.1260 N.ar    1  02J11      -0.0734
     16 O1        -32.9990    3.7550   19.6650 O.2     1  02J11      -0.3592
     17 C5        -33.1230    2.8570   20.5980 C.ar    1  02J11       0.1350
     18 C6        -33.7020    1.4580   20.4340 C.3     1  02J11      -0.0037
     19 C4        -32.6220    3.4200   21.7930 C.ar    1  02J11       0.0125
     20 CB        -33.0430    9.8950   25.7250 C.3     3  VAL33      -0.0197
     21 CG2       -33.9310    8.6870   25.2850 C.3     3  VAL33      -0.0605
     22 CG1       -33.9170   11.0860   26.2280 C.3     3  VAL33      -0.0605
     23 CB        -31.2220   15.1550   23.4750 C.3     4  LEU44      -0.0236
     24 CG        -30.0460   15.3970   22.4760 C.3     4  LEU44      -0.0446
     25 CD1       -29.2130   14.1000   22.2210 C.3     4  LEU44      -0.0626
     26 CD2       -30.5600   15.9820   21.1580 C.3     4  LEU44      -0.0626
     27 C         -31.4650   14.5610   25.9060 C.2     4  LEU44       0.2336
     28 O         -32.6360   14.5700   26.1090 O.2     4  LEU44      -0.2738
     29 N5        -30.5230   14.9870   26.9800 N.am    5  PJE55      -0.3109
     30 C19       -31.0540   15.4250   28.2890 C.3     5  PJE55       0.0240
     31 C20       -30.5480   16.8170   28.5930 C.3     5  PJE55      -0.0244
     32 C21       -31.6820   17.8020   28.9510 C.3     5  PJE55       0.0466
     33 C22       -32.8800   17.7640   27.9620 C.2     5  PJE55       0.3074
     34 O7        -32.6930   17.7310   26.7890 O.2     5  PJE55      -0.2508
     35 O         -34.2070   17.7820   28.4740 O.3     6  01066      -0.4599
     36 C         -35.2170   17.5820   27.4810 C.3     6  01066       0.1175
     37 C6        -35.9650   18.9270   27.2810 C.ar    6  01066      -0.0103
     38 C5        -35.2870   20.1340   27.4620 C.ar    6  01066      -0.0554
     39 C4        -35.9620   21.3390   27.2790 C.ar    6  01066      -0.0614
     40 C3        -37.3030   21.3470   26.9200 C.ar    6  01066      -0.0617
     41 C2        -37.9800   20.1380   26.7380 C.ar    6  01066      -0.0614
     42 C1        -37.3080   18.9300   26.9180 C.ar    6  01066      -0.0554
     43 C25       -30.5910   14.4640   29.3820 C.3     5  PJE55      -0.0280
     44 C26       -31.2200   13.0030   29.1920 C.3     5  PJE55       0.0014
     45 C29       -30.6640   12.1480   29.9840 C.3     5  PJE55       0.1091
     46 O8        -29.6070   12.7300   30.7490 O.3     5  PJE55      -0.3771
     47 C27       -32.8320   13.0410   29.5150 C.3     5  PJE55      -0.0339
     48 C28       -33.1220   12.0610   30.4040 C.3     5  PJE55      -0.0015
     49 N6        -31.8090   11.5710   30.9650 N.3     5  PJE55      -0.2916
     50 H         -29.8656   13.9432   24.5819 H       4  LEU44       0.0594
     51 H         -32.1904   12.8401   23.3712 H       4  LEU44       0.1495
     52 H         -32.6614   10.5066   23.6843 H       3  VAL33       0.0597
     53 H         -30.5582    8.9352   25.0718 H       3  VAL33       0.1495
     54 H         -29.6042    7.1679   23.6720 H       2  ALA22       0.0592
     55 H         -28.9155    8.6783   21.1793 H       2  ALA22       0.0252
     56 H         -27.9325    7.4444   21.9304 H       2  ALA22       0.0252
     57 H         -28.2283    8.9522   22.7622 H       2  ALA22       0.0252
     58 H         -30.1167    6.5045   20.9527 H       2  ALA22       0.1498
     59 H         -33.9998    1.3122   19.4167 H       1  02J11       0.0309
     60 H         -34.5523    1.3466   21.0739 H       1  02J11       0.0309
     61 H         -32.9608    0.7322   20.6962 H       1  02J11       0.0309
     62 H         -32.5720    2.9776   22.7240 H       1  02J11       0.0676
     63 H         -32.4354    9.5741   26.5452 H       3  VAL33       0.0318
     64 H         -34.5508    8.9805   24.4636 H       3  VAL33       0.0233
     65 H         -34.5466    8.3798   26.1044 H       3  VAL33       0.0233
     66 H         -33.3037    7.8736   24.9856 H       3  VAL33       0.0233
     67 H         -34.5396   11.4334   25.4302 H       3  VAL33       0.0233
     68 H         -33.2810   11.8814   26.5563 H       3  VAL33       0.0233
     69 H         -34.5296   10.7599   27.0424 H       3  VAL33       0.0233
     70 H         -32.0810   14.8453   22.9173 H       4  LEU44       0.0290
     71 H         -31.3845   16.0752   23.9963 H       4  LEU44       0.0290
     72 H         -29.3896   16.1094   22.9304 H       4  LEU44       0.0296
     73 H         -29.8366   13.3595   21.7653 H       4  LEU44       0.0232
     74 H         -28.8390   13.7276   23.1518 H       4  LEU44       0.0232
     75 H         -28.3930   14.3247   21.5714 H       4  LEU44       0.0232
     76 H         -31.2190   15.2811   20.6897 H       4  LEU44       0.0232
     77 H         -29.7325   16.1817   20.5097 H       4  LEU44       0.0232
     78 H         -31.0877   16.8921   21.3535 H       4  LEU44       0.0232
     79 H         -29.5519   14.9768   26.8186 H       5  PJE55       0.1490
     80 H         -32.1234   15.4301   28.2551 H       5  PJE55       0.0498
     81 H         -30.0318   17.1884   27.7325 H       5  PJE55       0.0288
     82 H         -29.9028   16.7462   29.4437 H       5  PJE55       0.0288
     83 H         -32.0435   17.5597   29.9285 H       5  PJE55       0.0378
     84 H         -31.2671   18.7870   28.9008 H       5  PJE55       0.0378
     85 H         -34.7656   17.2770   26.5601 H       6  01066       0.0749
     86 H         -35.8997   16.8195   27.7932 H       6  01066       0.0749
     87 H         -34.2904   20.1336   27.7301 H       6  01066       0.0621
     88 H         -35.4616   22.2318   27.4112 H       6  01066       0.0618
     89 H         -37.7983   22.2427   26.7880 H       6  01066       0.0618
     90 H         -38.9767   20.1395   26.4705 H       6  01066       0.0618
     91 H         -37.8072   18.0371   26.7819 H       6  01066       0.0621
     92 H         -30.8920   14.8501   30.3334 H       5  PJE55       0.0287
     93 H         -29.5261   14.3790   29.3221 H       5  PJE55       0.0287
     94 H         -31.0486   12.7050   28.1787 H       5  PJE55       0.0340
     95 H         -30.2244   11.3653   29.4017 H       5  PJE55       0.0767
     96 H         -29.9613   13.4488   31.2956 H       5  PJE55       0.2114
     97 H         -33.3836   12.8822   28.6120 H       5  PJE55       0.0281
     98 H         -33.0987   13.9933   29.9236 H       5  PJE55       0.0281
     99 H         -33.6339   11.2596   29.9134 H       5  PJE55       0.0425
    100 H         -33.7568   12.4280   31.1832 H       5  PJE55       0.0425
    101 H         -31.6747   11.9236   31.9126 H       5  PJE55       0.1243
@<TRIPOS>BOND
     1    16    15   ar
     2    16    17   ar
     3    15    14   ar
     4    18    17    1
     5    17    19   ar
     6    26    24    1
     7    14    19   ar
     8    14    12    1
     9    11    12   am
    10    11     9    1
    11    10     9    1
    12     8     7    2
    13    25    24    1
    14    12    13    2
    15    24    23    1
    16     9     7    1
    17     7     6   am
    18    23     1    1
    19     2     1    1
    20     2     3   am
    21     6     5    1
    22     1    27    1
    23     5     3    1
    24     5    20    1
    25     3     4    2
    26    21    20    1
    27    20    22    1
    28    27    28    2
    29    27    29   am
    30    41    42   ar
    31    41    40   ar
    32    34    33    2
    33    42    37   ar
    34    40    39   ar
    35    29    30    1
    36    39    38   ar
    37    37    38   ar
    38    37    36    1
    39    36    35    1
    40    33    35    1
    41    33    32    1
    42    30    31    1
    43    30    43    1
    44    31    32    1
    45    44    43    1
    46    44    47    1
    47    44    45    1
    48    47    48    1
    49    45    46    1
    50    45    49    1
    51    48    49    1
    52     1    50    1
    53     2    51    1
    54     5    52    1
    55     6    53    1
    56     9    54    1
    57    10    55    1
    58    10    56    1
    59    10    57    1
    60    11    58    1
    61    18    59    1
    62    18    60    1
    63    18    61    1
    64    19    62    1
    65    20    63    1
    66    21    64    1
    67    21    65    1
    68    21    66    1
    69    22    67    1
    70    22    68    1
    71    22    69    1
    72    23    70    1
    73    23    71    1
    74    24    72    1
    75    25    73    1
    76    25    74    1
    77    25    75    1
    78    26    76    1
    79    26    77    1
    80    26    78    1
    81    29    79    1
    82    30    80    1
    83    31    81    1
    84    31    82    1
    85    32    83    1
    86    32    84    1
    87    36    85    1
    88    36    86    1
    89    38    87    1
    90    39    88    1
    91    40    89    1
    92    41    90    1
    93    42    91    1
    94    43    92    1
    95    43    93    1
    96    44    94    1
    97    45    95    1
    98    46    96    1
    99    47    97    1
   100    47    98    1
   101    48    99    1
   102    48   100    1
   103    49   101    1
