MODEL 0
REMARK  26 active torsions:
REMARK  status: ('A' for Active; 'I' for Inactive)
REMARK    1  A    between atoms: C2_2  and  C3_3 
REMARK    2  A    between atoms: C4_6  and  C5_7 
REMARK       I    between atoms: C5_7  and  N2_9 
REMARK    3  A    between atoms: N2_9  and  C6_10 
REMARK    4  A    between atoms: C6_10  and  C7_11 
REMARK    5  A    between atoms: C6_10  and  C8_13 
REMARK       I    between atoms: C7_11  and  N3_14 
REMARK    6  A    between atoms: N3_14  and  C9_15 
REMARK    7  A    between atoms: C9_15  and  C10_16 
REMARK    8  A    between atoms: C9_15  and  C11_18 
REMARK       I    between atoms: C10_16  and  N4_21 
REMARK    9  A    between atoms: C11_18  and  C12_19 
REMARK   10  A    between atoms: C11_18  and  C13_20 
REMARK   11  A    between atoms: N4_21  and  C14_22 
REMARK   12  A    between atoms: C14_22  and  C15_23 
REMARK   13  A    between atoms: C14_22  and  C16_25 
REMARK       I    between atoms: C15_23  and  N6_40 
REMARK   14  A    between atoms: C16_25  and  C17_26 
REMARK   15  A    between atoms: C17_26  and  C18_27 
REMARK   16  A    between atoms: C17_26  and  C19_28 
REMARK   17  A    between atoms: C20_29  and  C21_30 
REMARK   18  A    between atoms: C20_29  and  C24_33 
REMARK   19  A    between atoms: C20_29  and  N6_40 
REMARK   20  A    between atoms: C21_30  and  C22_31 
REMARK   21  A    between atoms: C22_31  and  C23_32 
REMARK   22  A    between atoms: C23_32  and  O8_43 
REMARK   23  A    between atoms: C24_33  and  C25_34 
REMARK   24  A    between atoms: C28_38  and  O6_39 
REMARK   25  A    between atoms: C29_42  and  O8_43 
REMARK   26  A    between atoms: C29_42  and  C35_49 
ROOT
ATOM      1  C14 non d ame     -12.124  14.096  69.716  0.00  0.00     0.089 C 
ATOM      2  H20 non d ame     -13.195  13.893  69.691  0.00  0.00     0.087 H 
ENDROOT
BRANCH   1   3
ATOM      3  N4  non d ame     -11.452  12.859  70.085  0.00  0.00    -0.346 N 
ATOM      4  C10 non d ame     -11.663  11.606  69.273  0.00  0.00     0.241 C 
ATOM      5  O4  non d ame     -12.381  11.617  68.328  0.00  0.00    -0.271 OA
ATOM      6  H19 non d ame     -10.847  12.870  70.894  0.00  0.00     0.163 HD
BRANCH   4   7
ATOM      7  C9  non d ame     -10.955  10.336  69.666  0.00  0.00     0.092 C 
ATOM      8  H11 non d ame     -10.419  10.499  70.601  0.00  0.00     0.088 H 
BRANCH   7   9
ATOM      9  N3  non d ame     -11.943   9.281  69.911  0.00  0.00    -0.346 N 
ATOM     10  C7  non d ame     -12.115   8.750  71.241  0.00  0.00     0.240 C 
ATOM     11  O3  non d ame     -11.466   9.159  72.125  0.00  0.00    -0.271 OA
ATOM     12  H10 non d ame     -12.509   8.917  69.158  0.00  0.00     0.163 HD
BRANCH  10  13
ATOM     13  C6  non d ame     -13.166   7.625  71.495  0.00  0.00     0.086 C 
ATOM     14  H6  non d ame     -13.457   7.106  70.582  0.00  0.00     0.086 H 
BRANCH  13  15
ATOM     15  N2  non d ame     -12.583   6.625  72.374  0.00  0.00    -0.343 N 
ATOM     16  C5  non d ame     -11.475   5.798  71.891  0.00  0.00     0.273 C 
ATOM     17  O2  non d ame     -11.062   5.943  70.793  0.00  0.00    -0.266 OA
ATOM     18  H5  non d ame     -12.944   6.506  73.310  0.00  0.00     0.163 HD
BRANCH  16  19
ATOM     19  C4  non d ame     -10.848   4.738  72.810  0.00  0.00     0.154 A 
ATOM     20  C1  non d ame     -10.425   3.420  72.447  0.00  0.00    -0.017 A 
ATOM     21  C2  non d ame      -9.924   2.857  73.642  0.00  0.00     0.077 A 
ATOM     22  H1  non d ame     -10.474   2.945  71.467  0.00  0.00     0.091 H 
ATOM     23  O1  non d ame     -10.048   3.755  74.575  0.00  0.00    -0.218 OA
ATOM     24  N1  non d ame     -10.585   4.861  74.114  0.00  0.00    -0.123 NA
BRANCH  21  25
ATOM     25  C3  non d ame      -9.345   1.458  73.806  0.00  0.00    -0.029 C 
ATOM     26  H2  non d ame      -9.249   1.226  74.867  0.00  0.00     0.036 H 
ATOM     27  H3  non d ame     -10.008   0.733  73.334  0.00  0.00     0.036 H 
ATOM     28  H4  non d ame      -8.363   1.413  73.334  0.00  0.00     0.036 H 
ENDBRANCH  21  25
ENDBRANCH  16  19
ENDBRANCH  13  15
BRANCH  13  29
ATOM     29  C8  non d ame     -14.397   8.218  72.132  0.00  0.00    -0.049 C 
ATOM     30  H7  non d ame     -14.303   8.172  73.217  0.00  0.00     0.030 H 
ATOM     31  H8  non d ame     -14.503   9.257  71.820  0.00  0.00     0.030 H 
ATOM     32  H9  non d ame     -15.275   7.653  71.820  0.00  0.00     0.030 H 
ENDBRANCH  13  29
ENDBRANCH  10  13
ENDBRANCH   7   9
BRANCH   7  33
ATOM     33  C11 non d ame     -10.004   9.895  68.515  0.00  0.00    -0.033 C 
ATOM     34  H12 non d ame     -10.626   9.570  67.681  0.00  0.00     0.042 H 
BRANCH  33  35
ATOM     35  C12 non d ame      -9.130  11.086  68.012  0.00  0.00    -0.071 C 
ATOM     36  H13 non d ame      -8.730  11.630  68.868  0.00  0.00     0.028 H 
ATOM     37  H14 non d ame      -8.307  10.703  67.409  0.00  0.00     0.028 H 
ATOM     38  H15 non d ame      -9.742  11.756  67.409  0.00  0.00     0.028 H 
ENDBRANCH  33  35
BRANCH  33  39
ATOM     39  C13 non d ame      -9.116   8.687  68.955  0.00  0.00    -0.071 C 
ATOM     40  H16 non d ame      -9.081   8.639  70.043  0.00  0.00     0.028 H 
ATOM     41  H17 non d ame      -9.541   7.762  68.564  0.00  0.00     0.028 H 
ATOM     42  H18 non d ame      -8.107   8.817  68.564  0.00  0.00     0.028 H 
ENDBRANCH  33  39
ENDBRANCH   7  33
ENDBRANCH   4   7
ENDBRANCH   1   3
BRANCH   1  43
ATOM     43  C15 non d ame     -11.582  14.561  68.334  0.00  0.00     0.240 C 
ATOM     44  O5  non d ame     -10.411  14.570  68.131  0.00  0.00    -0.271 OA
ATOM     45  N6  non d ame     -12.524  14.987  67.260  0.00  0.00    -0.355 N 
ATOM     46  H46 non d ame     -13.521  14.979  67.419  0.00  0.00     0.162 HD
BRANCH  45  47
ATOM     47  C20 non d ame     -11.993  15.425  65.951  0.00  0.00     0.013 C 
ATOM     48  H30 non d ame     -10.905  15.430  66.015  0.00  0.00     0.072 H 
BRANCH  47  49
ATOM     49  C21 non d ame     -12.499  16.817  65.647  0.00  0.00    -0.038 C 
ATOM     50  H31 non d ame     -13.115  16.718  64.753  0.00  0.00     0.036 H 
ATOM     51  H32 non d ame     -12.940  17.179  66.576  0.00  0.00     0.036 H 
BRANCH  49  52
ATOM     52  C22 non d ame     -11.365  17.802  65.289  0.00  0.00     0.018 C 
ATOM     53  H33 non d ame     -10.973  17.465  64.329  0.00  0.00     0.048 H 
ATOM     54  H34 non d ame     -11.799  18.798  65.381  0.00  0.00     0.048 H 
BRANCH  52  55
ATOM     55  C23 non d ame     -10.167  17.764  66.278  0.00  0.00     0.259 C 
ATOM     56  O7  non d ame     -10.354  17.731  67.451  0.00  0.00    -0.265 OA
BRANCH  55  57
ATOM     57  O8  non d ame      -8.840  17.782  65.766  0.00  0.00    -0.317 OA
BRANCH  57  58
ATOM     58  C29 non d ame      -7.830  17.582  66.759  0.00  0.00     0.052 C 
ATOM     59  H47 non d ame      -8.364  17.344  67.679  0.00  0.00     0.082 H 
ATOM     60  H48 non d ame      -7.134  16.861  66.331  0.00  0.00     0.082 H 
BRANCH  58  61
ATOM     61  C35 non d ame      -7.082  18.927  66.959  0.00  0.00    -0.034 A 
ATOM     62  C30 non d ame      -5.739  18.930  67.322  0.00  0.00    -0.075 A 
ATOM     63  C31 non d ame      -5.067  20.138  67.502  0.00  0.00    -0.082 A 
ATOM     64  H49 non d ame      -5.213  17.986  67.465  0.00  0.00     0.084 H 
ATOM     65  C32 non d ame      -5.744  21.347  67.320  0.00  0.00    -0.083 A 
ATOM     66  H50 non d ame      -4.014  20.137  67.784  0.00  0.00     0.083 H 
ATOM     67  C33 non d ame      -7.085  21.339  66.961  0.00  0.00    -0.082 A 
ATOM     68  H51 non d ame      -5.226  22.296  67.458  0.00  0.00     0.083 H 
ATOM     69  C34 non d ame      -7.760  20.134  66.778  0.00  0.00    -0.075 A 
ATOM     70  H52 non d ame      -7.611  22.284  66.822  0.00  0.00     0.083 H 
ATOM     71  H53 non d ame      -8.813  20.136  66.495  0.00  0.00     0.084 H 
ENDBRANCH  58  61
ENDBRANCH  57  58
ENDBRANCH  55  57
ENDBRANCH  52  55
ENDBRANCH  49  52
ENDBRANCH  47  49
BRANCH  47  72
ATOM     72  C24 non d ame     -12.456  14.464  64.858  0.00  0.00    -0.039 C 
ATOM     73  H35 non d ame     -13.534  14.370  64.992  0.00  0.00     0.036 H 
ATOM     74  H36 non d ame     -12.056  14.868  63.928  0.00  0.00     0.036 H 
BRANCH  72  75
ATOM     75  C25 non d ame     -11.827  13.003  65.048  0.00  0.00    -0.001 C 
ATOM     76  C26 non d ame     -10.215  13.041  64.725  0.00  0.00    -0.035 C 
ATOM     77  C27 non d ame      -9.925  12.061  63.836  0.00  0.00     0.085 C 
ATOM     78  H38 non d ame      -9.963  13.955  64.188  0.00  0.00     0.036 H 
ATOM     79  H39 non d ame      -9.649  12.756  65.612  0.00  0.00     0.036 H 
ATOM     80  N5  non d ame     -11.238  11.571  63.275  0.00  0.00    -0.049 N 
ATOM     81  H40 non d ame      -9.358  12.547  63.041  0.00  0.00     0.075 H 
ATOM     82  H41 non d ame      -9.469  11.263  64.421  0.00  0.00     0.075 H 
ATOM     83  C28 non d ame     -12.383  12.148  64.256  0.00  0.00     0.193 C 
ATOM     84  H42 non d ame     -11.342  12.005  62.369  0.00  0.00     0.280 HD
ATOM     85  H43 non d ame     -11.225  10.564  63.354  0.00  0.00     0.280 HD
ATOM     86  H44 non d ame     -12.872  11.496  64.980  0.00  0.00     0.129 H 
ATOM     87  H37 non d ame     -12.134  12.540  65.986  0.00  0.00     0.046 H 
BRANCH  83  88
ATOM     88  O6  non d ame     -13.440  12.730  63.491  0.00  0.00    -0.369 OA
ATOM     89  H45 non d ame     -14.101  13.094  64.084  0.00  0.00     0.212 HD
ENDBRANCH  83  88
ENDBRANCH  72  75
ENDBRANCH  47  72
ENDBRANCH  45  47
ENDBRANCH   1  43
BRANCH   1  90
ATOM     90  C16 non d ame     -11.825  15.155  70.765  0.00  0.00    -0.035 C 
ATOM     91  H21 non d ame     -10.999  14.754  71.353  0.00  0.00     0.037 H 
ATOM     92  H22 non d ame     -11.697  16.084  70.209  0.00  0.00     0.037 H 
BRANCH  90  93
ATOM     93  C17 non d ame     -13.001  15.397  71.764  0.00  0.00    -0.059 C 
ATOM     94  H23 non d ame     -13.666  16.137  71.319  0.00  0.00     0.038 H 
BRANCH  93  95
ATOM     95  C18 non d ame     -13.834  14.100  72.019  0.00  0.00    -0.073 C 
ATOM     96  H24 non d ame     -13.937  13.940  73.092  0.00  0.00     0.028 H 
ATOM     97  H25 non d ame     -14.822  14.209  71.571  0.00  0.00     0.028 H 
ATOM     98  H26 non d ame     -13.324  13.247  71.571  0.00  0.00     0.028 H 
ENDBRANCH  93  95
BRANCH  93  99
ATOM     99  C19 non d ame     -12.487  15.982  73.082  0.00  0.00    -0.073 C 
ATOM    100  H27 non d ame     -12.222  15.171  73.761  0.00  0.00     0.028 H 
ATOM    101  H28 non d ame     -11.607  16.596  72.888  0.00  0.00     0.028 H 
ATOM    102  H29 non d ame     -13.265  16.596  73.535  0.00  0.00     0.028 H 
ENDBRANCH  93  99
ENDBRANCH  90  93
ENDBRANCH   1  90
TORSDOF 26
ENDMDL
MODEL 1
REMARK VINA RESULT:      -6.8      0.000      0.000
REMARK  26 active torsions:
REMARK  status: ('A' for Active; 'I' for Inactive)
REMARK    1  A    between atoms: C2_2  and  C3_3 
REMARK    2  A    between atoms: C4_6  and  C5_7 
REMARK       I    between atoms: C5_7  and  N2_9 
REMARK    3  A    between atoms: N2_9  and  C6_10 
REMARK    4  A    between atoms: C6_10  and  C7_11 
REMARK    5  A    between atoms: C6_10  and  C8_13 
REMARK       I    between atoms: C7_11  and  N3_14 
REMARK    6  A    between atoms: N3_14  and  C9_15 
REMARK    7  A    between atoms: C9_15  and  C10_16 
REMARK    8  A    between atoms: C9_15  and  C11_18 
REMARK       I    between atoms: C10_16  and  N4_21 
REMARK    9  A    between atoms: C11_18  and  C12_19 
REMARK   10  A    between atoms: C11_18  and  C13_20 
REMARK   11  A    between atoms: N4_21  and  C14_22 
REMARK   12  A    between atoms: C14_22  and  C15_23 
REMARK   13  A    between atoms: C14_22  and  C16_25 
REMARK       I    between atoms: C15_23  and  N6_40 
REMARK   14  A    between atoms: C16_25  and  C17_26 
REMARK   15  A    between atoms: C17_26  and  C18_27 
REMARK   16  A    between atoms: C17_26  and  C19_28 
REMARK   17  A    between atoms: C20_29  and  C21_30 
REMARK   18  A    between atoms: C20_29  and  C24_33 
REMARK   19  A    between atoms: C20_29  and  N6_40 
REMARK   20  A    between atoms: C21_30  and  C22_31 
REMARK   21  A    between atoms: C22_31  and  C23_32 
REMARK   22  A    between atoms: C23_32  and  O8_43 
REMARK   23  A    between atoms: C24_33  and  C25_34 
REMARK   24  A    between atoms: C28_38  and  O6_39 
REMARK   25  A    between atoms: C29_42  and  O8_43 
REMARK   26  A    between atoms: C29_42  and  C35_49 
ROOT
ATOM      1  C14 non d ame      -6.061  15.556  67.708  0.00  0.00     0.089 C 
ATOM      2  H20 non d ame      -5.460  16.013  66.920  0.00  0.00     0.087 H 
ENDROOT
BRANCH   1   3
ATOM      3  N4  non d ame      -7.456  15.863  67.429  0.00  0.00    -0.346 N 
ATOM      4  C10 non d ame      -7.815  16.936  66.431  0.00  0.00     0.241 C 
ATOM      5  O4  non d ame      -6.962  17.540  65.866  0.00  0.00    -0.271 OA
ATOM      6  H19 non d ame      -8.166  15.340  67.921  0.00  0.00     0.163 HD
BRANCH   4   7
ATOM      7  C9  non d ame      -9.263  17.238  66.150  0.00  0.00     0.092 C 
ATOM      8  H11 non d ame      -9.336  17.840  65.244  0.00  0.00     0.088 H 
BRANCH   7   9
ATOM      9  N3  non d ame      -9.984  15.986  65.896  0.00  0.00    -0.346 N 
ATOM     10  C7  non d ame     -10.985  15.929  64.861  0.00  0.00     0.240 C 
ATOM     11  O3  non d ame     -11.227  16.880  64.223  0.00  0.00    -0.271 OA
ATOM     12  H10 non d ame      -9.787  15.157  66.439  0.00  0.00     0.163 HD
BRANCH  10  13
ATOM     13  C6  non d ame     -11.751  14.594  64.598  0.00  0.00     0.086 C 
ATOM     14  H6  non d ame     -12.340  14.619  63.682  0.00  0.00     0.086 H 
BRANCH  13  15
ATOM     15  N2  non d ame     -10.784  13.520  64.441  0.00  0.00    -0.343 N 
ATOM     16  C5  non d ame     -11.150  12.324  63.678  0.00  0.00     0.273 C 
ATOM     17  O2  non d ame     -12.226  12.236  63.198  0.00  0.00    -0.266 OA
ATOM     18  H5  non d ame      -9.868  13.603  64.858  0.00  0.00     0.163 HD
BRANCH  16  19
ATOM     19  C4  non d ame     -10.138  11.182  63.504  0.00  0.00     0.154 A 
ATOM     20  C1  non d ame      -9.783  10.186  64.468  0.00  0.00    -0.017 A 
ATOM     21  C2  non d ame      -8.821   9.380  63.820  0.00  0.00     0.077 A 
ATOM     22  H1  non d ame     -10.165  10.067  65.482  0.00  0.00     0.091 H 
ATOM     23  O1  non d ame      -8.653   9.862  62.624  0.00  0.00    -0.218 OA
ATOM     24  N1  non d ame      -9.410  10.915  62.416  0.00  0.00    -0.123 NA
BRANCH  21  25
ATOM     25  C3  non d ame      -8.115   8.168  64.413  0.00  0.00    -0.029 C 
ATOM     26  H2  non d ame      -8.854   7.478  64.820  0.00  0.00     0.036 H 
ATOM     27  H3  non d ame      -7.539   7.666  63.636  0.00  0.00     0.036 H 
ATOM     28  H4  non d ame      -7.444   8.492  65.210  0.00  0.00     0.036 H 
ENDBRANCH  21  25
ENDBRANCH  16  19
ENDBRANCH  13  15
BRANCH  13  29
ATOM     29  C8  non d ame     -12.666  14.299  65.759  0.00  0.00    -0.049 C 
ATOM     30  H7  non d ame     -13.463  15.042  65.790  0.00  0.00     0.030 H 
ATOM     31  H8  non d ame     -13.100  13.307  65.638  0.00  0.00     0.030 H 
ATOM     32  H9  non d ame     -12.098  14.337  66.688  0.00  0.00     0.030 H 
ENDBRANCH  13  29
ENDBRANCH  10  13
ENDBRANCH   7   9
BRANCH   7  33
ATOM     33  C11 non d ame      -9.891  17.955  67.381  0.00  0.00    -0.033 C 
ATOM     34  H12 non d ame      -9.076  18.254  68.039  0.00  0.00     0.042 H 
BRANCH  33  35
ATOM     35  C12 non d ame     -10.652  19.250  66.958  0.00  0.00    -0.071 C 
ATOM     36  H13 non d ame      -9.948  20.078  66.885  0.00  0.00     0.028 H 
ATOM     37  H14 non d ame     -11.129  19.091  65.991  0.00  0.00     0.028 H 
ATOM     38  H15 non d ame     -11.411  19.483  67.704  0.00  0.00     0.028 H 
ENDBRANCH  33  35
BRANCH  33  39
ATOM     39  C13 non d ame     -10.823  16.985  68.177  0.00  0.00    -0.071 C 
ATOM     40  H16 non d ame     -10.508  16.952  69.219  0.00  0.00     0.028 H 
ATOM     41  H17 non d ame     -11.853  17.342  68.120  0.00  0.00     0.028 H 
ATOM     42  H18 non d ame     -10.762  15.986  67.746  0.00  0.00     0.028 H 
ENDBRANCH  33  39
ENDBRANCH   7  33
ENDBRANCH   4   7
ENDBRANCH   1   3
BRANCH   1  43
ATOM     43  C15 non d ame      -5.895  14.010  67.751  0.00  0.00     0.240 C 
ATOM     44  O5  non d ame      -4.871  13.515  67.407  0.00  0.00    -0.271 OA
ATOM     45  N6  non d ame      -7.012  13.146  68.231  0.00  0.00    -0.355 N 
ATOM     46  H46 non d ame      -7.884  13.555  68.530  0.00  0.00     0.162 HD
BRANCH  45  47
ATOM     47  C20 non d ame      -6.838  11.678  68.267  0.00  0.00     0.013 C 
ATOM     48  H30 non d ame      -5.942  11.431  67.697  0.00  0.00     0.072 H 
BRANCH  47  49
ATOM     49  C21 non d ame      -8.045  11.016  67.641  0.00  0.00    -0.038 C 
ATOM     50  H31 non d ame      -8.290  11.617  66.767  0.00  0.00     0.036 H 
ATOM     51  H32 non d ame      -7.776   9.965  67.523  0.00  0.00     0.036 H 
BRANCH  49  52
ATOM     52  C22 non d ame      -9.288  11.049  68.557  0.00  0.00     0.018 C 
ATOM     53  H33 non d ame      -9.867  10.161  68.302  0.00  0.00     0.048 H 
ATOM     54  H34 non d ame      -8.906  11.178  69.569  0.00  0.00     0.048 H 
BRANCH  52  55
ATOM     55  C23 non d ame     -10.226  12.260  68.296  0.00  0.00     0.259 C 
ATOM     56  O7  non d ame     -10.009  13.009  67.400  0.00  0.00    -0.265 OA
BRANCH  55  57
ATOM     57  O8  non d ame     -11.344  12.472  69.150  0.00  0.00    -0.317 OA
BRANCH  57  58
ATOM     58  C29 non d ame     -11.817  13.823  69.164  0.00  0.00     0.052 C 
ATOM     59  H47 non d ame     -10.970  14.435  68.858  0.00  0.00     0.082 H 
ATOM     60  H48 non d ame     -12.730  13.820  68.570  0.00  0.00     0.082 H 
BRANCH  58  61
ATOM     61  C35 non d ame     -12.184  14.186  70.627  0.00  0.00    -0.034 A 
ATOM     62  C30 non d ame     -11.563  15.260  71.256  0.00  0.00    -0.075 A 
ATOM     63  C31 non d ame     -11.893  15.586  72.571  0.00  0.00    -0.082 A 
ATOM     64  H49 non d ame     -10.818  15.848  70.718  0.00  0.00     0.084 H 
ATOM     65  C32 non d ame     -12.846  14.831  73.259  0.00  0.00    -0.083 A 
ATOM     66  H50 non d ame     -11.407  16.431  73.059  0.00  0.00     0.083 H 
ATOM     67  C33 non d ame     -13.461  13.757  72.629  0.00  0.00    -0.082 A 
ATOM     68  H51 non d ame     -13.110  15.080  74.286  0.00  0.00     0.083 H 
ATOM     69  C34 non d ame     -13.135  13.429  71.314  0.00  0.00    -0.075 A 
ATOM     70  H52 non d ame     -14.203  13.168  73.170  0.00  0.00     0.083 H 
ATOM     71  H53 non d ame     -13.624  12.585  70.826  0.00  0.00     0.084 H 
ENDBRANCH  58  61
ENDBRANCH  57  58
ENDBRANCH  55  57
ENDBRANCH  52  55
ENDBRANCH  49  52
ENDBRANCH  47  49
BRANCH  47  72
ATOM     72  C24 non d ame      -6.692  11.211  69.714  0.00  0.00    -0.039 C 
ATOM     73  H35 non d ame      -7.220  11.954  70.312  0.00  0.00     0.036 H 
ATOM     74  H36 non d ame      -7.024  10.172  69.718  0.00  0.00     0.036 H 
BRANCH  72  75
ATOM     75  C25 non d ame      -5.163  11.220  70.189  0.00  0.00    -0.001 C 
ATOM     76  C26 non d ame      -4.809   9.814  70.964  0.00  0.00    -0.035 C 
ATOM     77  C27 non d ame      -4.236  10.105  72.156  0.00  0.00     0.085 C 
ATOM     78  H38 non d ame      -5.728   9.299  71.242  0.00  0.00     0.036 H 
ATOM     79  H39 non d ame      -4.025   9.279  70.429  0.00  0.00     0.036 H 
ATOM     80  N5  non d ame      -4.464  11.577  72.408  0.00  0.00    -0.049 N 
ATOM     81  H40 non d ame      -4.792   9.528  72.896  0.00  0.00     0.075 H 
ATOM     82  H41 non d ame      -3.170   9.930  72.017  0.00  0.00     0.075 H 
ATOM     83  C28 non d ame      -4.928  12.202  70.994  0.00  0.00     0.193 C 
ATOM     84  H42 non d ame      -5.235  11.639  73.056  0.00  0.00     0.280 HD
ATOM     85  H43 non d ame      -3.566  11.968  72.653  0.00  0.00     0.280 HD
ATOM     86  H44 non d ame      -4.235  12.790  70.394  0.00  0.00     0.129 H 
ATOM     87  H37 non d ame      -4.485  11.532  69.394  0.00  0.00     0.046 H 
BRANCH  83  88
ATOM     88  O6  non d ame      -6.076  13.035  71.176  0.00  0.00    -0.369 OA
ATOM     89  H45 non d ame      -6.023  13.469  72.031  0.00  0.00     0.212 HD
ENDBRANCH  83  88
ENDBRANCH  72  75
ENDBRANCH  47  72
ENDBRANCH  45  47
ENDBRANCH   1  43
BRANCH   1  90
ATOM     90  C16 non d ame      -5.682  16.149  69.055  0.00  0.00    -0.035 C 
ATOM     91  H21 non d ame      -6.611  16.184  69.626  0.00  0.00     0.037 H 
ATOM     92  H22 non d ame      -4.846  15.547  69.410  0.00  0.00     0.037 H 
BRANCH  90  93
ATOM     93  C17 non d ame      -5.162  17.619  68.969  0.00  0.00    -0.059 C 
ATOM     94  H23 non d ame      -4.889  17.813  67.932  0.00  0.00     0.038 H 
BRANCH  93  95
ATOM     95  C18 non d ame      -6.257  18.656  69.375  0.00  0.00    -0.073 C 
ATOM     96  H24 non d ame      -6.076  19.597  68.855  0.00  0.00     0.028 H 
ATOM     97  H25 non d ame      -7.240  18.273  69.101  0.00  0.00     0.028 H 
ATOM     98  H26 non d ame      -6.219  18.822  70.452  0.00  0.00     0.028 H 
ENDBRANCH  93  95
BRANCH  93  99
ATOM     99  C19 non d ame      -3.898  17.803  69.813  0.00  0.00    -0.073 C 
ATOM    100  H27 non d ame      -3.653  18.864  69.874  0.00  0.00     0.028 H 
ATOM    101  H28 non d ame      -4.071  17.410  70.815  0.00  0.00     0.028 H 
ATOM    102  H29 non d ame      -3.071  17.264  69.351  0.00  0.00     0.028 H 
ENDBRANCH  93  99
ENDBRANCH  90  93
ENDBRANCH   1  90
TORSDOF 26
ENDMDL
MODEL 2
REMARK VINA RESULT:      -6.7      3.949      7.794
REMARK  26 active torsions:
REMARK  status: ('A' for Active; 'I' for Inactive)
REMARK    1  A    between atoms: C2_2  and  C3_3 
REMARK    2  A    between atoms: C4_6  and  C5_7 
REMARK       I    between atoms: C5_7  and  N2_9 
REMARK    3  A    between atoms: N2_9  and  C6_10 
REMARK    4  A    between atoms: C6_10  and  C7_11 
REMARK    5  A    between atoms: C6_10  and  C8_13 
REMARK       I    between atoms: C7_11  and  N3_14 
REMARK    6  A    between atoms: N3_14  and  C9_15 
REMARK    7  A    between atoms: C9_15  and  C10_16 
REMARK    8  A    between atoms: C9_15  and  C11_18 
REMARK       I    between atoms: C10_16  and  N4_21 
REMARK    9  A    between atoms: C11_18  and  C12_19 
REMARK   10  A    between atoms: C11_18  and  C13_20 
REMARK   11  A    between atoms: N4_21  and  C14_22 
REMARK   12  A    between atoms: C14_22  and  C15_23 
REMARK   13  A    between atoms: C14_22  and  C16_25 
REMARK       I    between atoms: C15_23  and  N6_40 
REMARK   14  A    between atoms: C16_25  and  C17_26 
REMARK   15  A    between atoms: C17_26  and  C18_27 
REMARK   16  A    between atoms: C17_26  and  C19_28 
REMARK   17  A    between atoms: C20_29  and  C21_30 
REMARK   18  A    between atoms: C20_29  and  C24_33 
REMARK   19  A    between atoms: C20_29  and  N6_40 
REMARK   20  A    between atoms: C21_30  and  C22_31 
REMARK   21  A    between atoms: C22_31  and  C23_32 
REMARK   22  A    between atoms: C23_32  and  O8_43 
REMARK   23  A    between atoms: C24_33  and  C25_34 
REMARK   24  A    between atoms: C28_38  and  O6_39 
REMARK   25  A    between atoms: C29_42  and  O8_43 
REMARK   26  A    between atoms: C29_42  and  C35_49 
ROOT
ATOM      1  C14 non d ame      -8.080   8.315  63.747  0.00  0.00     0.089 C 
ATOM      2  H20 non d ame      -8.203   8.591  62.699  0.00  0.00     0.087 H 
ENDROOT
BRANCH   1   3
ATOM      3  N4  non d ame      -9.050   9.079  64.517  0.00  0.00    -0.346 N 
ATOM      4  C10 non d ame      -9.745  10.269  63.902  0.00  0.00     0.241 C 
ATOM      5  O4  non d ame      -9.504  10.593  62.786  0.00  0.00    -0.271 OA
ATOM      6  H19 non d ame      -9.240   8.789  65.466  0.00  0.00     0.163 HD
BRANCH   4   7
ATOM      7  C9  non d ame     -10.750  11.045  64.711  0.00  0.00     0.092 C 
ATOM      8  H11 non d ame     -11.582  10.392  64.973  0.00  0.00     0.088 H 
BRANCH   7   9
ATOM      9  N3  non d ame     -10.133  11.483  65.968  0.00  0.00    -0.346 N 
ATOM     10  C7  non d ame     -10.238  10.662  67.147  0.00  0.00     0.240 C 
ATOM     11  O3  non d ame     -10.816   9.645  67.106  0.00  0.00    -0.271 OA
ATOM     12  H10 non d ame      -9.631  12.359  66.019  0.00  0.00     0.163 HD
BRANCH  10  13
ATOM     13  C6  non d ame      -9.582  11.135  68.482  0.00  0.00     0.086 C 
ATOM     14  H6  non d ame      -8.689  11.740  68.322  0.00  0.00     0.086 H 
BRANCH  13  15
ATOM     15  N2  non d ame     -10.527  11.973  69.201  0.00  0.00    -0.343 N 
ATOM     16  C5  non d ame     -10.600  13.404  68.897  0.00  0.00     0.273 C 
ATOM     17  O2  non d ame      -9.892  13.872  68.075  0.00  0.00    -0.266 OA
ATOM     18  H5  non d ame     -11.127  11.565  69.904  0.00  0.00     0.163 HD
BRANCH  16  19
ATOM     19  C4  non d ame     -11.596  14.301  69.649  0.00  0.00     0.154 A 
ATOM     20  C1  non d ame     -12.474  13.917  70.711  0.00  0.00    -0.017 A 
ATOM     21  C2  non d ame     -13.172  15.097  71.051  0.00  0.00     0.077 A 
ATOM     22  H1  non d ame     -12.588  12.933  71.167  0.00  0.00     0.091 H 
ATOM     23  O1  non d ame     -12.736  16.043  70.271  0.00  0.00    -0.218 OA
ATOM     24  N1  non d ame     -11.816  15.602  69.444  0.00  0.00    -0.123 NA
BRANCH  21  25
ATOM     25  C3  non d ame     -14.235  15.236  72.133  0.00  0.00    -0.029 C 
ATOM     26  H2  non d ame     -14.824  16.135  71.950  0.00  0.00     0.036 H 
ATOM     27  H3  non d ame     -14.887  14.364  72.115  0.00  0.00     0.036 H 
ATOM     28  H4  non d ame     -13.753  15.310  73.109  0.00  0.00     0.036 H 
ENDBRANCH  21  25
ENDBRANCH  16  19
ENDBRANCH  13  15
BRANCH  13  29
ATOM     29  C8  non d ame      -9.215   9.936  69.318  0.00  0.00    -0.049 C 
ATOM     30  H7  non d ame     -10.071   9.642  69.926  0.00  0.00     0.030 H 
ATOM     31  H8  non d ame      -8.931   9.111  68.667  0.00  0.00     0.030 H 
ATOM     32  H9  non d ame      -8.379  10.190  69.970  0.00  0.00     0.030 H 
ENDBRANCH  13  29
ENDBRANCH  10  13
ENDBRANCH   7   9
BRANCH   7  33
ATOM     33  C11 non d ame     -11.215  12.291  63.903  0.00  0.00    -0.033 C 
ATOM     34  H12 non d ame     -10.592  12.357  63.012  0.00  0.00     0.042 H 
BRANCH  33  35
ATOM     35  C12 non d ame     -12.696  12.142  63.431  0.00  0.00    -0.071 C 
ATOM     36  H13 non d ame     -12.891  11.102  63.170  0.00  0.00     0.028 H 
ATOM     37  H14 non d ame     -13.365  12.447  64.234  0.00  0.00     0.028 H 
ATOM     38  H15 non d ame     -12.862  12.772  62.558  0.00  0.00     0.028 H 
ENDBRANCH  33  35
BRANCH  33  39
ATOM     39  C13 non d ame     -11.015  13.602  64.730  0.00  0.00    -0.071 C 
ATOM     40  H16 non d ame     -10.215  13.455  65.455  0.00  0.00     0.028 H 
ATOM     41  H17 non d ame     -10.752  14.419  64.058  0.00  0.00     0.028 H 
ATOM     42  H18 non d ame     -11.940  13.846  65.253  0.00  0.00     0.028 H 
ENDBRANCH  33  39
ENDBRANCH   7  33
ENDBRANCH   4   7
ENDBRANCH   1   3
BRANCH   1  43
ATOM     43  C15 non d ame      -8.338   6.801  63.991  0.00  0.00     0.240 C 
ATOM     44  O5  non d ame      -8.156   6.021  63.113  0.00  0.00    -0.271 OA
ATOM     45  N6  non d ame      -8.806   6.321  65.323  0.00  0.00    -0.355 N 
ATOM     46  H46 non d ame      -8.960   6.974  66.077  0.00  0.00     0.162 HD
BRANCH  45  47
ATOM     47  C20 non d ame      -9.046   4.878  65.539  0.00  0.00     0.013 C 
ATOM     48  H30 non d ame      -9.131   4.402  64.562  0.00  0.00     0.072 H 
BRANCH  47  49
ATOM     49  C21 non d ame     -10.330   4.695  66.315  0.00  0.00    -0.038 C 
ATOM     50  H31 non d ame     -11.078   4.397  65.581  0.00  0.00     0.036 H 
ATOM     51  H32 non d ame     -10.082   4.030  67.143  0.00  0.00     0.036 H 
BRANCH  49  52
ATOM     52  C22 non d ame     -10.839   6.009  66.949  0.00  0.00     0.018 C 
ATOM     53  H33 non d ame     -10.394   6.812  66.362  0.00  0.00     0.048 H 
ATOM     54  H34 non d ame     -11.923   5.910  67.002  0.00  0.00     0.048 H 
BRANCH  52  55
ATOM     55  C23 non d ame     -10.356   6.228  68.410  0.00  0.00     0.259 C 
ATOM     56  O7  non d ame      -9.218   6.480  68.637  0.00  0.00    -0.265 OA
BRANCH  55  57
ATOM     57  O8  non d ame     -11.289   6.109  69.477  0.00  0.00    -0.317 OA
BRANCH  57  58
ATOM     58  C29 non d ame     -10.905   6.808  70.665  0.00  0.00     0.052 C 
ATOM     59  H47 non d ame     -10.635   6.038  71.386  0.00  0.00     0.082 H 
ATOM     60  H48 non d ame     -10.165   7.542  70.349  0.00  0.00     0.082 H 
BRANCH  58  61
ATOM     61  C35 non d ame     -12.151   7.565  71.198  0.00  0.00    -0.034 A 
ATOM     62  C30 non d ame     -13.373   6.910  71.305  0.00  0.00    -0.075 A 
ATOM     63  C31 non d ame     -14.491   7.591  71.784  0.00  0.00    -0.082 A 
ATOM     64  H49 non d ame     -13.454   5.862  71.014  0.00  0.00     0.084 H 
ATOM     65  C32 non d ame     -14.385   8.934  72.153  0.00  0.00    -0.083 A 
ATOM     66  H50 non d ame     -15.447   7.072  71.869  0.00  0.00     0.083 H 
ATOM     67  C33 non d ame     -13.164   9.586  72.042  0.00  0.00    -0.082 A 
ATOM     68  H51 non d ame     -15.254   9.473  72.529  0.00  0.00     0.083 H 
ATOM     69  C34 non d ame     -12.043   8.908  71.566  0.00  0.00    -0.075 A 
ATOM     70  H52 non d ame     -13.085  10.635  72.329  0.00  0.00     0.083 H 
ATOM     71  H53 non d ame     -11.087   9.427  71.482  0.00  0.00     0.084 H 
ENDBRANCH  58  61
ENDBRANCH  57  58
ENDBRANCH  55  57
ENDBRANCH  52  55
ENDBRANCH  49  52
ENDBRANCH  47  49
BRANCH  47  72
ATOM     72  C24 non d ame      -7.884   4.274  66.325  0.00  0.00    -0.039 C 
ATOM     73  H35 non d ame      -8.274   4.096  67.327  0.00  0.00     0.036 H 
ATOM     74  H36 non d ame      -7.530   3.437  65.722  0.00  0.00     0.036 H 
BRANCH  72  75
ATOM     75  C25 non d ame      -6.665   5.303  66.467  0.00  0.00    -0.001 C 
ATOM     76  C26 non d ame      -5.462   4.893  65.424  0.00  0.00    -0.035 C 
ATOM     77  C27 non d ame      -4.295   4.822  66.110  0.00  0.00     0.085 C 
ATOM     78  H38 non d ame      -5.608   3.875  65.066  0.00  0.00     0.036 H 
ATOM     79  H39 non d ame      -5.290   5.701  64.714  0.00  0.00     0.036 H 
ATOM     80  N5  non d ame      -4.647   4.824  67.579  0.00  0.00    -0.049 N 
ATOM     81  H40 non d ame      -3.863   3.855  65.850  0.00  0.00     0.075 H 
ATOM     82  H41 non d ame      -3.761   5.740  65.872  0.00  0.00     0.075 H 
ATOM     83  C28 non d ame      -6.187   5.300  67.667  0.00  0.00     0.193 C 
ATOM     84  H42 non d ame      -4.587   3.865  67.889  0.00  0.00     0.280 HD
ATOM     85  H43 non d ame      -4.068   5.531  68.010  0.00  0.00     0.280 HD
ATOM     86  H44 non d ame      -6.438   6.312  67.983  0.00  0.00     0.129 H 
ATOM     87  H37 non d ame      -6.998   6.341  66.457  0.00  0.00     0.046 H 
BRANCH  83  88
ATOM     88  O6  non d ame      -6.921   4.435  68.536  0.00  0.00    -0.369 OA
ATOM     89  H45 non d ame      -7.804   4.788  68.666  0.00  0.00     0.212 HD
ENDBRANCH  83  88
ENDBRANCH  72  75
ENDBRANCH  47  72
ENDBRANCH  45  47
ENDBRANCH   1  43
BRANCH   1  90
ATOM     90  C16 non d ame      -6.680   8.677  64.215  0.00  0.00    -0.035 C 
ATOM     91  H21 non d ame      -6.807   9.548  64.860  0.00  0.00     0.037 H 
ATOM     92  H22 non d ame      -6.264   7.755  64.621  0.00  0.00     0.037 H 
BRANCH  90  93
ATOM     93  C17 non d ame      -5.728   9.119  63.059  0.00  0.00    -0.059 C 
ATOM     94  H23 non d ame      -5.281  10.071  63.345  0.00  0.00     0.038 H 
BRANCH  93  95
ATOM     95  C18 non d ame      -4.567   8.099  62.829  0.00  0.00    -0.073 C 
ATOM     96  H24 non d ame      -4.891   7.105  63.137  0.00  0.00     0.028 H 
ATOM     97  H25 non d ame      -4.302   8.084  61.771  0.00  0.00     0.028 H 
ATOM     98  H26 non d ame      -3.699   8.398  63.417  0.00  0.00     0.028 H 
ENDBRANCH  93  95
BRANCH  93  99
ATOM     99  C19 non d ame      -6.510   9.355  61.765  0.00  0.00    -0.073 C 
ATOM    100  H27 non d ame      -7.519   8.954  61.872  0.00  0.00     0.028 H 
ATOM    101  H28 non d ame      -6.564  10.426  61.564  0.00  0.00     0.028 H 
ATOM    102  H29 non d ame      -6.005   8.856  60.938  0.00  0.00     0.028 H 
ENDBRANCH  93  99
ENDBRANCH  90  93
ENDBRANCH   1  90
TORSDOF 26
ENDMDL
MODEL 3
REMARK VINA RESULT:      -6.5      3.024      7.776
REMARK  26 active torsions:
REMARK  status: ('A' for Active; 'I' for Inactive)
REMARK    1  A    between atoms: C2_2  and  C3_3 
REMARK    2  A    between atoms: C4_6  and  C5_7 
REMARK       I    between atoms: C5_7  and  N2_9 
REMARK    3  A    between atoms: N2_9  and  C6_10 
REMARK    4  A    between atoms: C6_10  and  C7_11 
REMARK    5  A    between atoms: C6_10  and  C8_13 
REMARK       I    between atoms: C7_11  and  N3_14 
REMARK    6  A    between atoms: N3_14  and  C9_15 
REMARK    7  A    between atoms: C9_15  and  C10_16 
REMARK    8  A    between atoms: C9_15  and  C11_18 
REMARK       I    between atoms: C10_16  and  N4_21 
REMARK    9  A    between atoms: C11_18  and  C12_19 
REMARK   10  A    between atoms: C11_18  and  C13_20 
REMARK   11  A    between atoms: N4_21  and  C14_22 
REMARK   12  A    between atoms: C14_22  and  C15_23 
REMARK   13  A    between atoms: C14_22  and  C16_25 
REMARK       I    between atoms: C15_23  and  N6_40 
REMARK   14  A    between atoms: C16_25  and  C17_26 
REMARK   15  A    between atoms: C17_26  and  C18_27 
REMARK   16  A    between atoms: C17_26  and  C19_28 
REMARK   17  A    between atoms: C20_29  and  C21_30 
REMARK   18  A    between atoms: C20_29  and  C24_33 
REMARK   19  A    between atoms: C20_29  and  N6_40 
REMARK   20  A    between atoms: C21_30  and  C22_31 
REMARK   21  A    between atoms: C22_31  and  C23_32 
REMARK   22  A    between atoms: C23_32  and  O8_43 
REMARK   23  A    between atoms: C24_33  and  C25_34 
REMARK   24  A    between atoms: C28_38  and  O6_39 
REMARK   25  A    between atoms: C29_42  and  O8_43 
REMARK   26  A    between atoms: C29_42  and  C35_49 
ROOT
ATOM      1  C14 non d ame     -10.925   9.382  69.732  0.00  0.00     0.089 C 
ATOM      2  H20 non d ame     -11.466   8.536  69.307  0.00  0.00     0.087 H 
ENDROOT
BRANCH   1   3
ATOM      3  N4  non d ame      -9.578   9.360  69.183  0.00  0.00    -0.346 N 
ATOM      4  C10 non d ame      -9.041   8.110  68.530  0.00  0.00     0.241 C 
ATOM      5  O4  non d ame      -9.712   7.133  68.462  0.00  0.00    -0.271 OA
ATOM      6  H19 non d ame      -9.021  10.201  69.253  0.00  0.00     0.163 HD
BRANCH   4   7
ATOM      7  C9  non d ame      -7.646   8.107  67.962  0.00  0.00     0.092 C 
ATOM      8  H11 non d ame      -7.436   7.127  67.532  0.00  0.00     0.088 H 
BRANCH   7   9
ATOM      9  N3  non d ame      -7.559   9.085  66.873  0.00  0.00    -0.346 N 
ATOM     10  C7  non d ame      -7.017   8.694  65.595  0.00  0.00     0.240 C 
ATOM     11  O3  non d ame      -6.645   7.598  65.425  0.00  0.00    -0.271 OA
ATOM     12  H10 non d ame      -7.876  10.035  67.005  0.00  0.00     0.163 HD
BRANCH  10  13
ATOM     13  C6  non d ame      -6.925   9.741  64.441  0.00  0.00     0.086 C 
ATOM     14  H6  non d ame      -7.010   9.288  63.453  0.00  0.00     0.086 H 
BRANCH  13  15
ATOM     15  N2  non d ame      -8.030  10.678  64.565  0.00  0.00    -0.343 N 
ATOM     16  C5  non d ame      -9.201  10.532  63.699  0.00  0.00     0.273 C 
ATOM     17  O2  non d ame      -9.244   9.660  62.903  0.00  0.00    -0.266 OA
ATOM     18  H5  non d ame      -7.983  11.423  65.247  0.00  0.00     0.163 HD
BRANCH  16  19
ATOM     19  C4  non d ame     -10.376  11.515  63.820  0.00  0.00     0.154 A 
ATOM     20  C1  non d ame     -10.363  12.806  64.439  0.00  0.00    -0.017 A 
ATOM     21  C2  non d ame     -11.679  13.296  64.283  0.00  0.00     0.077 A 
ATOM     22  H1  non d ame      -9.528  13.309  64.926  0.00  0.00     0.091 H 
ATOM     23  O1  non d ame     -12.358  12.388  63.647  0.00  0.00    -0.218 OA
ATOM     24  N1  non d ame     -11.619  11.339  63.365  0.00  0.00    -0.123 NA
BRANCH  21  25
ATOM     25  C3  non d ame     -12.203  14.641  64.769  0.00  0.00    -0.029 C 
ATOM     26  H2  non d ame     -12.826  14.491  65.651  0.00  0.00     0.036 H 
ATOM     27  H3  non d ame     -11.364  15.288  65.024  0.00  0.00     0.036 H 
ATOM     28  H4  non d ame     -12.794  15.107  63.980  0.00  0.00     0.036 H 
ENDBRANCH  21  25
ENDBRANCH  16  19
ENDBRANCH  13  15
BRANCH  13  29
ATOM     29  C8  non d ame      -5.612  10.476  64.529  0.00  0.00    -0.049 C 
ATOM     30  H7  non d ame      -5.700  11.291  65.248  0.00  0.00     0.030 H 
ATOM     31  H8  non d ame      -4.831   9.789  64.852  0.00  0.00     0.030 H 
ATOM     32  H9  non d ame      -5.358  10.883  63.550  0.00  0.00     0.030 H 
ENDBRANCH  13  29
ENDBRANCH  10  13
ENDBRANCH   7   9
BRANCH   7  33
ATOM     33  C11 non d ame      -6.630   8.486  69.079  0.00  0.00    -0.033 C 
ATOM     34  H12 non d ame      -7.144   8.398  70.035  0.00  0.00     0.042 H 
BRANCH  33  35
ATOM     35  C12 non d ame      -5.419   7.502  69.104  0.00  0.00    -0.071 C 
ATOM     36  H13 non d ame      -5.297   7.102  70.110  0.00  0.00     0.028 H 
ATOM     37  H14 non d ame      -5.601   6.684  68.408  0.00  0.00     0.028 H 
ATOM     38  H15 non d ame      -4.515   8.034  68.813  0.00  0.00     0.028 H 
ENDBRANCH  33  35
BRANCH  33  39
ATOM     39  C13 non d ame      -6.153   9.966  68.921  0.00  0.00    -0.071 C 
ATOM     40  H16 non d ame      -6.622  10.407  68.043  0.00  0.00     0.028 H 
ATOM     41  H17 non d ame      -6.434  10.535  69.808  0.00  0.00     0.028 H 
ATOM     42  H18 non d ame      -5.070   9.988  68.805  0.00  0.00     0.028 H 
ENDBRANCH  33  39
ENDBRANCH   7  33
ENDBRANCH   4   7
ENDBRANCH   1   3
BRANCH   1  43
ATOM     43  C15 non d ame     -11.584  10.743  69.371  0.00  0.00     0.240 C 
ATOM     44  O5  non d ame     -12.078  10.895  68.301  0.00  0.00    -0.271 OA
ATOM     45  N6  non d ame     -11.609  11.856  70.363  0.00  0.00    -0.355 N 
ATOM     46  H46 non d ame     -11.196  11.736  71.277  0.00  0.00     0.162 HD
BRANCH  45  47
ATOM     47  C20 non d ame     -12.240  13.143  70.004  0.00  0.00     0.013 C 
ATOM     48  H30 non d ame     -12.837  12.986  69.106  0.00  0.00     0.072 H 
BRANCH  47  49
ATOM     49  C21 non d ame     -11.164  14.171  69.735  0.00  0.00    -0.038 C 
ATOM     50  H31 non d ame     -11.441  15.047  70.320  0.00  0.00     0.036 H 
ATOM     51  H32 non d ame     -10.218  13.664  69.927  0.00  0.00     0.036 H 
BRANCH  49  52
ATOM     52  C22 non d ame     -11.125  14.625  68.260  0.00  0.00     0.018 C 
ATOM     53  H33 non d ame     -10.280  14.101  67.812  0.00  0.00     0.048 H 
ATOM     54  H34 non d ame     -12.131  14.464  67.875  0.00  0.00     0.048 H 
BRANCH  52  55
ATOM     55  C23 non d ame     -10.834  16.141  68.078  0.00  0.00     0.259 C 
ATOM     56  O7  non d ame     -11.416  16.948  68.727  0.00  0.00    -0.265 OA
BRANCH  55  57
ATOM     57  O8  non d ame      -9.872  16.555  67.116  0.00  0.00    -0.317 OA
BRANCH  57  58
ATOM     58  C29 non d ame      -8.661  17.062  67.685  0.00  0.00     0.052 C 
ATOM     59  H47 non d ame      -8.149  17.580  66.875  0.00  0.00     0.082 H 
ATOM     60  H48 non d ame      -8.962  17.610  68.578  0.00  0.00     0.082 H 
BRANCH  58  61
ATOM     61  C35 non d ame      -7.794  15.852  68.122  0.00  0.00    -0.034 A 
ATOM     62  C30 non d ame      -7.563  14.803  67.238  0.00  0.00    -0.075 A 
ATOM     63  C31 non d ame      -6.784  13.716  67.631  0.00  0.00    -0.082 A 
ATOM     64  H49 non d ame      -7.992  14.834  66.236  0.00  0.00     0.084 H 
ATOM     65  C32 non d ame      -6.238  13.678  68.917  0.00  0.00    -0.083 A 
ATOM     66  H50 non d ame      -6.603  12.897  66.934  0.00  0.00     0.083 H 
ATOM     67  C33 non d ame      -6.473  14.725  69.798  0.00  0.00    -0.082 A 
ATOM     68  H51 non d ame      -5.627  12.832  69.232  0.00  0.00     0.083 H 
ATOM     69  C34 non d ame      -7.249  15.815  69.407  0.00  0.00    -0.075 A 
ATOM     70  H52 non d ame      -6.046  14.691  70.801  0.00  0.00     0.083 H 
ATOM     71  H53 non d ame      -7.429  16.634  70.105  0.00  0.00     0.084 H 
ENDBRANCH  58  61
ENDBRANCH  57  58
ENDBRANCH  55  57
ENDBRANCH  52  55
ENDBRANCH  49  52
ENDBRANCH  47  49
BRANCH  47  72
ATOM     72  C24 non d ame     -13.126  13.621  71.153  0.00  0.00    -0.039 C 
ATOM     73  H35 non d ame     -14.105  13.802  70.708  0.00  0.00     0.036 H 
ATOM     74  H36 non d ame     -13.015  12.871  71.937  0.00  0.00     0.036 H 
BRANCH  72  75
ATOM     75  C25 non d ame     -12.616  15.014  71.757  0.00  0.00    -0.001 C 
ATOM     76  C26 non d ame     -11.954  14.772  73.242  0.00  0.00    -0.035 C 
ATOM     77  C27 non d ame     -12.518  15.638  74.118  0.00  0.00     0.085 C 
ATOM     78  H38 non d ame     -12.245  13.795  73.627  0.00  0.00     0.036 H 
ATOM     79  H39 non d ame     -10.904  15.064  73.237  0.00  0.00     0.036 H 
ATOM     80  N5  non d ame     -13.734  16.222  73.439  0.00  0.00    -0.049 N 
ATOM     81  H40 non d ame     -12.842  15.029  74.963  0.00  0.00     0.075 H 
ATOM     82  H41 non d ame     -11.781  16.426  74.265  0.00  0.00     0.075 H 
ATOM     83  C28 non d ame     -13.586  15.858  71.873  0.00  0.00     0.193 C 
ATOM     84  H42 non d ame     -14.533  15.730  73.809  0.00  0.00     0.280 HD
ATOM     85  H43 non d ame     -13.666  17.224  73.543  0.00  0.00     0.280 HD
ATOM     86  H44 non d ame     -13.277  16.617  71.154  0.00  0.00     0.129 H 
ATOM     87  H37 non d ame     -12.026  15.584  71.038  0.00  0.00     0.046 H 
BRANCH  83  88
ATOM     88  O6  non d ame     -14.817  15.336  71.369  0.00  0.00    -0.369 OA
ATOM     89  H45 non d ame     -14.633  14.692  70.681  0.00  0.00     0.212 HD
ENDBRANCH  83  88
ENDBRANCH  72  75
ENDBRANCH  47  72
ENDBRANCH  45  47
ENDBRANCH   1  43
BRANCH   1  90
ATOM     90  C16 non d ame     -10.847   9.237  71.243  0.00  0.00    -0.035 C 
ATOM     91  H21 non d ame      -9.893   8.742  71.437  0.00  0.00     0.037 H 
ATOM     92  H22 non d ame     -11.032  10.235  71.639  0.00  0.00     0.037 H 
BRANCH  90  93
ATOM     93  C17 non d ame     -11.953   8.312  71.843  0.00  0.00    -0.059 C 
ATOM     94  H23 non d ame     -11.608   7.975  72.820  0.00  0.00     0.038 H 
BRANCH  93  95
ATOM     95  C18 non d ame     -13.305   9.066  72.049  0.00  0.00    -0.073 C 
ATOM     96  H24 non d ame     -13.134  10.141  71.984  0.00  0.00     0.028 H 
ATOM     97  H25 non d ame     -14.011   8.763  71.277  0.00  0.00     0.028 H 
ATOM     98  H26 non d ame     -13.712   8.821  73.030  0.00  0.00     0.028 H 
ENDBRANCH  93  95
BRANCH  93  99
ATOM     99  C19 non d ame     -12.152   7.064  70.977  0.00  0.00    -0.073 C 
ATOM    100  H27 non d ame     -11.343   6.358  71.167  0.00  0.00     0.028 H 
ATOM    101  H28 non d ame     -13.107   6.600  71.225  0.00  0.00     0.028 H 
ATOM    102  H29 non d ame     -12.149   7.348  69.925  0.00  0.00     0.028 H 
ENDBRANCH  93  99
ENDBRANCH  90  93
ENDBRANCH   1  90
TORSDOF 26
ENDMDL
MODEL 4
REMARK VINA RESULT:      -6.4      3.696      8.611
REMARK  26 active torsions:
REMARK  status: ('A' for Active; 'I' for Inactive)
REMARK    1  A    between atoms: C2_2  and  C3_3 
REMARK    2  A    between atoms: C4_6  and  C5_7 
REMARK       I    between atoms: C5_7  and  N2_9 
REMARK    3  A    between atoms: N2_9  and  C6_10 
REMARK    4  A    between atoms: C6_10  and  C7_11 
REMARK    5  A    between atoms: C6_10  and  C8_13 
REMARK       I    between atoms: C7_11  and  N3_14 
REMARK    6  A    between atoms: N3_14  and  C9_15 
REMARK    7  A    between atoms: C9_15  and  C10_16 
REMARK    8  A    between atoms: C9_15  and  C11_18 
REMARK       I    between atoms: C10_16  and  N4_21 
REMARK    9  A    between atoms: C11_18  and  C12_19 
REMARK   10  A    between atoms: C11_18  and  C13_20 
REMARK   11  A    between atoms: N4_21  and  C14_22 
REMARK   12  A    between atoms: C14_22  and  C15_23 
REMARK   13  A    between atoms: C14_22  and  C16_25 
REMARK       I    between atoms: C15_23  and  N6_40 
REMARK   14  A    between atoms: C16_25  and  C17_26 
REMARK   15  A    between atoms: C17_26  and  C18_27 
REMARK   16  A    between atoms: C17_26  and  C19_28 
REMARK   17  A    between atoms: C20_29  and  C21_30 
REMARK   18  A    between atoms: C20_29  and  C24_33 
REMARK   19  A    between atoms: C20_29  and  N6_40 
REMARK   20  A    between atoms: C21_30  and  C22_31 
REMARK   21  A    between atoms: C22_31  and  C23_32 
REMARK   22  A    between atoms: C23_32  and  O8_43 
REMARK   23  A    between atoms: C24_33  and  C25_34 
REMARK   24  A    between atoms: C28_38  and  O6_39 
REMARK   25  A    between atoms: C29_42  and  O8_43 
REMARK   26  A    between atoms: C29_42  and  C35_49 
ROOT
ATOM      1  C14 non d ame      -7.303   9.440  66.098  0.00  0.00     0.089 C 
ATOM      2  H20 non d ame      -7.690   8.674  65.424  0.00  0.00     0.087 H 
ENDROOT
BRANCH   1   3
ATOM      3  N4  non d ame      -8.199  10.585  66.019  0.00  0.00    -0.346 N 
ATOM      4  C10 non d ame      -9.587  10.428  65.448  0.00  0.00     0.241 C 
ATOM      5  O4  non d ame      -9.959   9.371  65.056  0.00  0.00    -0.271 OA
ATOM      6  H19 non d ame      -7.863  11.476  66.355  0.00  0.00     0.163 HD
BRANCH   4   7
ATOM      7  C9  non d ame     -10.502  11.622  65.379  0.00  0.00     0.092 C 
ATOM      8  H11 non d ame     -11.468  11.359  65.811  0.00  0.00     0.088 H 
BRANCH   7   9
ATOM      9  N3  non d ame      -9.948  12.711  66.191  0.00  0.00    -0.346 N 
ATOM     10  C7  non d ame     -10.824  13.532  66.988  0.00  0.00     0.240 C 
ATOM     11  O3  non d ame     -11.977  13.333  66.990  0.00  0.00    -0.271 OA
ATOM     12  H10 non d ame      -8.955  12.896  66.199  0.00  0.00     0.163 HD
BRANCH  10  13
ATOM     13  C6  non d ame     -10.228  14.692  67.847  0.00  0.00     0.086 C 
ATOM     14  H6  non d ame     -10.465  15.678  67.448  0.00  0.00     0.086 H 
BRANCH  13  15
ATOM     15  N2  non d ame     -10.804  14.634  69.181  0.00  0.00    -0.343 N 
ATOM     16  C5  non d ame     -11.766  15.657  69.597  0.00  0.00     0.273 C 
ATOM     17  O2  non d ame     -12.067  16.524  68.852  0.00  0.00    -0.266 OA
ATOM     18  H5  non d ame     -10.539  13.891  69.811  0.00  0.00     0.163 HD
BRANCH  16  19
ATOM     19  C4  non d ame     -12.383  15.607  71.003  0.00  0.00     0.154 A 
ATOM     20  C1  non d ame     -11.707  15.791  72.251  0.00  0.00    -0.017 A 
ATOM     21  C2  non d ame     -12.713  15.650  73.233  0.00  0.00     0.077 A 
ATOM     22  H1  non d ame     -10.650  15.996  72.418  0.00  0.00     0.091 H 
ATOM     23  O1  non d ame     -13.831  15.416  72.611  0.00  0.00    -0.218 OA
ATOM     24  N1  non d ame     -13.664  15.386  71.309  0.00  0.00    -0.123 NA
BRANCH  21  25
ATOM     25  C3  non d ame     -12.522  15.756  74.740  0.00  0.00    -0.029 C 
ATOM     26  H2  non d ame     -11.458  15.828  74.968  0.00  0.00     0.036 H 
ATOM     27  H3  non d ame     -13.034  16.643  75.110  0.00  0.00     0.036 H 
ATOM     28  H4  non d ame     -12.937  14.869  75.222  0.00  0.00     0.036 H 
ENDBRANCH  21  25
ENDBRANCH  16  19
ENDBRANCH  13  15
BRANCH  13  29
ATOM     29  C8  non d ame      -8.730  14.545  67.925  0.00  0.00    -0.049 C 
ATOM     30  H7  non d ame      -8.481  13.539  68.264  0.00  0.00     0.030 H 
ATOM     31  H8  non d ame      -8.295  14.715  66.941  0.00  0.00     0.030 H 
ATOM     32  H9  non d ame      -8.330  15.274  68.630  0.00  0.00     0.030 H 
ENDBRANCH  13  29
ENDBRANCH  10  13
ENDBRANCH   7   9
BRANCH   7  33
ATOM     33  C11 non d ame     -10.630  12.093  63.901  0.00  0.00    -0.033 C 
ATOM     34  H12 non d ame     -10.413  13.160  63.876  0.00  0.00     0.042 H 
BRANCH  33  35
ATOM     35  C12 non d ame      -9.586  11.380  62.985  0.00  0.00    -0.071 C 
ATOM     36  H13 non d ame      -8.608  11.841  63.122  0.00  0.00     0.028 H 
ATOM     37  H14 non d ame      -9.530  10.325  63.251  0.00  0.00     0.028 H 
ATOM     38  H15 non d ame      -9.891  11.477  61.945  0.00  0.00     0.028 H 
ENDBRANCH  33  35
BRANCH  33  39
ATOM     39  C13 non d ame     -12.084  11.882  63.370  0.00  0.00    -0.071 C 
ATOM     40  H16 non d ame     -12.116  10.994  62.740  0.00  0.00     0.028 H 
ATOM     41  H17 non d ame     -12.764  11.753  64.214  0.00  0.00     0.028 H 
ATOM     42  H18 non d ame     -12.389  12.752  62.789  0.00  0.00     0.028 H 
ENDBRANCH  33  39
ENDBRANCH   7  33
ENDBRANCH   4   7
ENDBRANCH   1   3
BRANCH   1  43
ATOM     43  C15 non d ame      -7.252   8.953  67.574  0.00  0.00     0.240 C 
ATOM     44  O5  non d ame      -6.208   8.883  68.137  0.00  0.00    -0.271 OA
ATOM     45  N6  non d ame      -8.507   8.583  68.289  0.00  0.00    -0.355 N 
ATOM     46  H46 non d ame      -9.400   8.643  67.822  0.00  0.00     0.162 HD
BRANCH  45  47
ATOM     47  C20 non d ame      -8.442   8.123  69.693  0.00  0.00     0.013 C 
ATOM     48  H30 non d ame      -7.393   8.099  69.990  0.00  0.00     0.072 H 
BRANCH  47  49
ATOM     49  C21 non d ame      -9.038   6.738  69.793  0.00  0.00    -0.038 C 
ATOM     50  H31 non d ame      -9.436   6.661  70.805  0.00  0.00     0.036 H 
ATOM     51  H32 non d ame      -9.705   6.641  68.936  0.00  0.00     0.036 H 
BRANCH  49  52
ATOM     52  C22 non d ame      -7.982   5.620  69.654  0.00  0.00     0.018 C 
ATOM     53  H33 non d ame      -7.019   6.098  69.836  0.00  0.00     0.048 H 
ATOM     54  H34 non d ame      -8.320   4.812  70.303  0.00  0.00     0.048 H 
BRANCH  52  55
ATOM     55  C23 non d ame      -7.895   5.014  68.225  0.00  0.00     0.259 C 
ATOM     56  O7  non d ame      -7.163   4.106  67.999  0.00  0.00    -0.265 OA
BRANCH  55  57
ATOM     57  O8  non d ame      -8.692   5.567  67.185  0.00  0.00    -0.317 OA
BRANCH  57  58
ATOM     58  C29 non d ame      -7.985   5.774  65.958  0.00  0.00     0.052 C 
ATOM     59  H47 non d ame      -8.004   6.849  65.785  0.00  0.00     0.082 H 
ATOM     60  H48 non d ame      -7.032   5.258  66.077  0.00  0.00     0.082 H 
BRANCH  58  61
ATOM     61  C35 non d ame      -8.782   5.078  64.823  0.00  0.00    -0.034 A 
ATOM     62  C30 non d ame      -8.397   5.244  63.497  0.00  0.00    -0.075 A 
ATOM     63  C31 non d ame      -9.113   4.619  62.478  0.00  0.00    -0.082 A 
ATOM     64  H49 non d ame      -7.532   5.864  63.256  0.00  0.00     0.084 H 
ATOM     65  C32 non d ame     -10.222   3.827  62.789  0.00  0.00    -0.083 A 
ATOM     66  H50 non d ame      -8.806   4.749  61.440  0.00  0.00     0.083 H 
ATOM     67  C33 non d ame     -10.605   3.667  64.113  0.00  0.00    -0.082 A 
ATOM     68  H51 non d ame     -10.787   3.334  61.998  0.00  0.00     0.083 H 
ATOM     69  C34 non d ame      -9.890   4.288  65.135  0.00  0.00    -0.075 A 
ATOM     70  H52 non d ame     -11.472   3.049  64.352  0.00  0.00     0.083 H 
ATOM     71  H53 non d ame     -10.197   4.156  66.173  0.00  0.00     0.084 H 
ENDBRANCH  58  61
ENDBRANCH  57  58
ENDBRANCH  55  57
ENDBRANCH  52  55
ENDBRANCH  49  52
ENDBRANCH  47  49
BRANCH  47  72
ATOM     72  C24 non d ame      -9.225   9.082  70.587  0.00  0.00    -0.039 C 
ATOM     73  H35 non d ame      -9.256   8.605  71.566  0.00  0.00     0.036 H 
ATOM     74  H36 non d ame      -8.739  10.051  70.469  0.00  0.00     0.036 H 
BRANCH  72  75
ATOM     75  C25 non d ame     -10.740   9.250  70.094  0.00  0.00    -0.001 C 
ATOM     76  C26 non d ame     -10.976  10.774  69.521  0.00  0.00    -0.035 C 
ATOM     77  C27 non d ame     -12.068  11.301  70.123  0.00  0.00     0.085 C 
ATOM     78  H38 non d ame     -10.166  11.425  69.846  0.00  0.00     0.036 H 
ATOM     79  H39 non d ame     -11.258  10.738  68.469  0.00  0.00     0.036 H 
ATOM     80  N5  non d ame     -12.405  10.405  71.290  0.00  0.00    -0.049 N 
ATOM     81  H40 non d ame     -11.751  12.274  70.502  0.00  0.00     0.075 H 
ATOM     82  H41 non d ame     -12.867  11.238  69.385  0.00  0.00     0.075 H 
ATOM     83  C28 non d ame     -11.572   9.041  71.058  0.00  0.00     0.193 C 
ATOM     84  H42 non d ame     -12.048  10.863  72.116  0.00  0.00     0.280 HD
ATOM     85  H43 non d ame     -13.390  10.195  71.215  0.00  0.00     0.280 HD
ATOM     86  H44 non d ame     -12.071   8.141  70.699  0.00  0.00     0.129 H 
ATOM     87  H37 non d ame     -11.060   8.426  69.457  0.00  0.00     0.046 H 
BRANCH  83  88
ATOM     88  O6  non d ame     -10.912   8.655  72.265  0.00  0.00    -0.369 OA
ATOM     89  H45 non d ame     -10.961   7.701  72.365  0.00  0.00     0.212 HD
ENDBRANCH  83  88
ENDBRANCH  72  75
ENDBRANCH  47  72
ENDBRANCH  45  47
ENDBRANCH   1  43
BRANCH   1  90
ATOM     90  C16 non d ame      -5.914   9.866  65.650  0.00  0.00    -0.035 C 
ATOM     91  H21 non d ame      -5.997  10.930  65.424  0.00  0.00     0.037 H 
ATOM     92  H22 non d ame      -5.241   9.527  66.438  0.00  0.00     0.037 H 
BRANCH  90  93
ATOM     93  C17 non d ame      -5.439   9.171  64.335  0.00  0.00    -0.059 C 
ATOM     94  H23 non d ame      -5.053   9.947  63.673  0.00  0.00     0.038 H 
BRANCH  93  95
ATOM     95  C18 non d ame      -4.288   8.147  64.591  0.00  0.00    -0.073 C 
ATOM     96  H24 non d ame      -3.537   8.599  65.239  0.00  0.00     0.028 H 
ATOM     97  H25 non d ame      -4.694   7.257  65.071  0.00  0.00     0.028 H 
ATOM     98  H26 non d ame      -3.830   7.871  63.641  0.00  0.00     0.028 H 
ENDBRANCH  93  95
BRANCH  93  99
ATOM     99  C19 non d ame      -6.613   8.503  63.614  0.00  0.00    -0.073 C 
ATOM    100  H27 non d ame      -7.548   8.957  63.943  0.00  0.00     0.028 H 
ATOM    101  H28 non d ame      -6.501   8.638  62.537  0.00  0.00     0.028 H 
ATOM    102  H29 non d ame      -6.623   7.438  63.846  0.00  0.00     0.028 H 
ENDBRANCH  93  99
ENDBRANCH  90  93
ENDBRANCH   1  90
TORSDOF 26
ENDMDL
MODEL 5
REMARK VINA RESULT:      -6.4      3.257      8.122
REMARK  26 active torsions:
REMARK  status: ('A' for Active; 'I' for Inactive)
REMARK    1  A    between atoms: C2_2  and  C3_3 
REMARK    2  A    between atoms: C4_6  and  C5_7 
REMARK       I    between atoms: C5_7  and  N2_9 
REMARK    3  A    between atoms: N2_9  and  C6_10 
REMARK    4  A    between atoms: C6_10  and  C7_11 
REMARK    5  A    between atoms: C6_10  and  C8_13 
REMARK       I    between atoms: C7_11  and  N3_14 
REMARK    6  A    between atoms: N3_14  and  C9_15 
REMARK    7  A    between atoms: C9_15  and  C10_16 
REMARK    8  A    between atoms: C9_15  and  C11_18 
REMARK       I    between atoms: C10_16  and  N4_21 
REMARK    9  A    between atoms: C11_18  and  C12_19 
REMARK   10  A    between atoms: C11_18  and  C13_20 
REMARK   11  A    between atoms: N4_21  and  C14_22 
REMARK   12  A    between atoms: C14_22  and  C15_23 
REMARK   13  A    between atoms: C14_22  and  C16_25 
REMARK       I    between atoms: C15_23  and  N6_40 
REMARK   14  A    between atoms: C16_25  and  C17_26 
REMARK   15  A    between atoms: C17_26  and  C18_27 
REMARK   16  A    between atoms: C17_26  and  C19_28 
REMARK   17  A    between atoms: C20_29  and  C21_30 
REMARK   18  A    between atoms: C20_29  and  C24_33 
REMARK   19  A    between atoms: C20_29  and  N6_40 
REMARK   20  A    between atoms: C21_30  and  C22_31 
REMARK   21  A    between atoms: C22_31  and  C23_32 
REMARK   22  A    between atoms: C23_32  and  O8_43 
REMARK   23  A    between atoms: C24_33  and  C25_34 
REMARK   24  A    between atoms: C28_38  and  O6_39 
REMARK   25  A    between atoms: C29_42  and  O8_43 
REMARK   26  A    between atoms: C29_42  and  C35_49 
ROOT
ATOM      1  C14 non d ame     -11.008   9.284  69.857  0.00  0.00     0.089 C 
ATOM      2  H20 non d ame     -11.679   8.470  69.580  0.00  0.00     0.087 H 
ENDROOT
BRANCH   1   3
ATOM      3  N4  non d ame      -9.737   9.052  69.186  0.00  0.00    -0.346 N 
ATOM      4  C10 non d ame      -9.526   7.804  68.365  0.00  0.00     0.241 C 
ATOM      5  O4  non d ame     -10.394   7.000  68.261  0.00  0.00    -0.271 OA
ATOM      6  H19 non d ame      -9.011   9.746  69.289  0.00  0.00     0.163 HD
BRANCH   4   7
ATOM      7  C9  non d ame      -8.207   7.582  67.673  0.00  0.00     0.092 C 
ATOM      8  H11 non d ame      -8.293   6.728  67.002  0.00  0.00     0.088 H 
BRANCH   7   9
ATOM      9  N3  non d ame      -7.886   8.750  66.846  0.00  0.00    -0.346 N 
ATOM     10  C7  non d ame      -7.448   8.571  65.485  0.00  0.00     0.240 C 
ATOM     11  O3  non d ame      -7.348   7.494  65.036  0.00  0.00    -0.271 OA
ATOM     12  H10 non d ame      -7.966   9.686  67.220  0.00  0.00     0.163 HD
BRANCH  10  13
ATOM     13  C6  non d ame      -7.105   9.818  64.611  0.00  0.00     0.086 C 
ATOM     14  H6  non d ame      -6.981   9.573  63.556  0.00  0.00     0.086 H 
BRANCH  13  15
ATOM     15  N2  non d ame      -8.203  10.767  64.693  0.00  0.00    -0.343 N 
ATOM     16  C5  non d ame      -9.301  10.684  63.727  0.00  0.00     0.273 C 
ATOM     17  O2  non d ame      -9.290   9.853  62.888  0.00  0.00    -0.266 OA
ATOM     18  H5  non d ame      -8.203  11.476  65.412  0.00  0.00     0.163 HD
BRANCH  16  19
ATOM     19  C4  non d ame     -10.469  11.680  63.802  0.00  0.00     0.154 A 
ATOM     20  C1  non d ame     -10.455  12.986  64.388  0.00  0.00    -0.017 A 
ATOM     21  C2  non d ame     -11.763  13.484  64.196  0.00  0.00     0.077 A 
ATOM     22  H1  non d ame      -9.624  13.495  64.876  0.00  0.00     0.091 H 
ATOM     23  O1  non d ame     -12.440  12.565  63.571  0.00  0.00    -0.218 OA
ATOM     24  N1  non d ame     -11.706  11.503  63.330  0.00  0.00    -0.123 NA
BRANCH  21  25
ATOM     25  C3  non d ame     -12.283  14.846  64.637  0.00  0.00    -0.029 C 
ATOM     26  H2  non d ame     -11.878  15.089  65.620  0.00  0.00     0.036 H 
ATOM     27  H3  non d ame     -11.973  15.604  63.919  0.00  0.00     0.036 H 
ATOM     28  H4  non d ame     -13.372  14.820  64.690  0.00  0.00     0.036 H 
ENDBRANCH  21  25
ENDBRANCH  16  19
ENDBRANCH  13  15
BRANCH  13  29
ATOM     29  C8  non d ame      -5.835  10.454  65.116  0.00  0.00    -0.049 C 
ATOM     30  H7  non d ame      -5.400  11.070  64.328  0.00  0.00     0.030 H 
ATOM     31  H8  non d ame      -6.058  11.076  65.982  0.00  0.00     0.030 H 
ATOM     32  H9  non d ame      -5.126   9.675  65.399  0.00  0.00     0.030 H 
ENDBRANCH  13  29
ENDBRANCH  10  13
ENDBRANCH   7   9
BRANCH   7  33
ATOM     33  C11 non d ame      -7.090   7.380  68.739  0.00  0.00    -0.033 C 
ATOM     34  H12 non d ame      -6.779   8.367  69.079  0.00  0.00     0.042 H 
BRANCH  33  35
ATOM     35  C12 non d ame      -7.624   6.601  69.981  0.00  0.00    -0.071 C 
ATOM     36  H13 non d ame      -6.788   6.326  70.624  0.00  0.00     0.028 H 
ATOM     37  H14 non d ame      -8.318   7.232  70.535  0.00  0.00     0.028 H 
ATOM     38  H15 non d ame      -8.138   5.700  69.649  0.00  0.00     0.028 H 
ENDBRANCH  33  35
BRANCH  33  39
ATOM     39  C13 non d ame      -5.846   6.669  68.116  0.00  0.00    -0.071 C 
ATOM     40  H16 non d ame      -6.178   5.896  67.424  0.00  0.00     0.028 H 
ATOM     41  H17 non d ame      -5.239   7.400  67.581  0.00  0.00     0.028 H 
ATOM     42  H18 non d ame      -5.252   6.216  68.910  0.00  0.00     0.028 H 
ENDBRANCH  33  39
ENDBRANCH   7  33
ENDBRANCH   4   7
ENDBRANCH   1   3
BRANCH   1  43
ATOM     43  C15 non d ame     -11.553  10.672  69.416  0.00  0.00     0.240 C 
ATOM     44  O5  non d ame     -11.925  10.833  68.299  0.00  0.00    -0.271 OA
ATOM     45  N6  non d ame     -11.621  11.799  70.390  0.00  0.00    -0.355 N 
ATOM     46  H46 non d ame     -11.312  11.672  71.342  0.00  0.00     0.162 HD
BRANCH  45  47
ATOM     47  C20 non d ame     -12.143  13.112  69.955  0.00  0.00     0.013 C 
ATOM     48  H30 non d ame     -12.651  12.973  69.001  0.00  0.00     0.072 H 
BRANCH  47  49
ATOM     49  C21 non d ame     -10.992  14.078  69.789  0.00  0.00    -0.038 C 
ATOM     50  H31 non d ame     -11.283  14.979  70.329  0.00  0.00     0.036 H 
ATOM     51  H32 non d ame     -10.099  13.528  70.089  0.00  0.00     0.036 H 
BRANCH  49  52
ATOM     52  C22 non d ame     -10.771  14.501  68.320  0.00  0.00     0.018 C 
ATOM     53  H33 non d ame      -9.730  14.267  68.098  0.00  0.00     0.048 H 
ATOM     54  H34 non d ame     -11.569  14.024  67.753  0.00  0.00     0.048 H 
BRANCH  52  55
ATOM     55  C23 non d ame     -10.927  16.028  68.078  0.00  0.00     0.259 C 
ATOM     56  O7  non d ame     -11.606  16.687  68.797  0.00  0.00    -0.265 OA
BRANCH  55  57
ATOM     57  O8  non d ame     -10.259  16.630  66.976  0.00  0.00    -0.317 OA
BRANCH  57  58
ATOM     58  C29 non d ame     -10.389  18.054  66.924  0.00  0.00     0.052 C 
ATOM     59  H47 non d ame     -10.918  18.269  65.997  0.00  0.00     0.082 H 
ATOM     60  H48 non d ame     -10.824  18.345  67.880  0.00  0.00     0.082 H 
BRANCH  58  61
ATOM     61  C35 non d ame      -8.964  18.661  66.829  0.00  0.00    -0.034 A 
ATOM     62  C30 non d ame      -8.724  19.953  67.286  0.00  0.00    -0.075 A 
ATOM     63  C31 non d ame      -7.443  20.498  67.200  0.00  0.00    -0.082 A 
ATOM     64  H49 non d ame      -9.539  20.539  67.711  0.00  0.00     0.084 H 
ATOM     65  C32 non d ame      -6.401  19.746  66.652  0.00  0.00    -0.083 A 
ATOM     66  H50 non d ame      -7.258  21.510  67.562  0.00  0.00     0.083 H 
ATOM     67  C33 non d ame      -6.645  18.458  66.194  0.00  0.00    -0.082 A 
ATOM     68  H51 non d ame      -5.396  20.164  66.582  0.00  0.00     0.083 H 
ATOM     69  C34 non d ame      -7.923  17.910  66.280  0.00  0.00    -0.075 A 
ATOM     70  H52 non d ame      -5.829  17.876  65.765  0.00  0.00     0.083 H 
ATOM     71  H53 non d ame      -8.106  16.897  65.919  0.00  0.00     0.084 H 
ENDBRANCH  58  61
ENDBRANCH  57  58
ENDBRANCH  55  57
ENDBRANCH  52  55
ENDBRANCH  49  52
ENDBRANCH  47  49
BRANCH  47  72
ATOM     72  C24 non d ame     -13.116  13.653  71.001  0.00  0.00    -0.039 C 
ATOM     73  H35 non d ame     -14.008  13.942  70.445  0.00  0.00     0.036 H 
ATOM     74  H36 non d ame     -13.179  12.878  71.766  0.00  0.00     0.036 H 
BRANCH  72  75
ATOM     75  C25 non d ame     -12.552  14.973  71.710  0.00  0.00    -0.001 C 
ATOM     76  C26 non d ame     -11.976  14.603  73.205  0.00  0.00    -0.035 C 
ATOM     77  C27 non d ame     -12.528  15.450  74.107  0.00  0.00     0.085 C 
ATOM     78  H38 non d ame     -12.343  13.626  73.516  0.00  0.00     0.036 H 
ATOM     79  H39 non d ame     -10.912  14.829  73.263  0.00  0.00     0.036 H 
ATOM     80  N5  non d ame     -13.674  16.148  73.414  0.00  0.00    -0.049 N 
ATOM     81  H40 non d ame     -12.927  14.814  74.898  0.00  0.00     0.075 H 
ATOM     82  H41 non d ame     -11.752  16.180  74.334  0.00  0.00     0.075 H 
ATOM     83  C28 non d ame     -13.474  15.868  71.836  0.00  0.00     0.193 C 
ATOM     84  H42 non d ame     -14.517  15.685  73.719  0.00  0.00     0.280 HD
ATOM     85  H43 non d ame     -13.550  17.136  73.582  0.00  0.00     0.280 HD
ATOM     86  H44 non d ame     -13.087  16.646  71.179  0.00  0.00     0.129 H 
ATOM     87  H37 non d ame     -11.896  15.546  71.054  0.00  0.00     0.046 H 
BRANCH  83  88
ATOM     88  O6  non d ame     -14.710  15.454  71.249  0.00  0.00    -0.369 OA
ATOM     89  H45 non d ame     -14.730  15.721  70.327  0.00  0.00     0.212 HD
ENDBRANCH  83  88
ENDBRANCH  72  75
ENDBRANCH  47  72
ENDBRANCH  45  47
ENDBRANCH   1  43
BRANCH   1  90
ATOM     90  C16 non d ame     -10.783   9.277  71.360  0.00  0.00    -0.035 C 
ATOM     91  H21 non d ame      -9.736   9.001  71.495  0.00  0.00     0.037 H 
ATOM     92  H22 non d ame     -11.140  10.246  71.710  0.00  0.00     0.037 H 
BRANCH  90  93
ATOM     93  C17 non d ame     -11.624   8.198  72.115  0.00  0.00    -0.059 C 
ATOM     94  H23 non d ame     -12.402   8.718  72.674  0.00  0.00     0.038 H 
BRANCH  93  95
ATOM     95  C18 non d ame     -12.325   7.205  71.134  0.00  0.00    -0.073 C 
ATOM     96  H24 non d ame     -13.406   7.328  71.205  0.00  0.00     0.028 H 
ATOM     97  H25 non d ame     -12.002   7.413  70.114  0.00  0.00     0.028 H 
ATOM     98  H26 non d ame     -12.057   6.182  71.399  0.00  0.00     0.028 H 
ENDBRANCH  93  95
BRANCH  93  99
ATOM     99  C19 non d ame     -10.761   7.443  73.130  0.00  0.00    -0.073 C 
ATOM    100  H27 non d ame     -11.384   6.740  73.683  0.00  0.00     0.028 H 
ATOM    101  H28 non d ame      -9.976   6.899  72.604  0.00  0.00     0.028 H 
ATOM    102  H29 non d ame     -10.309   8.153  73.822  0.00  0.00     0.028 H 
ENDBRANCH  93  99
ENDBRANCH  90  93
ENDBRANCH   1  90
TORSDOF 26
ENDMDL
MODEL 6
REMARK VINA RESULT:      -6.4      3.171      7.907
REMARK  26 active torsions:
REMARK  status: ('A' for Active; 'I' for Inactive)
REMARK    1  A    between atoms: C2_2  and  C3_3 
REMARK    2  A    between atoms: C4_6  and  C5_7 
REMARK       I    between atoms: C5_7  and  N2_9 
REMARK    3  A    between atoms: N2_9  and  C6_10 
REMARK    4  A    between atoms: C6_10  and  C7_11 
REMARK    5  A    between atoms: C6_10  and  C8_13 
REMARK       I    between atoms: C7_11  and  N3_14 
REMARK    6  A    between atoms: N3_14  and  C9_15 
REMARK    7  A    between atoms: C9_15  and  C10_16 
REMARK    8  A    between atoms: C9_15  and  C11_18 
REMARK       I    between atoms: C10_16  and  N4_21 
REMARK    9  A    between atoms: C11_18  and  C12_19 
REMARK   10  A    between atoms: C11_18  and  C13_20 
REMARK   11  A    between atoms: N4_21  and  C14_22 
REMARK   12  A    between atoms: C14_22  and  C15_23 
REMARK   13  A    between atoms: C14_22  and  C16_25 
REMARK       I    between atoms: C15_23  and  N6_40 
REMARK   14  A    between atoms: C16_25  and  C17_26 
REMARK   15  A    between atoms: C17_26  and  C18_27 
REMARK   16  A    between atoms: C17_26  and  C19_28 
REMARK   17  A    between atoms: C20_29  and  C21_30 
REMARK   18  A    between atoms: C20_29  and  C24_33 
REMARK   19  A    between atoms: C20_29  and  N6_40 
REMARK   20  A    between atoms: C21_30  and  C22_31 
REMARK   21  A    between atoms: C22_31  and  C23_32 
REMARK   22  A    between atoms: C23_32  and  O8_43 
REMARK   23  A    between atoms: C24_33  and  C25_34 
REMARK   24  A    between atoms: C28_38  and  O6_39 
REMARK   25  A    between atoms: C29_42  and  O8_43 
REMARK   26  A    between atoms: C29_42  and  C35_49 
ROOT
ATOM      1  C14 non d ame     -10.934  12.594  66.767  0.00  0.00     0.089 C 
ATOM      2  H20 non d ame     -10.110  12.442  66.069  0.00  0.00     0.087 H 
ENDROOT
BRANCH   1   3
ATOM      3  N4  non d ame     -11.071  11.378  67.555  0.00  0.00    -0.346 N 
ATOM      4  C10 non d ame     -10.303  10.136  67.179  0.00  0.00     0.241 C 
ATOM      5  O4  non d ame      -9.583  10.138  66.235  0.00  0.00    -0.271 OA
ATOM      6  H19 non d ame     -11.691  11.395  68.353  0.00  0.00     0.163 HD
BRANCH   4   7
ATOM      7  C9  non d ame     -10.453   8.887  68.008  0.00  0.00     0.092 C 
ATOM      8  H11 non d ame     -11.490   8.554  67.971  0.00  0.00     0.088 H 
BRANCH   7   9
ATOM      9  N3  non d ame      -9.633   7.816  67.432  0.00  0.00    -0.346 N 
ATOM     10  C7  non d ame     -10.263   6.631  66.907  0.00  0.00     0.240 C 
ATOM     11  O3  non d ame     -11.428   6.519  66.940  0.00  0.00    -0.271 OA
ATOM     12  H10 non d ame      -8.627   7.897  67.396  0.00  0.00     0.163 HD
BRANCH  10  13
ATOM     13  C6  non d ame      -9.385   5.493  66.298  0.00  0.00     0.086 C 
ATOM     14  H6  non d ame      -9.888   4.957  65.493  0.00  0.00     0.086 H 
BRANCH  13  15
ATOM     15  N2  non d ame      -8.187   6.080  65.721  0.00  0.00    -0.343 N 
ATOM     16  C5  non d ame      -7.847   5.801  64.324  0.00  0.00     0.273 C 
ATOM     17  O2  non d ame      -8.542   5.100  63.674  0.00  0.00    -0.266 OA
ATOM     18  H5  non d ame      -7.597   6.676  66.285  0.00  0.00     0.163 HD
BRANCH  16  19
ATOM     19  C4  non d ame      -6.584   6.416  63.701  0.00  0.00     0.154 A 
ATOM     20  C1  non d ame      -6.215   7.799  63.680  0.00  0.00    -0.017 A 
ATOM     21  C2  non d ame      -4.980   7.835  62.997  0.00  0.00     0.077 A 
ATOM     22  H1  non d ame      -6.761   8.646  64.097  0.00  0.00     0.091 H 
ATOM     23  O1  non d ame      -4.681   6.612  62.671  0.00  0.00    -0.218 OA
ATOM     24  N1  non d ame      -5.602   5.765  63.071  0.00  0.00    -0.123 NA
BRANCH  21  25
ATOM     25  C3  non d ame      -4.150   9.077  62.700  0.00  0.00    -0.029 C 
ATOM     26  H2  non d ame      -4.317   9.388  61.668  0.00  0.00     0.036 H 
ATOM     27  H3  non d ame      -4.445   9.881  63.373  0.00  0.00     0.036 H 
ATOM     28  H4  non d ame      -3.093   8.852  62.844  0.00  0.00     0.036 H 
ENDBRANCH  21  25
ENDBRANCH  16  19
ENDBRANCH  13  15
BRANCH  13  29
ATOM     29  C8  non d ame      -9.010   4.510  67.378  0.00  0.00    -0.049 C 
ATOM     30  H7  non d ame      -8.690   3.573  66.921  0.00  0.00     0.030 H 
ATOM     31  H8  non d ame      -8.196   4.920  67.976  0.00  0.00     0.030 H 
ATOM     32  H9  non d ame      -9.874   4.325  68.016  0.00  0.00     0.030 H 
ENDBRANCH  13  29
ENDBRANCH  10  13
ENDBRANCH   7   9
BRANCH   7  33
ATOM     33  C11 non d ame      -9.980   9.173  69.463  0.00  0.00    -0.033 C 
ATOM     34  H12 non d ame     -10.564  10.011  69.840  0.00  0.00     0.042 H 
BRANCH  33  35
ATOM     35  C12 non d ame     -10.252   7.953  70.398  0.00  0.00    -0.071 C 
ATOM     36  H13 non d ame      -9.316   7.627  70.852  0.00  0.00     0.028 H 
ATOM     37  H14 non d ame     -10.953   8.243  71.180  0.00  0.00     0.028 H 
ATOM     38  H15 non d ame     -10.675   7.136  69.814  0.00  0.00     0.028 H 
ENDBRANCH  33  35
BRANCH  33  39
ATOM     39  C13 non d ame      -8.473   9.582  69.492  0.00  0.00    -0.071 C 
ATOM     40  H16 non d ame      -8.330  10.393  70.206  0.00  0.00     0.028 H 
ATOM     41  H17 non d ame      -7.869   8.725  69.791  0.00  0.00     0.028 H 
ATOM     42  H18 non d ame      -8.167   9.913  68.500  0.00  0.00     0.028 H 
ENDBRANCH  33  39
ENDBRANCH   7  33
ENDBRANCH   4   7
ENDBRANCH   1   3
BRANCH   1  43
ATOM     43  C15 non d ame     -10.672  13.783  67.735  0.00  0.00     0.240 C 
ATOM     44  O5  non d ame      -9.621  13.882  68.280  0.00  0.00    -0.271 OA
ATOM     45  N6  non d ame     -11.731  14.805  67.976  0.00  0.00    -0.355 N 
ATOM     46  H46 non d ame     -12.627  14.734  67.516  0.00  0.00     0.162 HD
BRANCH  45  47
ATOM     47  C20 non d ame     -11.467  15.930  68.898  0.00  0.00     0.013 C 
ATOM     48  H30 non d ame     -12.326  16.600  68.866  0.00  0.00     0.072 H 
BRANCH  47  49
ATOM     49  C21 non d ame     -10.224  16.665  68.448  0.00  0.00    -0.038 C 
ATOM     50  H31 non d ame     -10.048  17.434  69.200  0.00  0.00     0.036 H 
ATOM     51  H32 non d ame      -9.474  15.893  68.272  0.00  0.00     0.036 H 
BRANCH  49  52
ATOM     52  C22 non d ame     -10.417  17.401  67.105  0.00  0.00     0.018 C 
ATOM     53  H33 non d ame     -11.159  16.823  66.554  0.00  0.00     0.048 H 
ATOM     54  H34 non d ame     -10.618  18.440  67.364  0.00  0.00     0.048 H 
BRANCH  52  55
ATOM     55  C23 non d ame      -9.144  17.422  66.213  0.00  0.00     0.259 C 
ATOM     56  O7  non d ame      -8.633  16.406  65.869  0.00  0.00    -0.265 OA
BRANCH  55  57
ATOM     57  O8  non d ame      -8.587  18.671  65.823  0.00  0.00    -0.317 OA
BRANCH  57  58
ATOM     58  C29 non d ame      -8.922  19.755  66.694  0.00  0.00     0.052 C 
ATOM     59  H47 non d ame      -9.095  20.612  66.045  0.00  0.00     0.082 H 
ATOM     60  H48 non d ame      -9.724  19.383  67.331  0.00  0.00     0.082 H 
BRANCH  58  61
ATOM     61  C35 non d ame      -7.686  20.053  67.584  0.00  0.00    -0.034 A 
ATOM     62  C30 non d ame      -7.582  19.480  68.847  0.00  0.00    -0.075 A 
ATOM     63  C31 non d ame      -6.471  19.748  69.646  0.00  0.00    -0.082 A 
ATOM     64  H49 non d ame      -8.369  18.819  69.210  0.00  0.00     0.084 H 
ATOM     65  C32 non d ame      -5.465  20.597  69.180  0.00  0.00    -0.083 A 
ATOM     66  H50 non d ame      -6.391  19.294  70.634  0.00  0.00     0.083 H 
ATOM     67  C33 non d ame      -5.575  21.171  67.920  0.00  0.00    -0.082 A 
ATOM     68  H51 non d ame      -4.593  20.811  69.798  0.00  0.00     0.083 H 
ATOM     69  C34 non d ame      -6.682  20.903  67.117  0.00  0.00    -0.075 A 
ATOM     70  H52 non d ame      -4.788  21.835  67.560  0.00  0.00     0.083 H 
ATOM     71  H53 non d ame      -6.760  21.357  66.128  0.00  0.00     0.084 H 
ENDBRANCH  58  61
ENDBRANCH  57  58
ENDBRANCH  55  57
ENDBRANCH  52  55
ENDBRANCH  49  52
ENDBRANCH  47  49
BRANCH  47  72
ATOM     72  C24 non d ame     -11.261  15.398  70.315  0.00  0.00    -0.039 C 
ATOM     73  H35 non d ame     -11.086  14.328  70.200  0.00  0.00     0.036 H 
ATOM     74  H36 non d ame     -10.489  16.032  70.753  0.00  0.00     0.036 H 
BRANCH  72  75
ATOM     75  C25 non d ame     -12.578  15.569  71.211  0.00  0.00    -0.001 C 
ATOM     76  C26 non d ame     -12.179  16.196  72.678  0.00  0.00    -0.035 C 
ATOM     77  C27 non d ame     -12.720  15.418  73.646  0.00  0.00     0.085 C 
ATOM     78  H38 non d ame     -11.107  16.102  72.846  0.00  0.00     0.036 H 
ATOM     79  H39 non d ame     -12.671  17.158  72.820  0.00  0.00     0.036 H 
ATOM     80  N5  non d ame     -13.173  14.139  72.982  0.00  0.00    -0.049 N 
ATOM     81  H40 non d ame     -11.902  15.192  74.330  0.00  0.00     0.075 H 
ATOM     82  H41 non d ame     -13.594  15.962  74.002  0.00  0.00     0.075 H 
ATOM     83  C28 non d ame     -13.169  14.436  71.395  0.00  0.00     0.193 C 
ATOM     84  H42 non d ame     -12.466  13.447  73.182  0.00  0.00     0.280 HD
ATOM     85  H43 non d ame     -14.127  13.986  73.277  0.00  0.00     0.280 HD
ATOM     86  H44 non d ame     -14.102  14.610  70.861  0.00  0.00     0.129 H 
ATOM     87  H37 non d ame     -13.386  16.058  70.666  0.00  0.00     0.046 H 
BRANCH  83  88
ATOM     88  O6  non d ame     -12.522  13.371  70.696  0.00  0.00    -0.369 OA
ATOM     89  H45 non d ame     -11.766  13.068  71.204  0.00  0.00     0.212 HD
ENDBRANCH  83  88
ENDBRANCH  72  75
ENDBRANCH  47  72
ENDBRANCH  45  47
ENDBRANCH   1  43
BRANCH   1  90
ATOM     90  C16 non d ame     -12.223  12.834  65.999  0.00  0.00    -0.035 C 
ATOM     91  H21 non d ame     -12.715  11.862  65.949  0.00  0.00     0.037 H 
ATOM     92  H22 non d ame     -12.711  13.667  66.506  0.00  0.00     0.037 H 
BRANCH  90  93
ATOM     93  C17 non d ame     -11.997  13.289  64.522  0.00  0.00    -0.059 C 
ATOM     94  H23 non d ame     -12.826  12.905  63.927  0.00  0.00     0.038 H 
BRANCH  93  95
ATOM     95  C18 non d ame     -11.988  14.845  64.378  0.00  0.00    -0.073 C 
ATOM     96  H24 non d ame     -11.054  15.241  64.778  0.00  0.00     0.028 H 
ATOM     97  H25 non d ame     -12.075  15.113  63.325  0.00  0.00     0.028 H 
ATOM     98  H26 non d ame     -12.829  15.265  64.931  0.00  0.00     0.028 H 
ENDBRANCH  93  95
BRANCH  93  99
ATOM     99  C19 non d ame     -10.711  12.683  63.953  0.00  0.00    -0.073 C 
ATOM    100  H27 non d ame     -10.942  12.131  63.041  0.00  0.00     0.028 H 
ATOM    101  H28 non d ame     -10.003  13.481  63.727  0.00  0.00     0.028 H 
ATOM    102  H29 non d ame     -10.272  12.006  64.686  0.00  0.00     0.028 H 
ENDBRANCH  93  99
ENDBRANCH  90  93
ENDBRANCH   1  90
TORSDOF 26
ENDMDL
MODEL 7
REMARK VINA RESULT:      -6.3      2.823      8.349
REMARK  26 active torsions:
REMARK  status: ('A' for Active; 'I' for Inactive)
REMARK    1  A    between atoms: C2_2  and  C3_3 
REMARK    2  A    between atoms: C4_6  and  C5_7 
REMARK       I    between atoms: C5_7  and  N2_9 
REMARK    3  A    between atoms: N2_9  and  C6_10 
REMARK    4  A    between atoms: C6_10  and  C7_11 
REMARK    5  A    between atoms: C6_10  and  C8_13 
REMARK       I    between atoms: C7_11  and  N3_14 
REMARK    6  A    between atoms: N3_14  and  C9_15 
REMARK    7  A    between atoms: C9_15  and  C10_16 
REMARK    8  A    between atoms: C9_15  and  C11_18 
REMARK       I    between atoms: C10_16  and  N4_21 
REMARK    9  A    between atoms: C11_18  and  C12_19 
REMARK   10  A    between atoms: C11_18  and  C13_20 
REMARK   11  A    between atoms: N4_21  and  C14_22 
REMARK   12  A    between atoms: C14_22  and  C15_23 
REMARK   13  A    between atoms: C14_22  and  C16_25 
REMARK       I    between atoms: C15_23  and  N6_40 
REMARK   14  A    between atoms: C16_25  and  C17_26 
REMARK   15  A    between atoms: C17_26  and  C18_27 
REMARK   16  A    between atoms: C17_26  and  C19_28 
REMARK   17  A    between atoms: C20_29  and  C21_30 
REMARK   18  A    between atoms: C20_29  and  C24_33 
REMARK   19  A    between atoms: C20_29  and  N6_40 
REMARK   20  A    between atoms: C21_30  and  C22_31 
REMARK   21  A    between atoms: C22_31  and  C23_32 
REMARK   22  A    between atoms: C23_32  and  O8_43 
REMARK   23  A    between atoms: C24_33  and  C25_34 
REMARK   24  A    between atoms: C28_38  and  O6_39 
REMARK   25  A    between atoms: C29_42  and  O8_43 
REMARK   26  A    between atoms: C29_42  and  C35_49 
ROOT
ATOM      1  C14 non d ame      -7.356   9.727  66.787  0.00  0.00     0.089 C 
ATOM      2  H20 non d ame      -6.285   9.683  66.584  0.00  0.00     0.087 H 
ENDROOT
BRANCH   1   3
ATOM      3  N4  non d ame      -7.626  11.000  67.439  0.00  0.00    -0.346 N 
ATOM      4  C10 non d ame      -6.676  12.160  67.270  0.00  0.00     0.241 C 
ATOM      5  O4  non d ame      -5.699  12.043  66.606  0.00  0.00    -0.271 OA
ATOM      6  H19 non d ame      -8.461  11.078  68.003  0.00  0.00     0.163 HD
BRANCH   4   7
ATOM      7  C9  non d ame      -6.974  13.471  67.949  0.00  0.00     0.092 C 
ATOM      8  H11 non d ame      -6.936  14.273  67.212  0.00  0.00     0.088 H 
BRANCH   7   9
ATOM      9  N3  non d ame      -8.337  13.444  68.488  0.00  0.00    -0.346 N 
ATOM     10  C7  non d ame      -9.316  14.395  68.022  0.00  0.00     0.240 C 
ATOM     11  O3  non d ame      -9.025  15.189  67.214  0.00  0.00    -0.271 OA
ATOM     12  H10 non d ame      -8.604  12.765  69.187  0.00  0.00     0.163 HD
BRANCH  10  13
ATOM     13  C6  non d ame     -10.764  14.363  68.603  0.00  0.00     0.086 C 
ATOM     14  H6  non d ame     -11.522  14.199  67.837  0.00  0.00     0.086 H 
BRANCH  13  15
ATOM     15  N2  non d ame     -10.872  13.255  69.538  0.00  0.00    -0.343 N 
ATOM     16  C5  non d ame     -11.609  12.050  69.149  0.00  0.00     0.273 C 
ATOM     17  O2  non d ame     -12.113  11.984  68.083  0.00  0.00    -0.266 OA
ATOM     18  H5  non d ame     -10.440  13.322  70.449  0.00  0.00     0.163 HD
BRANCH  16  19
ATOM     19  C4  non d ame     -11.730  10.872  70.127  0.00  0.00     0.154 A 
ATOM     20  C1  non d ame     -12.867  10.521  70.923  0.00  0.00    -0.017 A 
ATOM     21  C2  non d ame     -12.469   9.372  71.640  0.00  0.00     0.077 A 
ATOM     22  H1  non d ame     -13.834  11.024  70.971  0.00  0.00     0.091 H 
ATOM     23  O1  non d ame     -11.246   9.101  71.289  0.00  0.00    -0.218 OA
ATOM     24  N1  non d ame     -10.793   9.963  70.407  0.00  0.00    -0.123 NA
BRANCH  21  25
ATOM     25  C3  non d ame     -13.316   8.593  72.637  0.00  0.00    -0.029 C 
ATOM     26  H2  non d ame     -12.930   7.578  72.728  0.00  0.00     0.036 H 
ATOM     27  H3  non d ame     -13.277   9.084  73.609  0.00  0.00     0.036 H 
ATOM     28  H4  non d ame     -14.349   8.559  72.289  0.00  0.00     0.036 H 
ENDBRANCH  21  25
ENDBRANCH  16  19
ENDBRANCH  13  15
BRANCH  13  29
ATOM     29  C8  non d ame     -11.055  15.663  69.307  0.00  0.00    -0.049 C 
ATOM     30  H7  non d ame     -11.906  15.531  69.977  0.00  0.00     0.030 H 
ATOM     31  H8  non d ame     -10.183  15.969  69.883  0.00  0.00     0.030 H 
ATOM     32  H9  non d ame     -11.291  16.430  68.569  0.00  0.00     0.030 H 
ENDBRANCH  13  29
ENDBRANCH  10  13
ENDBRANCH   7   9
BRANCH   7  33
ATOM     33  C11 non d ame      -5.963  13.695  69.111  0.00  0.00    -0.033 C 
ATOM     34  H12 non d ame      -4.969  13.771  68.672  0.00  0.00     0.042 H 
BRANCH  33  35
ATOM     35  C12 non d ame      -6.248  15.033  69.862  0.00  0.00    -0.071 C 
ATOM     36  H13 non d ame      -5.769  15.856  69.333  0.00  0.00     0.028 H 
ATOM     37  H14 non d ame      -7.323  15.204  69.904  0.00  0.00     0.028 H 
ATOM     38  H15 non d ame      -5.849  14.971  70.874  0.00  0.00     0.028 H 
ENDBRANCH  33  35
BRANCH  33  39
ATOM     39  C13 non d ame      -5.965  12.482  70.096  0.00  0.00    -0.071 C 
ATOM     40  H16 non d ame      -6.659  12.678  70.912  0.00  0.00     0.028 H 
ATOM     41  H17 non d ame      -6.277  11.582  69.563  0.00  0.00     0.028 H 
ATOM     42  H18 non d ame      -4.962  12.337  70.497  0.00  0.00     0.028 H 
ENDBRANCH  33  39
ENDBRANCH   7  33
ENDBRANCH   4   7
ENDBRANCH   1   3
BRANCH   1  43
ATOM     43  C15 non d ame      -8.204   9.649  65.486  0.00  0.00     0.240 C 
ATOM     44  O5  non d ame      -9.037   8.810  65.372  0.00  0.00    -0.271 OA
ATOM     45  N6  non d ame      -7.983  10.628  64.383  0.00  0.00    -0.355 N 
ATOM     46  H46 non d ame      -7.280  11.348  64.470  0.00  0.00     0.162 HD
BRANCH  45  47
ATOM     47  C20 non d ame      -8.798  10.542  63.152  0.00  0.00     0.013 C 
ATOM     48  H30 non d ame      -9.323   9.587  63.164  0.00  0.00     0.072 H 
BRANCH  47  49
ATOM     49  C21 non d ame      -7.891  10.617  61.945  0.00  0.00    -0.038 C 
ATOM     50  H31 non d ame      -8.536  10.879  61.107  0.00  0.00     0.036 H 
ATOM     51  H32 non d ame      -7.073  11.278  62.232  0.00  0.00     0.036 H 
BRANCH  49  52
ATOM     52  C22 non d ame      -7.249   9.257  61.592  0.00  0.00     0.018 C 
ATOM     53  H33 non d ame      -8.029   8.512  61.753  0.00  0.00     0.048 H 
ATOM     54  H34 non d ame      -6.813   9.384  60.602  0.00  0.00     0.048 H 
BRANCH  52  55
ATOM     55  C23 non d ame      -6.075   8.856  62.529  0.00  0.00     0.259 C 
ATOM     56  O7  non d ame      -5.296   9.672  62.902  0.00  0.00    -0.265 OA
BRANCH  55  57
ATOM     57  O8  non d ame      -5.934   7.498  62.926  0.00  0.00    -0.317 OA
BRANCH  57  58
ATOM     58  C29 non d ame      -7.174   6.842  63.209  0.00  0.00     0.052 C 
ATOM     59  H47 non d ame      -7.858   7.629  63.524  0.00  0.00     0.082 H 
ATOM     60  H48 non d ame      -7.399   6.245  62.325  0.00  0.00     0.082 H 
BRANCH  58  61
ATOM     61  C35 non d ame      -6.944   5.881  64.405  0.00  0.00    -0.034 A 
ATOM     62  C30 non d ame      -8.029   5.395  65.128  0.00  0.00    -0.075 A 
ATOM     63  C31 non d ame      -7.823   4.531  66.203  0.00  0.00    -0.082 A 
ATOM     64  H49 non d ame      -9.042   5.690  64.851  0.00  0.00     0.084 H 
ATOM     65  C32 non d ame      -6.524   4.157  66.557  0.00  0.00    -0.083 A 
ATOM     66  H50 non d ame      -8.676   4.150  66.764  0.00  0.00     0.083 H 
ATOM     67  C33 non d ame      -5.443   4.647  65.835  0.00  0.00    -0.082 A 
ATOM     68  H51 non d ame      -6.354   3.481  67.395  0.00  0.00     0.083 H 
ATOM     69  C34 non d ame      -5.646   5.508  64.759  0.00  0.00    -0.075 A 
ATOM     70  H52 non d ame      -4.431   4.353  66.116  0.00  0.00     0.083 H 
ATOM     71  H53 non d ame      -4.792   5.888  64.197  0.00  0.00     0.084 H 
ENDBRANCH  58  61
ENDBRANCH  57  58
ENDBRANCH  55  57
ENDBRANCH  52  55
ENDBRANCH  49  52
ENDBRANCH  47  49
BRANCH  47  72
ATOM     72  C24 non d ame      -9.796  11.696  63.113  0.00  0.00    -0.039 C 
ATOM     73  H35 non d ame      -9.218  12.588  63.354  0.00  0.00     0.036 H 
ATOM     74  H36 non d ame     -10.294  11.617  62.146  0.00  0.00     0.036 H 
BRANCH  72  75
ATOM     75  C25 non d ame     -10.925  11.545  64.240  0.00  0.00    -0.001 C 
ATOM     76  C26 non d ame     -12.408  11.821  63.587  0.00  0.00    -0.035 C 
ATOM     77  C27 non d ame     -13.055  12.737  64.347  0.00  0.00     0.085 C 
ATOM     78  H38 non d ame     -12.306  12.316  62.622  0.00  0.00     0.036 H 
ATOM     79  H39 non d ame     -13.029  10.930  63.679  0.00  0.00     0.036 H 
ATOM     80  N5  non d ame     -12.027  13.352  65.267  0.00  0.00    -0.049 N 
ATOM     81  H40 non d ame     -13.408  13.498  63.649  0.00  0.00     0.075 H 
ATOM     82  H41 non d ame     -13.769  12.170  64.942  0.00  0.00     0.075 H 
ATOM     83  C28 non d ame     -10.739  12.382  65.205  0.00  0.00     0.193 C 
ATOM     84  H42 non d ame     -11.779  14.243  64.863  0.00  0.00     0.280 HD
ATOM     85  H43 non d ame     -12.416  13.310  66.198  0.00  0.00     0.280 HD
ATOM     86  H44 non d ame     -10.521  11.696  66.023  0.00  0.00     0.129 H 
ATOM     87  H37 non d ame     -10.802  10.633  64.825  0.00  0.00     0.046 H 
BRANCH  83  88
ATOM     88  O6  non d ame      -9.549  13.153  65.026  0.00  0.00    -0.369 OA
ATOM     89  H45 non d ame      -8.782  12.584  65.125  0.00  0.00     0.212 HD
ENDBRANCH  83  88
ENDBRANCH  72  75
ENDBRANCH  47  72
ENDBRANCH  45  47
ENDBRANCH   1  43
BRANCH   1  90
ATOM     90  C16 non d ame      -7.750   8.597  67.723  0.00  0.00    -0.035 C 
ATOM     91  H21 non d ame      -7.892   9.065  68.698  0.00  0.00     0.037 H 
ATOM     92  H22 non d ame      -8.583   8.094  67.233  0.00  0.00     0.037 H 
BRANCH  90  93
ATOM     93  C17 non d ame      -6.633   7.520  67.911  0.00  0.00    -0.059 C 
ATOM     94  H23 non d ame      -6.862   6.688  67.246  0.00  0.00     0.038 H 
BRANCH  93  95
ATOM     95  C18 non d ame      -5.220   8.063  67.525  0.00  0.00    -0.073 C 
ATOM     96  H24 non d ame      -4.629   8.212  68.429  0.00  0.00     0.028 H 
ATOM     97  H25 non d ame      -4.719   7.343  66.878  0.00  0.00     0.028 H 
ATOM     98  H26 non d ame      -5.327   9.012  66.999  0.00  0.00     0.028 H 
ENDBRANCH  93  95
BRANCH  93  99
ATOM     99  C19 non d ame      -6.635   6.973  69.341  0.00  0.00    -0.073 C 
ATOM    100  H27 non d ame      -7.375   7.512  69.935  0.00  0.00     0.028 H 
ATOM    101  H28 non d ame      -6.886   5.913  69.322  0.00  0.00     0.028 H 
ATOM    102  H29 non d ame      -5.647   7.105  69.782  0.00  0.00     0.028 H 
ENDBRANCH  93  99
ENDBRANCH  90  93
ENDBRANCH   1  90
TORSDOF 26
ENDMDL
MODEL 8
REMARK VINA RESULT:      -6.3      2.741      6.889
REMARK  26 active torsions:
REMARK  status: ('A' for Active; 'I' for Inactive)
REMARK    1  A    between atoms: C2_2  and  C3_3 
REMARK    2  A    between atoms: C4_6  and  C5_7 
REMARK       I    between atoms: C5_7  and  N2_9 
REMARK    3  A    between atoms: N2_9  and  C6_10 
REMARK    4  A    between atoms: C6_10  and  C7_11 
REMARK    5  A    between atoms: C6_10  and  C8_13 
REMARK       I    between atoms: C7_11  and  N3_14 
REMARK    6  A    between atoms: N3_14  and  C9_15 
REMARK    7  A    between atoms: C9_15  and  C10_16 
REMARK    8  A    between atoms: C9_15  and  C11_18 
REMARK       I    between atoms: C10_16  and  N4_21 
REMARK    9  A    between atoms: C11_18  and  C12_19 
REMARK   10  A    between atoms: C11_18  and  C13_20 
REMARK   11  A    between atoms: N4_21  and  C14_22 
REMARK   12  A    between atoms: C14_22  and  C15_23 
REMARK   13  A    between atoms: C14_22  and  C16_25 
REMARK       I    between atoms: C15_23  and  N6_40 
REMARK   14  A    between atoms: C16_25  and  C17_26 
REMARK   15  A    between atoms: C17_26  and  C18_27 
REMARK   16  A    between atoms: C17_26  and  C19_28 
REMARK   17  A    between atoms: C20_29  and  C21_30 
REMARK   18  A    between atoms: C20_29  and  C24_33 
REMARK   19  A    between atoms: C20_29  and  N6_40 
REMARK   20  A    between atoms: C21_30  and  C22_31 
REMARK   21  A    between atoms: C22_31  and  C23_32 
REMARK   22  A    between atoms: C23_32  and  O8_43 
REMARK   23  A    between atoms: C24_33  and  C25_34 
REMARK   24  A    between atoms: C28_38  and  O6_39 
REMARK   25  A    between atoms: C29_42  and  O8_43 
REMARK   26  A    between atoms: C29_42  and  C35_49 
ROOT
ATOM      1  C14 non d ame     -11.379  15.164  69.996  0.00  0.00     0.089 C 
ATOM      2  H20 non d ame     -10.561  14.778  70.606  0.00  0.00     0.087 H 
ENDROOT
BRANCH   1   3
ATOM      3  N4  non d ame     -10.993  16.489  69.535  0.00  0.00    -0.346 N 
ATOM      4  C10 non d ame      -9.624  16.723  68.947  0.00  0.00     0.241 C 
ATOM      5  O4  non d ame      -8.848  15.828  68.859  0.00  0.00    -0.271 OA
ATOM      6  H19 non d ame     -11.666  17.238  69.621  0.00  0.00     0.163 HD
BRANCH   4   7
ATOM      7  C9  non d ame      -9.243  18.099  68.470  0.00  0.00     0.092 C 
ATOM      8  H11 non d ame      -9.182  18.772  69.325  0.00  0.00     0.088 H 
BRANCH   7   9
ATOM      9  N3  non d ame      -7.910  18.054  67.860  0.00  0.00    -0.346 N 
ATOM     10  C7  non d ame      -6.828  18.814  68.435  0.00  0.00     0.240 C 
ATOM     11  O3  non d ame      -7.011  19.469  69.387  0.00  0.00    -0.271 OA
ATOM     12  H10 non d ame      -7.736  17.494  67.037  0.00  0.00     0.163 HD
BRANCH  10  13
ATOM     13  C6  non d ame      -5.413  18.764  67.779  0.00  0.00     0.086 C 
ATOM     14  H6  non d ame      -4.623  19.091  68.455  0.00  0.00     0.086 H 
BRANCH  13  15
ATOM     15  N2  non d ame      -5.109  17.389  67.419  0.00  0.00    -0.343 N 
ATOM     16  C5  non d ame      -4.510  16.498  68.414  0.00  0.00     0.273 C 
ATOM     17  O2  non d ame      -4.273  16.897  69.501  0.00  0.00    -0.266 OA
ATOM     18  H5  non d ame      -5.312  17.057  66.486  0.00  0.00     0.163 HD
BRANCH  16  19
ATOM     19  C4  non d ame      -4.184  15.042  68.047  0.00  0.00     0.154 A 
ATOM     20  C1  non d ame      -3.011  14.302  68.401  0.00  0.00    -0.017 A 
ATOM     21  C2  non d ame      -3.200  13.025  67.826  0.00  0.00     0.077 A 
ATOM     22  H1  non d ame      -2.155  14.639  68.986  0.00  0.00     0.091 H 
ATOM     23  O1  non d ame      -4.350  13.040  67.218  0.00  0.00    -0.218 OA
ATOM     24  N1  non d ame      -4.943  14.206  67.333  0.00  0.00    -0.123 NA
BRANCH  21  25
ATOM     25  C3  non d ame      -2.235  11.849  67.906  0.00  0.00    -0.029 C 
ATOM     26  H2  non d ame      -2.764  10.928  67.661  0.00  0.00     0.036 H 
ATOM     27  H3  non d ame      -1.420  12.000  67.200  0.00  0.00     0.036 H 
ATOM     28  H4  non d ame      -1.832  11.778  68.917  0.00  0.00     0.036 H 
ENDBRANCH  21  25
ENDBRANCH  16  19
ENDBRANCH  13  15
BRANCH  13  29
ATOM     29  C8  non d ame      -5.394  19.636  66.549  0.00  0.00    -0.049 C 
ATOM     30  H7  non d ame      -6.364  20.122  66.434  0.00  0.00     0.030 H 
ATOM     31  H8  non d ame      -4.618  20.394  66.652  0.00  0.00     0.030 H 
ATOM     32  H9  non d ame      -5.190  19.022  65.672  0.00  0.00     0.030 H 
ENDBRANCH  13  29
ENDBRANCH  10  13
ENDBRANCH   7   9
BRANCH   7  33
ATOM     33  C11 non d ame     -10.277  18.587  67.414  0.00  0.00    -0.033 C 
ATOM     34  H12 non d ame     -11.263  18.543  67.875  0.00  0.00     0.042 H 
BRANCH  33  35
ATOM     35  C12 non d ame     -10.016  20.070  67.004  0.00  0.00    -0.071 C 
ATOM     36  H13 non d ame      -9.308  20.520  67.700  0.00  0.00     0.028 H 
ATOM     37  H14 non d ame      -9.604  20.101  65.996  0.00  0.00     0.028 H 
ATOM     38  H15 non d ame     -10.953  20.624  67.032  0.00  0.00     0.028 H 
ENDBRANCH  33  35
BRANCH  33  39
ATOM     39  C13 non d ame     -10.286  17.648  66.165  0.00  0.00    -0.071 C 
ATOM     40  H16 non d ame      -9.947  16.654  66.455  0.00  0.00     0.028 H 
ATOM     41  H17 non d ame     -11.299  17.584  65.765  0.00  0.00     0.028 H 
ATOM     42  H18 non d ame      -9.620  18.052  65.402  0.00  0.00     0.028 H 
ENDBRANCH  33  39
ENDBRANCH   7  33
ENDBRANCH   4   7
ENDBRANCH   1   3
BRANCH   1  43
ATOM     43  C15 non d ame     -11.659  14.271  68.754  0.00  0.00     0.240 C 
ATOM     44  O5  non d ame     -12.517  14.572  67.990  0.00  0.00    -0.271 OA
ATOM     45  N6  non d ame     -10.849  13.042  68.512  0.00  0.00    -0.355 N 
ATOM     46  H46 non d ame     -10.114  12.779  69.152  0.00  0.00     0.162 HD
BRANCH  45  47
ATOM     47  C20 non d ame     -11.127  12.204  67.327  0.00  0.00     0.013 C 
ATOM     48  H30 non d ame     -12.088  12.510  66.916  0.00  0.00     0.072 H 
BRANCH  47  49
ATOM     49  C21 non d ame     -11.183  10.751  67.743  0.00  0.00    -0.038 C 
ATOM     50  H31 non d ame     -11.333  10.760  68.822  0.00  0.00     0.036 H 
ATOM     51  H32 non d ame     -11.925  10.287  67.093  0.00  0.00     0.036 H 
BRANCH  49  52
ATOM     52  C22 non d ame      -9.855  10.004  67.493  0.00  0.00     0.018 C 
ATOM     53  H33 non d ame     -10.083   9.234  66.755  0.00  0.00     0.048 H 
ATOM     54  H34 non d ame      -9.120  10.776  67.265  0.00  0.00     0.048 H 
BRANCH  52  55
ATOM     55  C23 non d ame      -9.314   9.253  68.742  0.00  0.00     0.259 C 
ATOM     56  O7  non d ame      -8.897   8.144  68.644  0.00  0.00    -0.265 OA
BRANCH  55  57
ATOM     57  O8  non d ame      -9.335   9.901  70.008  0.00  0.00    -0.317 OA
BRANCH  57  58
ATOM     58  C29 non d ame      -9.570   9.018  71.109  0.00  0.00     0.052 C 
ATOM     59  H47 non d ame      -9.174   8.051  70.801  0.00  0.00     0.082 H 
ATOM     60  H48 non d ame      -9.160   9.522  71.983  0.00  0.00     0.082 H 
BRANCH  58  61
ATOM     61  C35 non d ame     -11.105   8.885  71.295  0.00  0.00    -0.034 A 
ATOM     62  C30 non d ame     -11.903  10.023  71.348  0.00  0.00    -0.075 A 
ATOM     63  C31 non d ame     -13.282   9.902  71.515  0.00  0.00    -0.082 A 
ATOM     64  H49 non d ame     -11.448  11.009  71.256  0.00  0.00     0.084 H 
ATOM     65  C32 non d ame     -13.862   8.637  71.634  0.00  0.00    -0.083 A 
ATOM     66  H50 non d ame     -13.904  10.797  71.552  0.00  0.00     0.083 H 
ATOM     67  C33 non d ame     -13.062   7.503  71.585  0.00  0.00    -0.082 A 
ATOM     68  H51 non d ame     -14.939   8.534  71.764  0.00  0.00     0.083 H 
ATOM     69  C34 non d ame     -11.684   7.620  71.415  0.00  0.00    -0.075 A 
ATOM     70  H52 non d ame     -13.518   6.517  71.680  0.00  0.00     0.083 H 
ATOM     71  H53 non d ame     -11.062   6.724  71.377  0.00  0.00     0.084 H 
ENDBRANCH  58  61
ENDBRANCH  57  58
ENDBRANCH  55  57
ENDBRANCH  52  55
ENDBRANCH  49  52
ENDBRANCH  47  49
BRANCH  47  72
ATOM     72  C24 non d ame     -10.022  12.394  66.290  0.00  0.00    -0.039 C 
ATOM     73  H35 non d ame      -9.399  13.202  66.675  0.00  0.00     0.036 H 
ATOM     74  H36 non d ame      -9.594  11.404  66.136  0.00  0.00     0.036 H 
BRANCH  72  75
ATOM     75  C25 non d ame     -10.608  12.881  64.880  0.00  0.00    -0.001 C 
ATOM     76  C26 non d ame     -12.236  12.654  64.843  0.00  0.00    -0.035 C 
ATOM     77  C27 non d ame     -12.556  11.975  63.715  0.00  0.00     0.085 C 
ATOM     78  H38 non d ame     -12.538  11.977  65.642  0.00  0.00     0.036 H 
ATOM     79  H39 non d ame     -12.744  13.610  64.718  0.00  0.00     0.036 H 
ATOM     80  N5  non d ame     -11.266  11.433  63.146  0.00  0.00    -0.049 N 
ATOM     81  H40 non d ame     -13.177  11.141  64.044  0.00  0.00     0.075 H 
ATOM     82  H41 non d ame     -12.960  12.720  63.032  0.00  0.00     0.075 H 
ATOM     83  C28 non d ame     -10.080  12.225  63.902  0.00  0.00     0.193 C 
ATOM     84  H42 non d ame     -11.224  10.460  63.410  0.00  0.00     0.280 HD
ATOM     85  H43 non d ame     -11.254  11.693  62.170  0.00  0.00     0.280 HD
ATOM     86  H44 non d ame      -9.536  13.023  63.397  0.00  0.00     0.129 H 
ATOM     87  H37 non d ame     -10.238  13.867  64.598  0.00  0.00     0.046 H 
BRANCH  83  88
ATOM     88  O6  non d ame      -9.080  11.306  64.347  0.00  0.00    -0.369 OA
ATOM     89  H45 non d ame      -8.288  11.790  64.592  0.00  0.00     0.212 HD
ENDBRANCH  83  88
ENDBRANCH  72  75
ENDBRANCH  47  72
ENDBRANCH  45  47
ENDBRANCH   1  43
BRANCH   1  90
ATOM     90  C16 non d ame     -12.639  15.279  70.838  0.00  0.00    -0.035 C 
ATOM     91  H21 non d ame     -12.687  16.325  71.145  0.00  0.00     0.037 H 
ATOM     92  H22 non d ame     -13.435  14.854  70.227  0.00  0.00     0.037 H 
BRANCH  90  93
ATOM     93  C17 non d ame     -12.594  14.437  72.152  0.00  0.00    -0.059 C 
ATOM     94  H23 non d ame     -11.713  13.797  72.105  0.00  0.00     0.038 H 
BRANCH  93  95
ATOM     95  C18 non d ame     -12.463  15.334  73.424  0.00  0.00    -0.073 C 
ATOM     96  H24 non d ame     -11.445  15.275  73.807  0.00  0.00     0.028 H 
ATOM     97  H25 non d ame     -12.695  16.367  73.165  0.00  0.00     0.028 H 
ATOM     98  H26 non d ame     -13.160  14.987  74.187  0.00  0.00     0.028 H 
ENDBRANCH  93  95
BRANCH  93  99
ATOM     99  C19 non d ame     -13.816  13.519  72.257  0.00  0.00    -0.073 C 
ATOM    100  H27 non d ame     -14.127  13.215  71.257  0.00  0.00     0.028 H 
ATOM    101  H28 non d ame     -13.557  12.637  72.842  0.00  0.00     0.028 H 
ATOM    102  H29 non d ame     -14.631  14.052  72.746  0.00  0.00     0.028 H 
ENDBRANCH  93  99
ENDBRANCH  90  93
ENDBRANCH   1  90
TORSDOF 26
ENDMDL
MODEL 9
REMARK VINA RESULT:      -6.0      3.919      9.450
REMARK  26 active torsions:
REMARK  status: ('A' for Active; 'I' for Inactive)
REMARK    1  A    between atoms: C2_2  and  C3_3 
REMARK    2  A    between atoms: C4_6  and  C5_7 
REMARK       I    between atoms: C5_7  and  N2_9 
REMARK    3  A    between atoms: N2_9  and  C6_10 
REMARK    4  A    between atoms: C6_10  and  C7_11 
REMARK    5  A    between atoms: C6_10  and  C8_13 
REMARK       I    between atoms: C7_11  and  N3_14 
REMARK    6  A    between atoms: N3_14  and  C9_15 
REMARK    7  A    between atoms: C9_15  and  C10_16 
REMARK    8  A    between atoms: C9_15  and  C11_18 
REMARK       I    between atoms: C10_16  and  N4_21 
REMARK    9  A    between atoms: C11_18  and  C12_19 
REMARK   10  A    between atoms: C11_18  and  C13_20 
REMARK   11  A    between atoms: N4_21  and  C14_22 
REMARK   12  A    between atoms: C14_22  and  C15_23 
REMARK   13  A    between atoms: C14_22  and  C16_25 
REMARK       I    between atoms: C15_23  and  N6_40 
REMARK   14  A    between atoms: C16_25  and  C17_26 
REMARK   15  A    between atoms: C17_26  and  C18_27 
REMARK   16  A    between atoms: C17_26  and  C19_28 
REMARK   17  A    between atoms: C20_29  and  C21_30 
REMARK   18  A    between atoms: C20_29  and  C24_33 
REMARK   19  A    between atoms: C20_29  and  N6_40 
REMARK   20  A    between atoms: C21_30  and  C22_31 
REMARK   21  A    between atoms: C22_31  and  C23_32 
REMARK   22  A    between atoms: C23_32  and  O8_43 
REMARK   23  A    between atoms: C24_33  and  C25_34 
REMARK   24  A    between atoms: C28_38  and  O6_39 
REMARK   25  A    between atoms: C29_42  and  O8_43 
REMARK   26  A    between atoms: C29_42  and  C35_49 
ROOT
ATOM      1  C14 non d ame     -10.091   8.273  67.149  0.00  0.00     0.089 C 
ATOM      2  H20 non d ame      -9.199   8.079  67.746  0.00  0.00     0.087 H 
ENDROOT
BRANCH   1   3
ATOM      3  N4  non d ame     -10.918   9.214  67.889  0.00  0.00    -0.346 N 
ATOM      4  C10 non d ame     -10.319  10.050  68.993  0.00  0.00     0.241 C 
ATOM      5  O4  non d ame      -9.169   9.944  69.269  0.00  0.00    -0.271 OA
ATOM      6  H19 non d ame     -11.894   9.288  67.641  0.00  0.00     0.163 HD
BRANCH   4   7
ATOM      7  C9  non d ame     -11.187  11.023  69.746  0.00  0.00     0.092 C 
ATOM      8  H11 non d ame     -10.561  11.640  70.390  0.00  0.00     0.088 H 
BRANCH   7   9
ATOM      9  N3  non d ame     -11.851  11.922  68.797  0.00  0.00    -0.346 N 
ATOM     10  C7  non d ame     -11.142  13.060  68.266  0.00  0.00     0.240 C 
ATOM     11  O3  non d ame     -10.037  13.269  68.592  0.00  0.00    -0.271 OA
ATOM     12  H10 non d ame     -12.804  11.756  68.506  0.00  0.00     0.163 HD
BRANCH  10  13
ATOM     13  C6  non d ame     -11.854  14.015  67.258  0.00  0.00     0.086 C 
ATOM     14  H6  non d ame     -12.697  14.545  67.703  0.00  0.00     0.086 H 
BRANCH  13  15
ATOM     15  N2  non d ame     -10.909  15.030  66.822  0.00  0.00    -0.343 N 
ATOM     16  C5  non d ame     -10.858  16.317  67.519  0.00  0.00     0.273 C 
ATOM     17  O2  non d ame     -11.584  16.527  68.427  0.00  0.00    -0.266 OA
ATOM     18  H5  non d ame     -10.294  14.842  66.042  0.00  0.00     0.163 HD
BRANCH  16  19
ATOM     19  C4  non d ame      -9.863  17.397  67.068  0.00  0.00     0.154 A 
ATOM     20  C1  non d ame      -9.322  18.459  67.860  0.00  0.00    -0.017 A 
ATOM     21  C2  non d ame      -8.466  19.165  66.986  0.00  0.00     0.077 A 
ATOM     22  H1  non d ame      -9.520  18.683  68.909  0.00  0.00     0.091 H 
ATOM     23  O1  non d ame      -8.515  18.569  65.831  0.00  0.00    -0.218 OA
ATOM     24  N1  non d ame      -9.324  17.534  65.854  0.00  0.00    -0.123 NA
BRANCH  21  25
ATOM     25  C3  non d ame      -7.637  20.394  67.334  0.00  0.00    -0.029 C 
ATOM     26  H2  non d ame      -7.551  20.481  68.417  0.00  0.00     0.036 H 
ATOM     27  H3  non d ame      -6.644  20.299  66.897  0.00  0.00     0.036 H 
ATOM     28  H4  non d ame      -8.125  21.286  66.936  0.00  0.00     0.036 H 
ENDBRANCH  21  25
ENDBRANCH  16  19
ENDBRANCH  13  15
BRANCH  13  29
ATOM     29  C8  non d ame     -12.346  13.224  66.074  0.00  0.00    -0.049 C 
ATOM     30  H7  non d ame     -12.811  12.301  66.421  0.00  0.00     0.030 H 
ATOM     31  H8  non d ame     -13.077  13.813  65.520  0.00  0.00     0.030 H 
ATOM     32  H9  non d ame     -11.505  12.983  65.423  0.00  0.00     0.030 H 
ENDBRANCH  13  29
ENDBRANCH  10  13
ENDBRANCH   7   9
BRANCH   7  33
ATOM     33  C11 non d ame     -12.263  10.240  70.554  0.00  0.00    -0.033 C 
ATOM     34  H12 non d ame     -12.940   9.777  69.837  0.00  0.00     0.042 H 
BRANCH  33  35
ATOM     35  C12 non d ame     -11.620   9.096  71.398  0.00  0.00    -0.071 C 
ATOM     36  H13 non d ame     -12.331   8.754  72.149  0.00  0.00     0.028 H 
ATOM     37  H14 non d ame     -11.356   8.266  70.743  0.00  0.00     0.028 H 
ATOM     38  H15 non d ame     -10.724   9.470  71.891  0.00  0.00     0.028 H 
ENDBRANCH  33  35
BRANCH  33  39
ATOM     39  C13 non d ame     -13.099  11.205  71.454  0.00  0.00    -0.071 C 
ATOM     40  H16 non d ame     -13.052  12.214  71.046  0.00  0.00     0.028 H 
ATOM     41  H17 non d ame     -14.137  10.871  71.479  0.00  0.00     0.028 H 
ATOM     42  H18 non d ame     -12.693  11.203  72.465  0.00  0.00     0.028 H 
ENDBRANCH  33  39
ENDBRANCH   7  33
ENDBRANCH   4   7
ENDBRANCH   1   3
BRANCH   1  43
ATOM     43  C15 non d ame      -9.747   8.898  65.767  0.00  0.00     0.240 C 
ATOM     44  O5  non d ame     -10.201   9.954  65.465  0.00  0.00    -0.271 OA
ATOM     45  N6  non d ame      -8.842   8.184  64.821  0.00  0.00    -0.355 N 
ATOM     46  H46 non d ame      -8.447   7.288  65.068  0.00  0.00     0.162 HD
BRANCH  45  47
ATOM     47  C20 non d ame      -8.524   8.791  63.511  0.00  0.00     0.013 C 
ATOM     48  H30 non d ame      -9.458   9.133  63.064  0.00  0.00     0.072 H 
BRANCH  47  49
ATOM     49  C21 non d ame      -7.876   7.754  62.622  0.00  0.00    -0.038 C 
ATOM     50  H31 non d ame      -8.485   7.718  61.720  0.00  0.00     0.036 H 
ATOM     51  H32 non d ame      -6.824   8.036  62.560  0.00  0.00     0.036 H 
BRANCH  49  52
ATOM     52  C22 non d ame      -7.912   6.336  63.232  0.00  0.00     0.018 C 
ATOM     53  H33 non d ame      -8.536   6.413  64.123  0.00  0.00     0.048 H 
ATOM     54  H34 non d ame      -8.205   5.672  62.419  0.00  0.00     0.048 H 
BRANCH  52  55
ATOM     55  C23 non d ame      -6.527   5.829  63.722  0.00  0.00     0.259 C 
ATOM     56  O7  non d ame      -5.605   5.776  62.974  0.00  0.00    -0.265 OA
BRANCH  55  57
ATOM     57  O8  non d ame      -6.376   5.414  65.074  0.00  0.00    -0.317 OA
BRANCH  57  58
ATOM     58  C29 non d ame      -5.016   5.222  65.475  0.00  0.00     0.052 C 
ATOM     59  H47 non d ame      -4.422   5.344  64.570  0.00  0.00     0.082 H 
ATOM     60  H48 non d ame      -4.862   5.890  66.322  0.00  0.00     0.082 H 
BRANCH  58  61
ATOM     61  C35 non d ame      -4.865   3.759  65.969  0.00  0.00    -0.034 A 
ATOM     62  C30 non d ame      -3.856   2.950  65.456  0.00  0.00    -0.075 A 
ATOM     63  C31 non d ame      -3.721   1.635  65.901  0.00  0.00    -0.082 A 
ATOM     64  H49 non d ame      -3.171   3.346  64.707  0.00  0.00     0.084 H 
ATOM     65  C32 non d ame      -4.603   1.129  66.860  0.00  0.00    -0.083 A 
ATOM     66  H50 non d ame      -2.928   1.005  65.499  0.00  0.00     0.083 H 
ATOM     67  C33 non d ame      -5.611   1.939  67.367  0.00  0.00    -0.082 A 
ATOM     68  H51 non d ame      -4.503   0.103  67.214  0.00  0.00     0.083 H 
ATOM     69  C34 non d ame      -5.747   3.254  66.927  0.00  0.00    -0.075 A 
ATOM     70  H52 non d ame      -6.297   1.540  68.114  0.00  0.00     0.083 H 
ATOM     71  H53 non d ame      -6.541   3.884  67.331  0.00  0.00     0.084 H 
ENDBRANCH  58  61
ENDBRANCH  57  58
ENDBRANCH  55  57
ENDBRANCH  52  55
ENDBRANCH  49  52
ENDBRANCH  47  49
BRANCH  47  72
ATOM     72  C24 non d ame      -7.568   9.966  63.706  0.00  0.00    -0.039 C 
ATOM     73  H35 non d ame      -7.636  10.550  62.788  0.00  0.00     0.036 H 
ATOM     74  H36 non d ame      -7.851  10.416  64.658  0.00  0.00     0.036 H 
BRANCH  72  75
ATOM     75  C25 non d ame      -6.049   9.479  63.846  0.00  0.00    -0.001 C 
ATOM     76  C26 non d ame      -5.608   9.468  65.430  0.00  0.00    -0.035 C 
ATOM     77  C27 non d ame      -4.448  10.154  65.564  0.00  0.00     0.085 C 
ATOM     78  H38 non d ame      -6.317  10.048  66.019  0.00  0.00     0.036 H 
ATOM     79  H39 non d ame      -5.343   8.457  65.737  0.00  0.00     0.036 H 
ATOM     80  N5  non d ame      -4.230  10.909  64.274  0.00  0.00    -0.049 N 
ATOM     81  H40 non d ame      -4.624  10.870  66.368  0.00  0.00     0.075 H 
ATOM     82  H41 non d ame      -3.672   9.397  65.668  0.00  0.00     0.075 H 
ATOM     83  C28 non d ame      -5.246  10.258  63.201  0.00  0.00     0.193 C 
ATOM     84  H42 non d ame      -4.512  11.862  64.448  0.00  0.00     0.280 HD
ATOM     85  H43 non d ame      -3.284  10.708  63.982  0.00  0.00     0.280 HD
ATOM     86  H44 non d ame      -4.880   9.576  62.434  0.00  0.00     0.129 H 
ATOM     87  H37 non d ame      -5.852   8.574  63.270  0.00  0.00     0.046 H 
BRANCH  83  88
ATOM     88  O6  non d ame      -5.944  11.286  62.496  0.00  0.00    -0.369 OA
ATOM     89  H45 non d ame      -6.573  11.707  63.086  0.00  0.00     0.212 HD
ENDBRANCH  83  88
ENDBRANCH  72  75
ENDBRANCH  47  72
ENDBRANCH  45  47
ENDBRANCH   1  43
BRANCH   1  90
ATOM     90  C16 non d ame     -10.867   6.983  66.947  0.00  0.00    -0.035 C 
ATOM     91  H21 non d ame     -11.880   7.199  67.290  0.00  0.00     0.037 H 
ATOM     92  H22 non d ame     -10.693   6.699  65.910  0.00  0.00     0.037 H 
BRANCH  90  93
ATOM     93  C17 non d ame     -10.350   5.796  67.822  0.00  0.00    -0.059 C 
ATOM     94  H23 non d ame     -10.808   4.883  67.443  0.00  0.00     0.038 H 
BRANCH  93  95
ATOM     95  C18 non d ame      -8.800   5.627  67.728  0.00  0.00    -0.073 C 
ATOM     96  H24 non d ame      -8.532   4.598  67.967  0.00  0.00     0.028 H 
ATOM     97  H25 non d ame      -8.470   5.863  66.717  0.00  0.00     0.028 H 
ATOM     98  H26 non d ame      -8.318   6.303  68.435  0.00  0.00     0.028 H 
ENDBRANCH  93  95
BRANCH  93  99
ATOM     99  C19 non d ame     -10.794   5.956  69.279  0.00  0.00    -0.073 C 
ATOM    100  H27 non d ame     -10.739   4.990  69.782  0.00  0.00     0.028 H 
ATOM    101  H28 non d ame     -10.137   6.666  69.781  0.00  0.00     0.028 H 
ATOM    102  H29 non d ame     -11.818   6.326  69.308  0.00  0.00     0.028 H 
ENDBRANCH  93  99
ENDBRANCH  90  93
ENDBRANCH   1  90
TORSDOF 26
ENDMDL
MODEL 10
REMARK VINA RESULT:      -6.0      3.401      8.107
REMARK  26 active torsions:
REMARK  status: ('A' for Active; 'I' for Inactive)
REMARK    1  A    between atoms: C2_2  and  C3_3 
REMARK    2  A    between atoms: C4_6  and  C5_7 
REMARK       I    between atoms: C5_7  and  N2_9 
REMARK    3  A    between atoms: N2_9  and  C6_10 
REMARK    4  A    between atoms: C6_10  and  C7_11 
REMARK    5  A    between atoms: C6_10  and  C8_13 
REMARK       I    between atoms: C7_11  and  N3_14 
REMARK    6  A    between atoms: N3_14  and  C9_15 
REMARK    7  A    between atoms: C9_15  and  C10_16 
REMARK    8  A    between atoms: C9_15  and  C11_18 
REMARK       I    between atoms: C10_16  and  N4_21 
REMARK    9  A    between atoms: C11_18  and  C12_19 
REMARK   10  A    between atoms: C11_18  and  C13_20 
REMARK   11  A    between atoms: N4_21  and  C14_22 
REMARK   12  A    between atoms: C14_22  and  C15_23 
REMARK   13  A    between atoms: C14_22  and  C16_25 
REMARK       I    between atoms: C15_23  and  N6_40 
REMARK   14  A    between atoms: C16_25  and  C17_26 
REMARK   15  A    between atoms: C17_26  and  C18_27 
REMARK   16  A    between atoms: C17_26  and  C19_28 
REMARK   17  A    between atoms: C20_29  and  C21_30 
REMARK   18  A    between atoms: C20_29  and  C24_33 
REMARK   19  A    between atoms: C20_29  and  N6_40 
REMARK   20  A    between atoms: C21_30  and  C22_31 
REMARK   21  A    between atoms: C22_31  and  C23_32 
REMARK   22  A    between atoms: C23_32  and  O8_43 
REMARK   23  A    between atoms: C24_33  and  C25_34 
REMARK   24  A    between atoms: C28_38  and  O6_39 
REMARK   25  A    between atoms: C29_42  and  O8_43 
REMARK   26  A    between atoms: C29_42  and  C35_49 
ROOT
ATOM      1  C14 non d ame      -8.287  10.738  66.556  0.00  0.00     0.089 C 
ATOM      2  H20 non d ame      -9.358  10.880  66.409  0.00  0.00     0.087 H 
ENDROOT
BRANCH   1   3
ATOM      3  N4  non d ame      -7.676  12.057  66.625  0.00  0.00    -0.346 N 
ATOM      4  C10 non d ame      -8.438  13.220  67.209  0.00  0.00     0.241 C 
ATOM      5  O4  non d ame      -9.544  13.070  67.615  0.00  0.00    -0.271 OA
ATOM      6  H19 non d ame      -6.735  12.165  66.272  0.00  0.00     0.163 HD
BRANCH   4   7
ATOM      7  C9  non d ame      -7.789  14.577  67.277  0.00  0.00     0.092 C 
ATOM      8  H11 non d ame      -7.563  14.918  66.267  0.00  0.00     0.088 H 
BRANCH   7   9
ATOM      9  N3  non d ame      -8.730  15.541  67.858  0.00  0.00    -0.346 N 
ATOM     10  C7  non d ame      -9.414  16.482  67.007  0.00  0.00     0.240 C 
ATOM     11  O3  non d ame      -9.221  16.480  65.853  0.00  0.00    -0.271 OA
ATOM     12  H10 non d ame      -8.907  15.556  68.852  0.00  0.00     0.163 HD
BRANCH  10  13
ATOM     13  C6  non d ame     -10.412  17.507  67.632  0.00  0.00     0.086 C 
ATOM     14  H6  non d ame     -11.344  17.583  67.073  0.00  0.00     0.086 H 
BRANCH  13  15
ATOM     15  N2  non d ame     -10.765  17.065  68.971  0.00  0.00    -0.343 N 
ATOM     16  C5  non d ame     -11.608  15.879  69.141  0.00  0.00     0.273 C 
ATOM     17  O2  non d ame     -11.999  15.290  68.194  0.00  0.00    -0.266 OA
ATOM     18  H5  non d ame     -10.428  17.576  69.775  0.00  0.00     0.163 HD
BRANCH  16  19
ATOM     19  C4  non d ame     -11.987  15.400  70.551  0.00  0.00     0.154 A 
ATOM     20  C1  non d ame     -11.828  16.116  71.780  0.00  0.00    -0.017 A 
ATOM     21  C2  non d ame     -12.327  15.246  72.774  0.00  0.00     0.077 A 
ATOM     22  H1  non d ame     -11.415  17.114  71.927  0.00  0.00     0.091 H 
ATOM     23  O1  non d ame     -12.725  14.162  72.176  0.00  0.00    -0.218 OA
ATOM     24  N1  non d ame     -12.537  14.228  70.878  0.00  0.00    -0.123 NA
BRANCH  21  25
ATOM     25  C3  non d ame     -12.388  15.528  74.270  0.00  0.00    -0.029 C 
ATOM     26  H2  non d ame     -11.521  16.119  74.564  0.00  0.00     0.036 H 
ATOM     27  H3  non d ame     -13.299  16.080  74.498  0.00  0.00     0.036 H 
ATOM     28  H4  non d ame     -12.388  14.585  74.818  0.00  0.00     0.036 H 
ENDBRANCH  21  25
ENDBRANCH  16  19
ENDBRANCH  13  15
BRANCH  13  29
ATOM     29  C8  non d ame      -9.767  18.868  67.691  0.00  0.00    -0.049 C 
ATOM     30  H7  non d ame     -10.504  19.606  68.010  0.00  0.00     0.030 H 
ATOM     31  H8  non d ame      -8.941  18.850  68.401  0.00  0.00     0.030 H 
ATOM     32  H9  non d ame      -9.392  19.136  66.703  0.00  0.00     0.030 H 
ENDBRANCH  13  29
ENDBRANCH  10  13
ENDBRANCH   7   9
BRANCH   7  33
ATOM     33  C11 non d ame      -6.515  14.499  68.168  0.00  0.00    -0.033 C 
ATOM     34  H12 non d ame      -6.038  13.539  67.975  0.00  0.00     0.042 H 
BRANCH  33  35
ATOM     35  C12 non d ame      -5.491  15.616  67.795  0.00  0.00    -0.071 C 
ATOM     36  H13 non d ame      -4.532  15.402  68.267  0.00  0.00     0.028 H 
ATOM     37  H14 non d ame      -5.365  15.647  66.714  0.00  0.00     0.028 H 
ATOM     38  H15 non d ame      -5.861  16.578  68.147  0.00  0.00     0.028 H 
ENDBRANCH  33  35
BRANCH  33  39
ATOM     39  C13 non d ame      -6.888  14.557  69.684  0.00  0.00    -0.071 C 
ATOM     40  H16 non d ame      -7.972  14.580  69.791  0.00  0.00     0.028 H 
ATOM     41  H17 non d ame      -6.492  13.675  70.190  0.00  0.00     0.028 H 
ATOM     42  H18 non d ame      -6.459  15.454  70.130  0.00  0.00     0.028 H 
ENDBRANCH  33  39
ENDBRANCH   7  33
ENDBRANCH   4   7
ENDBRANCH   1   3
BRANCH   1  43
ATOM     43  C15 non d ame      -7.970   9.977  67.875  0.00  0.00     0.240 C 
ATOM     44  O5  non d ame      -6.844   9.862  68.236  0.00  0.00    -0.271 OA
ATOM     45  N6  non d ame      -9.074   9.400  68.695  0.00  0.00    -0.355 N 
ATOM     46  H46 non d ame     -10.035   9.495  68.401  0.00  0.00     0.162 HD
BRANCH  45  47
ATOM     47  C20 non d ame      -8.756   8.680  69.947  0.00  0.00     0.013 C 
ATOM     48  H30 non d ame      -7.718   8.891  70.202  0.00  0.00     0.072 H 
BRANCH  47  49
ATOM     49  C21 non d ame      -8.943   7.195  69.732  0.00  0.00    -0.038 C 
ATOM     50  H31 non d ame      -7.945   6.762  69.790  0.00  0.00     0.036 H 
ATOM     51  H32 non d ame      -9.712   6.889  70.442  0.00  0.00     0.036 H 
BRANCH  49  52
ATOM     52  C22 non d ame      -9.486   6.857  68.327  0.00  0.00     0.018 C 
ATOM     53  H33 non d ame     -10.310   7.550  68.153  0.00  0.00     0.048 H 
ATOM     54  H34 non d ame      -8.620   6.865  67.666  0.00  0.00     0.048 H 
BRANCH  52  55
ATOM     55  C23 non d ame     -10.097   5.432  68.217  0.00  0.00     0.259 C 
ATOM     56  O7  non d ame     -10.330   4.800  69.195  0.00  0.00    -0.265 OA
BRANCH  55  57
ATOM     57  O8  non d ame     -10.361   4.885  66.931  0.00  0.00    -0.317 OA
BRANCH  57  58
ATOM     58  C29 non d ame      -9.348   3.992  66.459  0.00  0.00     0.052 C 
ATOM     59  H47 non d ame      -8.732   3.760  67.327  0.00  0.00     0.082 H 
ATOM     60  H48 non d ame      -9.877   3.195  65.938  0.00  0.00     0.082 H 
BRANCH  58  61
ATOM     61  C35 non d ame      -8.477   4.758  65.428  0.00  0.00    -0.034 A 
ATOM     62  C30 non d ame      -7.196   5.178  65.772  0.00  0.00    -0.075 A 
ATOM     63  C31 non d ame      -6.414   5.866  64.845  0.00  0.00    -0.082 A 
ATOM     64  H49 non d ame      -6.804   4.966  66.767  0.00  0.00     0.084 H 
ATOM     65  C32 non d ame      -6.920   6.138  63.571  0.00  0.00    -0.083 A 
ATOM     66  H50 non d ame      -5.410   6.190  65.117  0.00  0.00     0.083 H 
ATOM     67  C33 non d ame      -8.201   5.721  63.234  0.00  0.00    -0.082 A 
ATOM     68  H51 non d ame      -6.315   6.675  62.840  0.00  0.00     0.083 H 
ATOM     69  C34 non d ame      -8.984   5.031  64.156  0.00  0.00    -0.075 A 
ATOM     70  H52 non d ame      -8.593   5.937  62.239  0.00  0.00     0.083 H 
ATOM     71  H53 non d ame      -9.989   4.706  63.883  0.00  0.00     0.084 H 
ENDBRANCH  58  61
ENDBRANCH  57  58
ENDBRANCH  55  57
ENDBRANCH  52  55
ENDBRANCH  49  52
ENDBRANCH  47  49
BRANCH  47  72
ATOM     72  C24 non d ame      -9.684   9.155  71.064  0.00  0.00    -0.039 C 
ATOM     73  H35 non d ame      -9.525   8.458  71.888  0.00  0.00     0.036 H 
ATOM     74  H36 non d ame      -9.461  10.214  71.197  0.00  0.00     0.036 H 
BRANCH  72  75
ATOM     75  C25 non d ame     -11.226   9.045  70.642  0.00  0.00    -0.001 C 
ATOM     76  C26 non d ame     -11.884  10.548  70.535  0.00  0.00    -0.035 C 
ATOM     77  C27 non d ame     -13.025  10.577  71.265  0.00  0.00     0.085 C 
ATOM     78  H38 non d ame     -11.243  11.274  71.033  0.00  0.00     0.036 H 
ATOM     79  H39 non d ame     -12.229  10.733  69.517  0.00  0.00     0.036 H 
ATOM     80  N5  non d ame     -13.031   9.335  72.124  0.00  0.00    -0.049 N 
ATOM     81  H40 non d ame     -12.936  11.453  71.908  0.00  0.00     0.075 H 
ATOM     82  H41 non d ame     -13.836  10.512  70.541  0.00  0.00     0.075 H 
ATOM     83  C28 non d ame     -11.900   8.362  71.506  0.00  0.00     0.193 C 
ATOM     84  H42 non d ame     -12.739   9.623  73.046  0.00  0.00     0.280 HD
ATOM     85  H43 non d ame     -13.934   8.901  71.992  0.00  0.00     0.280 HD
ATOM     86  H44 non d ame     -12.180   7.500  70.902  0.00  0.00     0.129 H 
ATOM     87  H37 non d ame     -11.374   8.376  69.794  0.00  0.00     0.046 H 
BRANCH  83  88
ATOM     88  O6  non d ame     -11.072   7.845  72.549  0.00  0.00    -0.369 OA
ATOM     89  H45 non d ame     -10.273   8.374  72.614  0.00  0.00     0.212 HD
ENDBRANCH  83  88
ENDBRANCH  72  75
ENDBRANCH  47  72
ENDBRANCH  45  47
ENDBRANCH   1  43
BRANCH   1  90
ATOM     90  C16 non d ame      -7.701   9.981  65.376  0.00  0.00    -0.035 C 
ATOM     91  H21 non d ame      -7.086  10.708  64.843  0.00  0.00     0.037 H 
ATOM     92  H22 non d ame      -7.243   9.089  65.803  0.00  0.00     0.037 H 
BRANCH  90  93
ATOM     93  C17 non d ame      -8.774   9.481  64.357  0.00  0.00    -0.059 C 
ATOM     94  H23 non d ame      -8.993   8.440  64.592  0.00  0.00     0.038 H 
BRANCH  93  95
ATOM     95  C18 non d ame     -10.109  10.285  64.464  0.00  0.00    -0.073 C 
ATOM     96  H24 non d ame      -9.902  11.349  64.343  0.00  0.00     0.028 H 
ATOM     97  H25 non d ame     -10.794   9.957  63.682  0.00  0.00     0.028 H 
ATOM     98  H26 non d ame     -10.561  10.110  65.440  0.00  0.00     0.028 H 
ENDBRANCH  93  95
BRANCH  93  99
ATOM     99  C19 non d ame      -8.229   9.518  62.926  0.00  0.00    -0.073 C 
ATOM    100  H27 non d ame      -7.964   8.507  62.613  0.00  0.00     0.028 H 
ATOM    101  H28 non d ame      -8.992   9.918  62.258  0.00  0.00     0.028 H 
ATOM    102  H29 non d ame      -7.345  10.154  62.890  0.00  0.00     0.028 H 
ENDBRANCH  93  99
ENDBRANCH  90  93
ENDBRANCH   1  90
TORSDOF 26
ENDMDL
MODEL 11
REMARK VINA RESULT:      -5.9      1.912      3.936
REMARK  26 active torsions:
REMARK  status: ('A' for Active; 'I' for Inactive)
REMARK    1  A    between atoms: C2_2  and  C3_3 
REMARK    2  A    between atoms: C4_6  and  C5_7 
REMARK       I    between atoms: C5_7  and  N2_9 
REMARK    3  A    between atoms: N2_9  and  C6_10 
REMARK    4  A    between atoms: C6_10  and  C7_11 
REMARK    5  A    between atoms: C6_10  and  C8_13 
REMARK       I    between atoms: C7_11  and  N3_14 
REMARK    6  A    between atoms: N3_14  and  C9_15 
REMARK    7  A    between atoms: C9_15  and  C10_16 
REMARK    8  A    between atoms: C9_15  and  C11_18 
REMARK       I    between atoms: C10_16  and  N4_21 
REMARK    9  A    between atoms: C11_18  and  C12_19 
REMARK   10  A    between atoms: C11_18  and  C13_20 
REMARK   11  A    between atoms: N4_21  and  C14_22 
REMARK   12  A    between atoms: C14_22  and  C15_23 
REMARK   13  A    between atoms: C14_22  and  C16_25 
REMARK       I    between atoms: C15_23  and  N6_40 
REMARK   14  A    between atoms: C16_25  and  C17_26 
REMARK   15  A    between atoms: C17_26  and  C18_27 
REMARK   16  A    between atoms: C17_26  and  C19_28 
REMARK   17  A    between atoms: C20_29  and  C21_30 
REMARK   18  A    between atoms: C20_29  and  C24_33 
REMARK   19  A    between atoms: C20_29  and  N6_40 
REMARK   20  A    between atoms: C21_30  and  C22_31 
REMARK   21  A    between atoms: C22_31  and  C23_32 
REMARK   22  A    between atoms: C23_32  and  O8_43 
REMARK   23  A    between atoms: C24_33  and  C25_34 
REMARK   24  A    between atoms: C28_38  and  O6_39 
REMARK   25  A    between atoms: C29_42  and  O8_43 
REMARK   26  A    between atoms: C29_42  and  C35_49 
ROOT
ATOM      1  C14 non d ame      -5.218  13.682  68.647  0.00  0.00     0.089 C 
ATOM      2  H20 non d ame      -4.174  13.877  68.395  0.00  0.00     0.087 H 
ENDROOT
BRANCH   1   3
ATOM      3  N4  non d ame      -5.928  14.951  68.582  0.00  0.00    -0.346 N 
ATOM      4  C10 non d ame      -5.434  16.054  67.679  0.00  0.00     0.241 C 
ATOM      5  O4  non d ame      -4.461  15.898  67.017  0.00  0.00    -0.271 OA
ATOM      6  H19 non d ame      -6.752  15.065  69.155  0.00  0.00     0.163 HD
BRANCH   4   7
ATOM      7  C9  non d ame      -6.184  17.359  67.619  0.00  0.00     0.092 C 
ATOM      8  H11 non d ame      -5.993  17.839  66.660  0.00  0.00     0.088 H 
BRANCH   7   9
ATOM      9  N3  non d ame      -7.626  17.098  67.693  0.00  0.00    -0.346 N 
ATOM     10  C7  non d ame      -8.509  17.648  66.695  0.00  0.00     0.240 C 
ATOM     11  O3  non d ame      -8.079  18.303  65.826  0.00  0.00    -0.271 OA
ATOM     12  H10 non d ame      -8.012  16.535  68.437  0.00  0.00     0.163 HD
BRANCH  10  13
ATOM     13  C6  non d ame     -10.042  17.369  66.781  0.00  0.00     0.086 C 
ATOM     14  H6  non d ame     -10.625  18.009  66.117  0.00  0.00     0.086 H 
BRANCH  13  15
ATOM     15  N2  non d ame     -10.296  15.999  66.366  0.00  0.00    -0.343 N 
ATOM     16  C5  non d ame     -10.910  15.742  65.061  0.00  0.00     0.273 C 
ATOM     17  O2  non d ame     -11.199  16.643  64.355  0.00  0.00    -0.266 OA
ATOM     18  H5  non d ame     -10.049  15.235  66.978  0.00  0.00     0.163 HD
BRANCH  16  19
ATOM     19  C4  non d ame     -11.183  14.298  64.611  0.00  0.00     0.154 A 
ATOM     20  C1  non d ame     -10.246  13.218  64.555  0.00  0.00    -0.017 A 
ATOM     21  C2  non d ame     -10.990  12.116  64.079  0.00  0.00     0.077 A 
ATOM     22  H1  non d ame      -9.189  13.231  64.821  0.00  0.00     0.091 H 
ATOM     23  O1  non d ame     -12.210  12.525  63.889  0.00  0.00    -0.218 OA
ATOM     24  N1  non d ame     -12.347  13.796  64.192  0.00  0.00    -0.123 NA
BRANCH  21  25
ATOM     25  C3  non d ame     -10.461  10.708  63.837  0.00  0.00    -0.029 C 
ATOM     26  H2  non d ame      -9.997  10.659  62.852  0.00  0.00     0.036 H 
ATOM     27  H3  non d ame      -9.723  10.461  64.599  0.00  0.00     0.036 H 
ATOM     28  H4  non d ame     -11.286   9.996  63.886  0.00  0.00     0.036 H 
ENDBRANCH  21  25
ENDBRANCH  16  19
ENDBRANCH  13  15
BRANCH  13  29
ATOM     29  C8  non d ame     -10.515  17.576  68.197  0.00  0.00    -0.049 C 
ATOM     30  H7  non d ame      -9.936  18.376  68.660  0.00  0.00     0.030 H 
ATOM     31  H8  non d ame     -11.571  17.847  68.192  0.00  0.00     0.030 H 
ATOM     32  H9  non d ame     -10.378  16.655  68.763  0.00  0.00     0.030 H 
ENDBRANCH  13  29
ENDBRANCH  10  13
ENDBRANCH   7   9
BRANCH   7  33
ATOM     33  C11 non d ame      -5.760  18.256  68.818  0.00  0.00    -0.033 C 
ATOM     34  H12 non d ame      -6.392  17.994  69.665  0.00  0.00     0.042 H 
BRANCH  33  35
ATOM     35  C12 non d ame      -4.280  17.986  69.235  0.00  0.00    -0.071 C 
ATOM     36  H13 non d ame      -3.999  16.975  68.940  0.00  0.00     0.028 H 
ATOM     37  H14 non d ame      -3.627  18.704  68.741  0.00  0.00     0.028 H 
ATOM     38  H15 non d ame      -4.184  18.089  70.315  0.00  0.00     0.028 H 
ENDBRANCH  33  35
BRANCH  33  39
ATOM     39  C13 non d ame      -5.989  19.768  68.494  0.00  0.00    -0.071 C 
ATOM     40  H16 non d ame      -7.037  19.931  68.245  0.00  0.00     0.028 H 
ATOM     41  H17 non d ame      -5.724  20.370  69.364  0.00  0.00     0.028 H 
ATOM     42  H18 non d ame      -5.364  20.057  67.649  0.00  0.00     0.028 H 
ENDBRANCH  33  39
ENDBRANCH   7  33
ENDBRANCH   4   7
ENDBRANCH   1   3
BRANCH   1  43
ATOM     43  C15 non d ame      -5.887  12.689  67.655  0.00  0.00     0.240 C 
ATOM     44  O5  non d ame      -5.331  12.395  66.647  0.00  0.00    -0.271 OA
ATOM     45  N6  non d ame      -7.219  12.097  67.967  0.00  0.00    -0.355 N 
ATOM     46  H46 non d ame      -7.699  12.336  68.822  0.00  0.00     0.162 HD
BRANCH  45  47
ATOM     47  C20 non d ame      -7.842  11.153  67.014  0.00  0.00     0.013 C 
ATOM     48  H30 non d ame      -7.761  11.582  66.015  0.00  0.00     0.072 H 
BRANCH  47  49
ATOM     49  C21 non d ame      -9.298  10.964  67.376  0.00  0.00    -0.038 C 
ATOM     50  H31 non d ame      -9.845  11.019  66.436  0.00  0.00     0.036 H 
ATOM     51  H32 non d ame      -9.336  10.054  67.976  0.00  0.00     0.036 H 
BRANCH  49  52
ATOM     52  C22 non d ame      -9.846  12.099  68.268  0.00  0.00     0.018 C 
ATOM     53  H33 non d ame      -9.722  11.754  69.295  0.00  0.00     0.048 H 
ATOM     54  H34 non d ame      -9.342  13.006  67.934  0.00  0.00     0.048 H 
BRANCH  52  55
ATOM     55  C23 non d ame     -11.367  12.361  68.085  0.00  0.00     0.259 C 
ATOM     56  O7  non d ame     -11.984  11.775  67.256  0.00  0.00    -0.265 OA
BRANCH  55  57
ATOM     57  O8  non d ame     -12.013  13.321  68.913  0.00  0.00    -0.317 OA
BRANCH  57  58
ATOM     58  C29 non d ame     -12.341  12.836  70.218  0.00  0.00     0.052 C 
ATOM     59  H47 non d ame     -13.356  12.448  70.142  0.00  0.00     0.082 H 
ATOM     60  H48 non d ame     -11.523  12.173  70.500  0.00  0.00     0.082 H 
BRANCH  58  61
ATOM     61  C35 non d ame     -12.348  14.047  71.190  0.00  0.00    -0.034 A 
ATOM     62  C30 non d ame     -11.597  15.180  70.898  0.00  0.00    -0.075 A 
ATOM     63  C31 non d ame     -11.605  16.267  71.771  0.00  0.00    -0.082 A 
ATOM     64  H49 non d ame     -11.003  15.218  69.984  0.00  0.00     0.084 H 
ATOM     65  C32 non d ame     -12.364  16.216  72.942  0.00  0.00    -0.083 A 
ATOM     66  H50 non d ame     -11.017  17.155  71.537  0.00  0.00     0.083 H 
ATOM     67  C33 non d ame     -13.110  15.081  73.232  0.00  0.00    -0.082 A 
ATOM     68  H51 non d ame     -12.376  17.062  73.630  0.00  0.00     0.083 H 
ATOM     69  C34 non d ame     -13.107  13.994  72.361  0.00  0.00    -0.075 A 
ATOM     70  H52 non d ame     -13.700  15.044  74.148  0.00  0.00     0.083 H 
ATOM     71  H53 non d ame     -13.696  13.106  72.595  0.00  0.00     0.084 H 
ENDBRANCH  58  61
ENDBRANCH  57  58
ENDBRANCH  55  57
ENDBRANCH  52  55
ENDBRANCH  49  52
ENDBRANCH  47  49
BRANCH  47  72
ATOM     72  C24 non d ame      -7.122   9.808  67.074  0.00  0.00    -0.039 C 
ATOM     73  H35 non d ame      -6.076  10.048  67.267  0.00  0.00     0.036 H 
ATOM     74  H36 non d ame      -7.684   9.210  67.792  0.00  0.00     0.036 H 
BRANCH  72  75
ATOM     75  C25 non d ame      -7.180   9.039  65.670  0.00  0.00    -0.001 C 
ATOM     76  C26 non d ame      -7.898   7.573  65.865  0.00  0.00    -0.035 C 
ATOM     77  C27 non d ame      -7.100   6.622  65.321  0.00  0.00     0.085 C 
ATOM     78  H38 non d ame      -7.927   7.307  66.921  0.00  0.00     0.036 H 
ATOM     79  H39 non d ame      -8.805   7.517  65.263  0.00  0.00     0.036 H 
ATOM     80  N5  non d ame      -5.757   7.264  65.068  0.00  0.00    -0.049 N 
ATOM     81  H40 non d ame      -6.989   5.859  66.093  0.00  0.00     0.075 H 
ATOM     82  H41 non d ame      -7.558   6.368  64.366  0.00  0.00     0.075 H 
ATOM     83  C28 non d ame      -5.997   8.856  65.186  0.00  0.00     0.193 C 
ATOM     84  H42 non d ame      -5.154   6.973  65.822  0.00  0.00     0.280 HD
ATOM     85  H43 non d ame      -5.512   7.047  64.112  0.00  0.00     0.280 HD
ATOM     86  H44 non d ame      -6.050   9.478  64.293  0.00  0.00     0.129 H 
ATOM     87  H37 non d ame      -7.558   9.674  64.868  0.00  0.00     0.046 H 
BRANCH  83  88
ATOM     88  O6  non d ame      -4.985   9.448  66.003  0.00  0.00    -0.369 OA
ATOM     89  H45 non d ame      -5.104  10.401  66.020  0.00  0.00     0.212 HD
ENDBRANCH  83  88
ENDBRANCH  72  75
ENDBRANCH  47  72
ENDBRANCH  45  47
ENDBRANCH   1  43
BRANCH   1  90
ATOM     90  C16 non d ame      -5.312  13.134  70.062  0.00  0.00    -0.035 C 
ATOM     91  H21 non d ame      -6.380  13.043  70.266  0.00  0.00     0.037 H 
ATOM     92  H22 non d ame      -4.679  12.247  70.070  0.00  0.00     0.037 H 
BRANCH  90  93
ATOM     93  C17 non d ame      -4.736  14.097  71.148  0.00  0.00    -0.059 C 
ATOM     94  H23 non d ame      -5.232  15.061  71.031  0.00  0.00     0.038 H 
BRANCH  93  95
ATOM     95  C18 non d ame      -5.018  13.588  72.597  0.00  0.00    -0.073 C 
ATOM     96  H24 non d ame      -5.541  14.362  73.159  0.00  0.00     0.028 H 
ATOM     97  H25 non d ame      -5.635  12.691  72.553  0.00  0.00     0.028 H 
ATOM     98  H26 non d ame      -4.074  13.356  73.090  0.00  0.00     0.028 H 
ENDBRANCH  93  95
BRANCH  93  99
ATOM     99  C19 non d ame      -3.238  14.330  70.934  0.00  0.00    -0.073 C 
ATOM    100  H27 non d ame      -2.763  13.394  70.639  0.00  0.00     0.028 H 
ATOM    101  H28 non d ame      -3.095  15.074  70.149  0.00  0.00     0.028 H 
ATOM    102  H29 non d ame      -2.790  14.690  71.860  0.00  0.00     0.028 H 
ENDBRANCH  93  99
ENDBRANCH  90  93
ENDBRANCH   1  90
TORSDOF 26
ENDMDL
MODEL 12
REMARK VINA RESULT:      -5.9      3.688      8.148
REMARK  26 active torsions:
REMARK  status: ('A' for Active; 'I' for Inactive)
REMARK    1  A    between atoms: C2_2  and  C3_3 
REMARK    2  A    between atoms: C4_6  and  C5_7 
REMARK       I    between atoms: C5_7  and  N2_9 
REMARK    3  A    between atoms: N2_9  and  C6_10 
REMARK    4  A    between atoms: C6_10  and  C7_11 
REMARK    5  A    between atoms: C6_10  and  C8_13 
REMARK       I    between atoms: C7_11  and  N3_14 
REMARK    6  A    between atoms: N3_14  and  C9_15 
REMARK    7  A    between atoms: C9_15  and  C10_16 
REMARK    8  A    between atoms: C9_15  and  C11_18 
REMARK       I    between atoms: C10_16  and  N4_21 
REMARK    9  A    between atoms: C11_18  and  C12_19 
REMARK   10  A    between atoms: C11_18  and  C13_20 
REMARK   11  A    between atoms: N4_21  and  C14_22 
REMARK   12  A    between atoms: C14_22  and  C15_23 
REMARK   13  A    between atoms: C14_22  and  C16_25 
REMARK       I    between atoms: C15_23  and  N6_40 
REMARK   14  A    between atoms: C16_25  and  C17_26 
REMARK   15  A    between atoms: C17_26  and  C18_27 
REMARK   16  A    between atoms: C17_26  and  C19_28 
REMARK   17  A    between atoms: C20_29  and  C21_30 
REMARK   18  A    between atoms: C20_29  and  C24_33 
REMARK   19  A    between atoms: C20_29  and  N6_40 
REMARK   20  A    between atoms: C21_30  and  C22_31 
REMARK   21  A    between atoms: C22_31  and  C23_32 
REMARK   22  A    between atoms: C23_32  and  O8_43 
REMARK   23  A    between atoms: C24_33  and  C25_34 
REMARK   24  A    between atoms: C28_38  and  O6_39 
REMARK   25  A    between atoms: C29_42  and  O8_43 
REMARK   26  A    between atoms: C29_42  and  C35_49 
ROOT
ATOM      1  C14 non d ame      -8.270   8.968  64.491  0.00  0.00     0.089 C 
ATOM      2  H20 non d ame      -7.180   8.947  64.525  0.00  0.00     0.087 H 
ENDROOT
BRANCH   1   3
ATOM      3  N4  non d ame      -8.741   7.608  64.705  0.00  0.00    -0.346 N 
ATOM      4  C10 non d ame      -7.879   6.433  64.315  0.00  0.00     0.241 C 
ATOM      5  O4  non d ame      -6.811   6.608  63.828  0.00  0.00    -0.271 OA
ATOM      6  H19 non d ame      -9.654   7.480  65.118  0.00  0.00     0.163 HD
BRANCH   4   7
ATOM      7  C9  non d ame      -8.380   5.032  64.548  0.00  0.00     0.092 C 
ATOM      8  H11 non d ame      -7.551   4.332  64.443  0.00  0.00     0.088 H 
BRANCH   7   9
ATOM      9  N3  non d ame      -8.874   4.912  65.924  0.00  0.00    -0.346 N 
ATOM     10  C7  non d ame      -8.016   4.385  66.955  0.00  0.00     0.240 C 
ATOM     11  O3  non d ame      -6.924   4.051  66.697  0.00  0.00    -0.271 OA
ATOM     12  H10 non d ame      -9.815   5.195  66.161  0.00  0.00     0.163 HD
BRANCH  10  13
ATOM     13  C6  non d ame      -8.549   4.257  68.416  0.00  0.00     0.086 C 
ATOM     14  H6  non d ame      -7.750   4.238  69.157  0.00  0.00     0.086 H 
BRANCH  13  15
ATOM     15  N2  non d ame      -9.372   5.416  68.720  0.00  0.00    -0.343 N 
ATOM     16  C5  non d ame      -9.252   6.062  70.029  0.00  0.00     0.273 C 
ATOM     17  O2  non d ame      -8.494   5.640  70.831  0.00  0.00    -0.266 OA
ATOM     18  H5  non d ame     -10.019   5.769  68.030  0.00  0.00     0.163 HD
BRANCH  16  19
ATOM     19  C4  non d ame     -10.115   7.289  70.363  0.00  0.00     0.154 A 
ATOM     20  C1  non d ame     -11.354   7.306  71.081  0.00  0.00    -0.017 A 
ATOM     21  C2  non d ame     -11.733   8.666  71.117  0.00  0.00     0.077 A 
ATOM     22  H1  non d ame     -11.893   6.462  71.509  0.00  0.00     0.091 H 
ATOM     23  O1  non d ame     -10.813   9.343  70.494  0.00  0.00    -0.218 OA
ATOM     24  N1  non d ame      -9.858   8.561  70.045  0.00  0.00    -0.123 NA
BRANCH  21  25
ATOM     25  C3  non d ame     -12.987   9.235  71.769  0.00  0.00    -0.029 C 
ATOM     26  H2  non d ame     -13.298   8.585  72.588  0.00  0.00     0.036 H 
ATOM     27  H3  non d ame     -12.776  10.231  72.156  0.00  0.00     0.036 H 
ATOM     28  H4  non d ame     -13.786   9.294  71.029  0.00  0.00     0.036 H 
ENDBRANCH  21  25
ENDBRANCH  16  19
ENDBRANCH  13  15
BRANCH  13  29
ATOM     29  C8  non d ame      -9.365   2.996  68.547  0.00  0.00    -0.049 C 
ATOM     30  H7  non d ame     -10.136   3.140  69.306  0.00  0.00     0.030 H 
ATOM     31  H8  non d ame      -9.834   2.764  67.592  0.00  0.00     0.030 H 
ATOM     32  H9  non d ame      -8.715   2.172  68.843  0.00  0.00     0.030 H 
ENDBRANCH  13  29
ENDBRANCH  10  13
ENDBRANCH   7   9
BRANCH   7  33
ATOM     33  C11 non d ame      -9.537   4.723  63.554  0.00  0.00    -0.033 C 
ATOM     34  H12 non d ame     -10.119   5.635  63.433  0.00  0.00     0.042 H 
BRANCH  33  35
ATOM     35  C12 non d ame      -8.988   4.325  62.148  0.00  0.00    -0.071 C 
ATOM     36  H13 non d ame      -8.402   3.410  62.233  0.00  0.00     0.028 H 
ATOM     37  H14 non d ame      -9.822   4.161  61.466  0.00  0.00     0.028 H 
ATOM     38  H15 non d ame      -8.357   5.126  61.766  0.00  0.00     0.028 H 
ENDBRANCH  33  35
BRANCH  33  39
ATOM     39  C13 non d ame     -10.484   3.618  64.125  0.00  0.00    -0.071 C 
ATOM     40  H16 non d ame     -10.553   3.722  65.207  0.00  0.00     0.028 H 
ATOM     41  H17 non d ame     -11.476   3.727  63.686  0.00  0.00     0.028 H 
ATOM     42  H18 non d ame     -10.085   2.634  63.878  0.00  0.00     0.028 H 
ENDBRANCH  33  39
ENDBRANCH   7  33
ENDBRANCH   4   7
ENDBRANCH   1   3
BRANCH   1  43
ATOM     43  C15 non d ame      -8.875   9.880  65.596  0.00  0.00     0.240 C 
ATOM     44  O5  non d ame      -9.554   9.406  66.448  0.00  0.00    -0.271 OA
ATOM     45  N6  non d ame      -8.600  11.346  65.597  0.00  0.00    -0.355 N 
ATOM     46  H46 non d ame      -8.022  11.759  64.880  0.00  0.00     0.162 HD
BRANCH  45  47
ATOM     47  C20 non d ame      -9.182  12.199  66.655  0.00  0.00     0.013 C 
ATOM     48  H30 non d ame      -9.708  11.553  67.357  0.00  0.00     0.072 H 
BRANCH  47  49
ATOM     49  C21 non d ame     -10.150  13.179  66.031  0.00  0.00    -0.038 C 
ATOM     50  H31 non d ame      -9.837  14.163  66.377  0.00  0.00     0.036 H 
ATOM     51  H32 non d ame     -10.155  12.951  64.965  0.00  0.00     0.036 H 
BRANCH  49  52
ATOM     52  C22 non d ame     -11.600  12.984  66.526  0.00  0.00     0.018 C 
ATOM     53  H33 non d ame     -11.978  13.985  66.737  0.00  0.00     0.048 H 
ATOM     54  H34 non d ame     -12.089  12.366  65.773  0.00  0.00     0.048 H 
BRANCH  52  55
ATOM     55  C23 non d ame     -11.707  12.196  67.861  0.00  0.00     0.259 C 
ATOM     56  O7  non d ame     -11.989  11.042  67.859  0.00  0.00    -0.265 OA
BRANCH  55  57
ATOM     57  O8  non d ame     -11.476  12.874  69.090  0.00  0.00    -0.317 OA
BRANCH  57  58
ATOM     58  C29 non d ame     -11.860  14.253  69.075  0.00  0.00     0.052 C 
ATOM     59  H47 non d ame     -10.977  14.800  68.745  0.00  0.00     0.082 H 
ATOM     60  H48 non d ame     -12.778  14.296  68.490  0.00  0.00     0.082 H 
BRANCH  58  61
ATOM     61  C35 non d ame     -12.185  14.675  70.532  0.00  0.00    -0.034 A 
ATOM     62  C30 non d ame     -12.965  13.853  71.339  0.00  0.00    -0.075 A 
ATOM     63  C31 non d ame     -13.257  14.233  72.648  0.00  0.00    -0.082 A 
ATOM     64  H49 non d ame     -13.347  12.911  70.946  0.00  0.00     0.084 H 
ATOM     65  C32 non d ame     -12.769  15.443  73.148  0.00  0.00    -0.083 A 
ATOM     66  H50 non d ame     -13.866  13.585  73.278  0.00  0.00     0.083 H 
ATOM     67  C33 non d ame     -11.994  16.263  72.338  0.00  0.00    -0.082 A 
ATOM     68  H51 non d ame     -12.992  15.747  74.171  0.00  0.00     0.083 H 
ATOM     69  C34 non d ame     -11.698  15.885  71.030  0.00  0.00    -0.075 A 
ATOM     70  H52 non d ame     -11.616  17.207  72.732  0.00  0.00     0.083 H 
ATOM     71  H53 non d ame     -11.087  16.534  70.401  0.00  0.00     0.084 H 
ENDBRANCH  58  61
ENDBRANCH  57  58
ENDBRANCH  55  57
ENDBRANCH  52  55
ENDBRANCH  49  52
ENDBRANCH  47  49
BRANCH  47  72
ATOM     72  C24 non d ame      -8.070  12.965  67.369  0.00  0.00    -0.039 C 
ATOM     73  H35 non d ame      -7.764  13.747  66.674  0.00  0.00     0.036 H 
ATOM     74  H36 non d ame      -8.481  13.233  68.342  0.00  0.00     0.036 H 
BRANCH  72  75
ATOM     75  C25 non d ame      -6.789  12.041  67.635  0.00  0.00    -0.001 C 
ATOM     76  C26 non d ame      -6.931  11.294  69.092  0.00  0.00    -0.035 C 
ATOM     77  C27 non d ame      -5.797  11.504  69.803  0.00  0.00     0.085 C 
ATOM     78  H38 non d ame      -7.700  11.781  69.689  0.00  0.00     0.036 H 
ATOM     79  H39 non d ame      -6.949  10.212  68.958  0.00  0.00     0.036 H 
ATOM     80  N5  non d ame      -5.031  12.598  69.097  0.00  0.00    -0.049 N 
ATOM     81  H40 non d ame      -6.127  11.873  70.775  0.00  0.00     0.075 H 
ATOM     82  H41 non d ame      -5.233  10.575  69.734  0.00  0.00     0.075 H 
ATOM     83  C28 non d ame      -5.701  12.737  67.635  0.00  0.00     0.193 C 
ATOM     84  H42 non d ame      -5.205  13.448  69.613  0.00  0.00     0.280 HD
ATOM     85  H43 non d ame      -4.086  12.259  68.985  0.00  0.00     0.280 HD
ATOM     86  H44 non d ame      -5.204  12.329  66.756  0.00  0.00     0.129 H 
ATOM     87  H37 non d ame      -6.548  11.413  66.776  0.00  0.00     0.046 H 
BRANCH  83  88
ATOM     88  O6  non d ame      -5.943  14.113  67.332  0.00  0.00    -0.369 OA
ATOM     89  H45 non d ame      -5.458  14.666  67.950  0.00  0.00     0.212 HD
ENDBRANCH  83  88
ENDBRANCH  72  75
ENDBRANCH  47  72
ENDBRANCH  45  47
ENDBRANCH   1  43
BRANCH   1  90
ATOM     90  C16 non d ame      -8.734   9.444  63.124  0.00  0.00    -0.035 C 
ATOM     91  H21 non d ame      -9.298   8.610  62.704  0.00  0.00     0.037 H 
ATOM     92  H22 non d ame      -9.228  10.399  63.303  0.00  0.00     0.037 H 
BRANCH  90  93
ATOM     93  C17 non d ame      -7.564   9.731  62.130  0.00  0.00    -0.059 C 
ATOM     94  H23 non d ame      -7.458   8.859  61.485  0.00  0.00     0.038 H 
BRANCH  93  95
ATOM     95  C18 non d ame      -7.856  10.966  61.218  0.00  0.00    -0.073 C 
ATOM     96  H24 non d ame      -7.557  11.878  61.735  0.00  0.00     0.028 H 
ATOM     97  H25 non d ame      -7.291  10.872  60.290  0.00  0.00     0.028 H 
ATOM     98  H26 non d ame      -8.921  11.007  60.992  0.00  0.00     0.028 H 
ENDBRANCH  93  95
BRANCH  93  99
ATOM     99  C19 non d ame      -6.240   9.907  62.878  0.00  0.00    -0.073 C 
ATOM    100  H27 non d ame      -6.421   9.857  63.953  0.00  0.00     0.028 H 
ATOM    101  H28 non d ame      -5.552   9.114  62.587  0.00  0.00     0.028 H 
ATOM    102  H29 non d ame      -5.806  10.875  62.626  0.00  0.00     0.028 H 
ENDBRANCH  93  99
ENDBRANCH  90  93
ENDBRANCH   1  90
TORSDOF 26
ENDMDL
MODEL 13
REMARK VINA RESULT:      -5.9      3.909      7.669
REMARK  26 active torsions:
REMARK  status: ('A' for Active; 'I' for Inactive)
REMARK    1  A    between atoms: C2_2  and  C3_3 
REMARK    2  A    between atoms: C4_6  and  C5_7 
REMARK       I    between atoms: C5_7  and  N2_9 
REMARK    3  A    between atoms: N2_9  and  C6_10 
REMARK    4  A    between atoms: C6_10  and  C7_11 
REMARK    5  A    between atoms: C6_10  and  C8_13 
REMARK       I    between atoms: C7_11  and  N3_14 
REMARK    6  A    between atoms: N3_14  and  C9_15 
REMARK    7  A    between atoms: C9_15  and  C10_16 
REMARK    8  A    between atoms: C9_15  and  C11_18 
REMARK       I    between atoms: C10_16  and  N4_21 
REMARK    9  A    between atoms: C11_18  and  C12_19 
REMARK   10  A    between atoms: C11_18  and  C13_20 
REMARK   11  A    between atoms: N4_21  and  C14_22 
REMARK   12  A    between atoms: C14_22  and  C15_23 
REMARK   13  A    between atoms: C14_22  and  C16_25 
REMARK       I    between atoms: C15_23  and  N6_40 
REMARK   14  A    between atoms: C16_25  and  C17_26 
REMARK   15  A    between atoms: C17_26  and  C18_27 
REMARK   16  A    between atoms: C17_26  and  C19_28 
REMARK   17  A    between atoms: C20_29  and  C21_30 
REMARK   18  A    between atoms: C20_29  and  C24_33 
REMARK   19  A    between atoms: C20_29  and  N6_40 
REMARK   20  A    between atoms: C21_30  and  C22_31 
REMARK   21  A    between atoms: C22_31  and  C23_32 
REMARK   22  A    between atoms: C23_32  and  O8_43 
REMARK   23  A    between atoms: C24_33  and  C25_34 
REMARK   24  A    between atoms: C28_38  and  O6_39 
REMARK   25  A    between atoms: C29_42  and  O8_43 
REMARK   26  A    between atoms: C29_42  and  C35_49 
ROOT
ATOM      1  C14 non d ame      -8.037   8.140  63.180  0.00  0.00     0.089 C 
ATOM      2  H20 non d ame      -8.403   8.205  62.154  0.00  0.00     0.087 H 
ENDROOT
BRANCH   1   3
ATOM      3  N4  non d ame      -8.971   8.869  64.025  0.00  0.00    -0.346 N 
ATOM      4  C10 non d ame      -9.598  10.152  63.537  0.00  0.00     0.241 C 
ATOM      5  O4  non d ame      -9.333  10.578  62.461  0.00  0.00    -0.271 OA
ATOM      6  H19 non d ame      -9.182   8.492  64.938  0.00  0.00     0.163 HD
BRANCH   4   7
ATOM      7  C9  non d ame     -10.566  10.891  64.422  0.00  0.00     0.092 C 
ATOM      8  H11 non d ame     -11.366  10.215  64.724  0.00  0.00     0.088 H 
BRANCH   7   9
ATOM      9  N3  non d ame      -9.880  11.323  65.645  0.00  0.00    -0.346 N 
ATOM     10  C7  non d ame     -10.531  11.185  66.923  0.00  0.00     0.240 C 
ATOM     11  O3  non d ame     -11.607  10.729  66.989  0.00  0.00    -0.271 OA
ATOM     12  H10 non d ame      -8.951  11.718  65.604  0.00  0.00     0.163 HD
BRANCH  10  13
ATOM     13  C6  non d ame      -9.797  11.648  68.220  0.00  0.00     0.086 C 
ATOM     14  H6  non d ame      -8.711  11.638  68.117  0.00  0.00     0.086 H 
BRANCH  13  15
ATOM     15  N2  non d ame     -10.174  13.022  68.510  0.00  0.00    -0.343 N 
ATOM     16  C5  non d ame      -9.458  14.120  67.857  0.00  0.00     0.273 C 
ATOM     17  O2  non d ame      -8.577  13.888  67.104  0.00  0.00    -0.266 OA
ATOM     18  H5  non d ame     -10.926  13.211  69.157  0.00  0.00     0.163 HD
BRANCH  16  19
ATOM     19  C4  non d ame      -9.847  15.577  68.154  0.00  0.00     0.154 A 
ATOM     20  C1  non d ame      -9.859  16.673  67.234  0.00  0.00    -0.017 A 
ATOM     21  C2  non d ame     -10.289  17.782  67.996  0.00  0.00     0.077 A 
ATOM     22  H1  non d ame      -9.598  16.665  66.176  0.00  0.00     0.091 H 
ATOM     23  O1  non d ame     -10.498  17.361  69.209  0.00  0.00    -0.218 OA
ATOM     24  N1  non d ame     -10.247  16.077  69.326  0.00  0.00    -0.123 NA
BRANCH  21  25
ATOM     25  C3  non d ame     -10.474  19.206  67.490  0.00  0.00    -0.029 C 
ATOM     26  H2  non d ame     -11.220  19.215  66.695  0.00  0.00     0.036 H 
ATOM     27  H3  non d ame     -10.809  19.843  68.308  0.00  0.00     0.036 H 
ATOM     28  H4  non d ame      -9.526  19.581  67.102  0.00  0.00     0.036 H 
ENDBRANCH  21  25
ENDBRANCH  16  19
ENDBRANCH  13  15
BRANCH  13  29
ATOM     29  C8  non d ame     -10.185  10.753  69.369  0.00  0.00    -0.049 C 
ATOM     30  H7  non d ame      -9.307  10.546  69.981  0.00  0.00     0.030 H 
ATOM     31  H8  non d ame     -10.943  11.247  69.976  0.00  0.00     0.030 H 
ATOM     32  H9  non d ame     -10.585   9.816  68.980  0.00  0.00     0.030 H 
ENDBRANCH  13  29
ENDBRANCH  10  13
ENDBRANCH   7   9
BRANCH   7  33
ATOM     33  C11 non d ame     -11.110  12.140  63.667  0.00  0.00    -0.033 C 
ATOM     34  H12 non d ame     -10.722  12.103  62.650  0.00  0.00     0.042 H 
BRANCH  33  35
ATOM     35  C12 non d ame     -12.668  12.116  63.577  0.00  0.00    -0.071 C 
ATOM     36  H13 non d ame     -13.033  13.115  63.342  0.00  0.00     0.028 H 
ATOM     37  H14 non d ame     -12.976  11.423  62.795  0.00  0.00     0.028 H 
ATOM     38  H15 non d ame     -13.080  11.794  64.533  0.00  0.00     0.028 H 
ENDBRANCH  33  35
BRANCH  33  39
ATOM     39  C13 non d ame     -10.602  13.460  64.331  0.00  0.00    -0.071 C 
ATOM     40  H16 non d ame      -9.844  13.918  63.696  0.00  0.00     0.028 H 
ATOM     41  H17 non d ame     -11.438  14.149  64.455  0.00  0.00     0.028 H 
ATOM     42  H18 non d ame     -10.171  13.234  65.307  0.00  0.00     0.028 H 
ENDBRANCH  33  39
ENDBRANCH   7  33
ENDBRANCH   4   7
ENDBRANCH   1   3
BRANCH   1  43
ATOM     43  C15 non d ame      -7.959   6.671  63.684  0.00  0.00     0.240 C 
ATOM     44  O5  non d ame      -7.338   5.866  63.068  0.00  0.00    -0.271 OA
ATOM     45  N6  non d ame      -8.653   6.268  64.941  0.00  0.00    -0.355 N 
ATOM     46  H46 non d ame      -9.180   6.943  65.474  0.00  0.00     0.162 HD
BRANCH  45  47
ATOM     47  C20 non d ame      -8.568   4.867  65.407  0.00  0.00     0.013 C 
ATOM     48  H30 non d ame      -8.629   4.218  64.534  0.00  0.00     0.072 H 
BRANCH  47  49
ATOM     49  C21 non d ame      -9.720   4.581  66.344  0.00  0.00    -0.038 C 
ATOM     50  H31 non d ame     -10.150   3.639  66.003  0.00  0.00     0.036 H 
ATOM     51  H32 non d ame      -9.308   4.660  67.350  0.00  0.00     0.036 H 
BRANCH  49  52
ATOM     52  C22 non d ame     -10.845   5.634  66.248  0.00  0.00     0.018 C 
ATOM     53  H33 non d ame     -10.681   6.158  65.306  0.00  0.00     0.048 H 
ATOM     54  H34 non d ame     -11.774   5.090  66.414  0.00  0.00     0.048 H 
BRANCH  52  55
ATOM     55  C23 non d ame     -10.782   6.721  67.358  0.00  0.00     0.259 C 
ATOM     56  O7  non d ame     -10.128   7.701  67.205  0.00  0.00    -0.265 OA
BRANCH  55  57
ATOM     57  O8  non d ame     -11.504   6.525  68.567  0.00  0.00    -0.317 OA
BRANCH  57  58
ATOM     58  C29 non d ame     -10.850   5.661  69.502  0.00  0.00     0.052 C 
ATOM     59  H47 non d ame     -11.601   4.932  69.804  0.00  0.00     0.082 H 
ATOM     60  H48 non d ame      -9.937   5.330  69.007  0.00  0.00     0.082 H 
BRANCH  58  61
ATOM     61  C35 non d ame     -10.458   6.507  70.742  0.00  0.00    -0.034 A 
ATOM     62  C30 non d ame     -11.211   6.424  71.909  0.00  0.00    -0.075 A 
ATOM     63  C31 non d ame     -10.857   7.184  73.023  0.00  0.00    -0.082 A 
ATOM     64  H49 non d ame     -12.077   5.763  71.951  0.00  0.00     0.084 H 
ATOM     65  C32 non d ame      -9.748   8.032  72.966  0.00  0.00    -0.083 A 
ATOM     66  H50 non d ame     -11.448   7.114  73.937  0.00  0.00     0.083 H 
ATOM     67  C33 non d ame      -9.002   8.115  71.798  0.00  0.00    -0.082 A 
ATOM     68  H51 non d ame      -9.465   8.629  73.833  0.00  0.00     0.083 H 
ATOM     69  C34 non d ame      -9.350   7.355  70.683  0.00  0.00    -0.075 A 
ATOM     70  H52 non d ame      -8.138   8.779  71.757  0.00  0.00     0.083 H 
ATOM     71  H53 non d ame      -8.758   7.424  69.770  0.00  0.00     0.084 H 
ENDBRANCH  58  61
ENDBRANCH  57  58
ENDBRANCH  55  57
ENDBRANCH  52  55
ENDBRANCH  49  52
ENDBRANCH  47  49
BRANCH  47  72
ATOM     72  C24 non d ame      -7.247   4.646  66.141  0.00  0.00    -0.039 C 
ATOM     73  H35 non d ame      -6.967   3.614  65.929  0.00  0.00     0.036 H 
ATOM     74  H36 non d ame      -6.598   5.462  65.822  0.00  0.00     0.036 H 
BRANCH  72  75
ATOM     75  C25 non d ame      -7.421   4.773  67.728  0.00  0.00    -0.001 C 
ATOM     76  C26 non d ame      -6.953   6.270  68.224  0.00  0.00    -0.035 C 
ATOM     77  C27 non d ame      -6.070   6.135  69.243  0.00  0.00     0.085 C 
ATOM     78  H38 non d ame      -6.369   6.757  67.444  0.00  0.00     0.036 H 
ATOM     79  H39 non d ame      -7.792   6.792  68.682  0.00  0.00     0.036 H 
ATOM     80  N5  non d ame      -5.645   4.686  69.269  0.00  0.00    -0.049 N 
ATOM     81  H40 non d ame      -5.213   6.752  68.970  0.00  0.00     0.075 H 
ATOM     82  H41 non d ame      -6.635   6.355  70.148  0.00  0.00     0.075 H 
ATOM     83  C28 non d ame      -6.709   3.894  68.349  0.00  0.00     0.193 C 
ATOM     84  H42 non d ame      -4.740   4.645  68.823  0.00  0.00     0.280 HD
ATOM     85  H43 non d ame      -5.751   4.374  70.224  0.00  0.00     0.280 HD
ATOM     86  H44 non d ame      -7.492   3.288  68.804  0.00  0.00     0.129 H 
ATOM     87  H37 non d ame      -8.396   4.422  68.065  0.00  0.00     0.046 H 
BRANCH  83  88
ATOM     88  O6  non d ame      -6.026   3.020  67.448  0.00  0.00    -0.369 OA
ATOM     89  H45 non d ame      -6.277   3.232  66.546  0.00  0.00     0.212 HD
ENDBRANCH  83  88
ENDBRANCH  72  75
ENDBRANCH  47  72
ENDBRANCH  45  47
ENDBRANCH   1  43
BRANCH   1  90
ATOM     90  C16 non d ame      -6.667   8.789  63.281  0.00  0.00    -0.035 C 
ATOM     91  H21 non d ame      -5.996   8.135  62.720  0.00  0.00     0.037 H 
ATOM     92  H22 non d ame      -6.812   9.821  62.963  0.00  0.00     0.037 H 
BRANCH  90  93
ATOM     93  C17 non d ame      -6.107   8.850  64.737  0.00  0.00    -0.059 C 
ATOM     94  H23 non d ame      -6.846   8.391  65.394  0.00  0.00     0.038 H 
BRANCH  93  95
ATOM     95  C18 non d ame      -4.773   8.051  64.890  0.00  0.00    -0.073 C 
ATOM     96  H24 non d ame      -4.403   7.770  63.904  0.00  0.00     0.028 H 
ATOM     97  H25 non d ame      -4.033   8.674  65.392  0.00  0.00     0.028 H 
ATOM     98  H26 non d ame      -4.953   7.153  65.482  0.00  0.00     0.028 H 
ENDBRANCH  93  95
BRANCH  93  99
ATOM     99  C19 non d ame      -5.929  10.300  65.196  0.00  0.00    -0.073 C 
ATOM    100  H27 non d ame      -5.943  10.340  66.285  0.00  0.00     0.028 H 
ATOM    101  H28 non d ame      -4.976  10.681  64.829  0.00  0.00     0.028 H 
ATOM    102  H29 non d ame      -6.740  10.909  64.798  0.00  0.00     0.028 H 
ENDBRANCH  93  99
ENDBRANCH  90  93
ENDBRANCH   1  90
TORSDOF 26
ENDMDL
MODEL 14
REMARK VINA RESULT:      -5.8      3.566      8.044
REMARK  26 active torsions:
REMARK  status: ('A' for Active; 'I' for Inactive)
REMARK    1  A    between atoms: C2_2  and  C3_3 
REMARK    2  A    between atoms: C4_6  and  C5_7 
REMARK       I    between atoms: C5_7  and  N2_9 
REMARK    3  A    between atoms: N2_9  and  C6_10 
REMARK    4  A    between atoms: C6_10  and  C7_11 
REMARK    5  A    between atoms: C6_10  and  C8_13 
REMARK       I    between atoms: C7_11  and  N3_14 
REMARK    6  A    between atoms: N3_14  and  C9_15 
REMARK    7  A    between atoms: C9_15  and  C10_16 
REMARK    8  A    between atoms: C9_15  and  C11_18 
REMARK       I    between atoms: C10_16  and  N4_21 
REMARK    9  A    between atoms: C11_18  and  C12_19 
REMARK   10  A    between atoms: C11_18  and  C13_20 
REMARK   11  A    between atoms: N4_21  and  C14_22 
REMARK   12  A    between atoms: C14_22  and  C15_23 
REMARK   13  A    between atoms: C14_22  and  C16_25 
REMARK       I    between atoms: C15_23  and  N6_40 
REMARK   14  A    between atoms: C16_25  and  C17_26 
REMARK   15  A    between atoms: C17_26  and  C18_27 
REMARK   16  A    between atoms: C17_26  and  C19_28 
REMARK   17  A    between atoms: C20_29  and  C21_30 
REMARK   18  A    between atoms: C20_29  and  C24_33 
REMARK   19  A    between atoms: C20_29  and  N6_40 
REMARK   20  A    between atoms: C21_30  and  C22_31 
REMARK   21  A    between atoms: C22_31  and  C23_32 
REMARK   22  A    between atoms: C23_32  and  O8_43 
REMARK   23  A    between atoms: C24_33  and  C25_34 
REMARK   24  A    between atoms: C28_38  and  O6_39 
REMARK   25  A    between atoms: C29_42  and  O8_43 
REMARK   26  A    between atoms: C29_42  and  C35_49 
ROOT
ATOM      1  C14 non d ame     -10.908  12.266  67.288  0.00  0.00     0.089 C 
ATOM      2  H20 non d ame      -9.933  11.938  66.926  0.00  0.00     0.087 H 
ENDROOT
BRANCH   1   3
ATOM      3  N4  non d ame     -11.462  11.186  68.091  0.00  0.00    -0.346 N 
ATOM      4  C10 non d ame     -10.549  10.247  68.839  0.00  0.00     0.241 C 
ATOM      5  O4  non d ame      -9.371  10.379  68.777  0.00  0.00    -0.271 OA
ATOM      6  H19 non d ame     -12.467  11.089  68.130  0.00  0.00     0.163 HD
BRANCH   4   7
ATOM      7  C9  non d ame     -11.139   9.138  69.670  0.00  0.00     0.092 C 
ATOM      8  H11 non d ame     -12.117   8.871  69.270  0.00  0.00     0.088 H 
BRANCH   7   9
ATOM      9  N3  non d ame     -10.291   7.946  69.570  0.00  0.00    -0.346 N 
ATOM     10  C7  non d ame     -10.891   6.637  69.515  0.00  0.00     0.240 C 
ATOM     11  O3  non d ame     -12.055   6.522  69.552  0.00  0.00    -0.271 OA
ATOM     12  H10 non d ame      -9.284   8.029  69.538  0.00  0.00     0.163 HD
BRANCH  10  13
ATOM     13  C6  non d ame      -9.982   5.372  69.411  0.00  0.00     0.086 C 
ATOM     14  H6  non d ame     -10.490   4.524  68.952  0.00  0.00     0.086 H 
BRANCH  13  15
ATOM     15  N2  non d ame      -8.840   5.681  68.565  0.00  0.00    -0.343 N 
ATOM     16  C5  non d ame      -8.975   5.591  67.110  0.00  0.00     0.273 C 
ATOM     17  O2  non d ame     -10.004   5.266  66.629  0.00  0.00    -0.266 OA
ATOM     18  H5  non d ame      -7.963   5.955  68.985  0.00  0.00     0.163 HD
BRANCH  16  19
ATOM     19  C4  non d ame      -7.777   5.915  66.204  0.00  0.00     0.154 A 
ATOM     20  C1  non d ame      -7.527   5.414  64.887  0.00  0.00    -0.017 A 
ATOM     21  C2  non d ame      -6.309   6.012  64.496  0.00  0.00     0.077 A 
ATOM     22  H1  non d ame      -8.137   4.724  64.304  0.00  0.00     0.091 H 
ATOM     23  O1  non d ame      -5.914   6.767  65.479  0.00  0.00    -0.218 OA
ATOM     24  N1  non d ame      -6.754   6.727  66.487  0.00  0.00    -0.123 NA
BRANCH  21  25
ATOM     25  C3  non d ame      -5.592   5.810  63.167  0.00  0.00    -0.029 C 
ATOM     26  H2  non d ame      -6.096   6.385  62.391  0.00  0.00     0.036 H 
ATOM     27  H3  non d ame      -4.560   6.147  63.256  0.00  0.00     0.036 H 
ATOM     28  H4  non d ame      -5.606   4.752  62.903  0.00  0.00     0.036 H 
ENDBRANCH  21  25
ENDBRANCH  16  19
ENDBRANCH  13  15
BRANCH  13  29
ATOM     29  C8  non d ame      -9.512   4.973  70.786  0.00  0.00    -0.049 C 
ATOM     30  H7  non d ame      -9.585   5.829  71.458  0.00  0.00     0.030 H 
ATOM     31  H8  non d ame     -10.134   4.161  71.162  0.00  0.00     0.030 H 
ATOM     32  H9  non d ame      -8.475   4.642  70.734  0.00  0.00     0.030 H 
ENDBRANCH  13  29
ENDBRANCH  10  13
ENDBRANCH   7   9
BRANCH   7  33
ATOM     33  C11 non d ame     -11.219   9.591  71.157  0.00  0.00    -0.033 C 
ATOM     34  H12 non d ame     -10.899  10.631  71.202  0.00  0.00     0.042 H 
BRANCH  33  35
ATOM     35  C12 non d ame     -12.684   9.527  71.693  0.00  0.00    -0.071 C 
ATOM     36  H13 non d ame     -12.922   8.503  71.980  0.00  0.00     0.028 H 
ATOM     37  H14 non d ame     -12.782  10.179  72.560  0.00  0.00     0.028 H 
ATOM     38  H15 non d ame     -13.369   9.853  70.912  0.00  0.00     0.028 H 
ENDBRANCH  33  35
BRANCH  33  39
ATOM     39  C13 non d ame     -10.253   8.748  72.051  0.00  0.00    -0.071 C 
ATOM     40  H16 non d ame      -9.343   9.317  72.238  0.00  0.00     0.028 H 
ATOM     41  H17 non d ame     -10.741   8.521  73.000  0.00  0.00     0.028 H 
ATOM     42  H18 non d ame     -10.003   7.819  71.540  0.00  0.00     0.028 H 
ENDBRANCH  33  39
ENDBRANCH   7  33
ENDBRANCH   4   7
ENDBRANCH   1   3
BRANCH   1  43
ATOM     43  C15 non d ame     -10.808  13.540  68.174  0.00  0.00     0.240 C 
ATOM     44  O5  non d ame      -9.946  13.629  68.987  0.00  0.00    -0.271 OA
ATOM     45  N6  non d ame     -11.783  14.655  68.002  0.00  0.00    -0.355 N 
ATOM     46  H46 non d ame     -12.517  14.592  67.312  0.00  0.00     0.162 HD
BRANCH  45  47
ATOM     47  C20 non d ame     -11.674  15.860  68.852  0.00  0.00     0.013 C 
ATOM     48  H30 non d ame     -12.626  16.390  68.807  0.00  0.00     0.072 H 
BRANCH  47  49
ATOM     49  C21 non d ame     -10.567  16.745  68.326  0.00  0.00    -0.038 C 
ATOM     50  H31 non d ame     -10.844  17.761  68.606  0.00  0.00     0.036 H 
ATOM     51  H32 non d ame      -9.639  16.310  68.700  0.00  0.00     0.036 H 
BRANCH  49  52
ATOM     52  C22 non d ame     -10.467  16.728  66.785  0.00  0.00     0.018 C 
ATOM     53  H33 non d ame     -11.080  15.887  66.458  0.00  0.00     0.048 H 
ATOM     54  H34 non d ame     -10.714  17.739  66.462  0.00  0.00     0.048 H 
BRANCH  52  55
ATOM     55  C23 non d ame      -9.035  16.446  66.253  0.00  0.00     0.259 C 
ATOM     56  O7  non d ame      -8.615  15.335  66.212  0.00  0.00    -0.265 OA
BRANCH  55  57
ATOM     57  O8  non d ame      -8.223  17.534  65.826  0.00  0.00    -0.317 OA
BRANCH  57  58
ATOM     58  C29 non d ame      -8.727  18.818  66.206  0.00  0.00     0.052 C 
ATOM     59  H47 non d ame      -8.739  19.412  65.292  0.00  0.00     0.082 H 
ATOM     60  H48 non d ame      -9.655  18.624  66.742  0.00  0.00     0.082 H 
BRANCH  58  61
ATOM     61  C35 non d ame      -7.714  19.456  67.193  0.00  0.00    -0.034 A 
ATOM     62  C30 non d ame      -6.936  20.538  66.793  0.00  0.00    -0.075 A 
ATOM     63  C31 non d ame      -6.026  21.110  67.681  0.00  0.00    -0.082 A 
ATOM     64  H49 non d ame      -7.039  20.937  65.784  0.00  0.00     0.084 H 
ATOM     65  C32 non d ame      -5.894  20.595  68.973  0.00  0.00    -0.083 A 
ATOM     66  H50 non d ame      -5.420  21.960  67.365  0.00  0.00     0.083 H 
ATOM     67  C33 non d ame      -6.670  19.513  69.367  0.00  0.00    -0.082 A 
ATOM     68  H51 non d ame      -5.185  21.037  69.674  0.00  0.00     0.083 H 
ATOM     69  C34 non d ame      -7.582  18.940  68.484  0.00  0.00    -0.075 A 
ATOM     70  H52 non d ame      -6.562  19.112  70.376  0.00  0.00     0.083 H 
ATOM     71  H53 non d ame      -8.188  18.091  68.802  0.00  0.00     0.084 H 
ENDBRANCH  58  61
ENDBRANCH  57  58
ENDBRANCH  55  57
ENDBRANCH  52  55
ENDBRANCH  49  52
ENDBRANCH  47  49
BRANCH  47  72
ATOM     72  C24 non d ame     -11.362  15.451  70.290  0.00  0.00    -0.039 C 
ATOM     73  H35 non d ame     -11.146  14.383  70.247  0.00  0.00     0.036 H 
ATOM     74  H36 non d ame     -10.594  16.148  70.629  0.00  0.00     0.036 H 
BRANCH  72  75
ATOM     75  C25 non d ame     -12.630  15.640  71.250  0.00  0.00    -0.001 C 
ATOM     76  C26 non d ame     -12.158  16.314  72.674  0.00  0.00    -0.035 C 
ATOM     77  C27 non d ame     -12.640  15.562  73.693  0.00  0.00     0.085 C 
ATOM     78  H38 non d ame     -11.078  16.234  72.786  0.00  0.00     0.036 H 
ATOM     79  H39 non d ame     -12.651  17.276  72.813  0.00  0.00     0.036 H 
ATOM     80  N5  non d ame     -13.116  14.260  73.093  0.00  0.00    -0.049 N 
ATOM     81  H40 non d ame     -11.783  15.363  74.338  0.00  0.00     0.075 H 
ATOM     82  H41 non d ame     -13.498  16.110  74.079  0.00  0.00     0.075 H 
ATOM     83  C28 non d ame     -13.200  14.509  71.501  0.00  0.00     0.193 C 
ATOM     84  H42 non d ame     -12.394  13.580  73.275  0.00  0.00     0.280 HD
ATOM     85  H43 non d ame     -14.052  14.110  73.444  0.00  0.00     0.280 HD
ATOM     86  H44 non d ame     -14.163  14.659  71.012  0.00  0.00     0.129 H 
ATOM     87  H37 non d ame     -13.471  16.105  70.735  0.00  0.00     0.046 H 
BRANCH  83  88
ATOM     88  O6  non d ame     -12.582  13.428  70.799  0.00  0.00    -0.369 OA
ATOM     89  H45 non d ame     -11.991  12.958  71.393  0.00  0.00     0.212 HD
ENDBRANCH  83  88
ENDBRANCH  72  75
ENDBRANCH  47  72
ENDBRANCH  45  47
ENDBRANCH   1  43
BRANCH   1  90
ATOM     90  C16 non d ame     -11.831  12.532  66.111  0.00  0.00    -0.035 C 
ATOM     91  H21 non d ame     -12.459  11.643  66.029  0.00  0.00     0.037 H 
ATOM     92  H22 non d ame     -12.285  13.502  66.314  0.00  0.00     0.037 H 
BRANCH  90  93
ATOM     93  C17 non d ame     -11.084  12.671  64.746  0.00  0.00    -0.059 C 
ATOM     94  H23 non d ame     -10.246  13.351  64.896  0.00  0.00     0.038 H 
BRANCH  93  95
ATOM     95  C18 non d ame     -10.508  11.307  64.248  0.00  0.00    -0.073 C 
ATOM     96  H24 non d ame      -9.615  11.059  64.823  0.00  0.00     0.028 H 
ATOM     97  H25 non d ame     -11.256  10.526  64.384  0.00  0.00     0.028 H 
ATOM     98  H26 non d ame     -10.251  11.385  63.192  0.00  0.00     0.028 H 
ENDBRANCH  93  95
BRANCH  93  99
ATOM     99  C19 non d ame     -11.993  13.298  63.686  0.00  0.00    -0.073 C 
ATOM    100  H27 non d ame     -12.098  14.366  63.883  0.00  0.00     0.028 H 
ATOM    101  H28 non d ame     -11.553  13.151  62.699  0.00  0.00     0.028 H 
ATOM    102  H29 non d ame     -12.973  12.823  63.720  0.00  0.00     0.028 H 
ENDBRANCH  93  99
ENDBRANCH  90  93
ENDBRANCH   1  90
TORSDOF 26
ENDMDL
MODEL 15
REMARK VINA RESULT:      -5.8      3.730      7.687
REMARK  26 active torsions:
REMARK  status: ('A' for Active; 'I' for Inactive)
REMARK    1  A    between atoms: C2_2  and  C3_3 
REMARK    2  A    between atoms: C4_6  and  C5_7 
REMARK       I    between atoms: C5_7  and  N2_9 
REMARK    3  A    between atoms: N2_9  and  C6_10 
REMARK    4  A    between atoms: C6_10  and  C7_11 
REMARK    5  A    between atoms: C6_10  and  C8_13 
REMARK       I    between atoms: C7_11  and  N3_14 
REMARK    6  A    between atoms: N3_14  and  C9_15 
REMARK    7  A    between atoms: C9_15  and  C10_16 
REMARK    8  A    between atoms: C9_15  and  C11_18 
REMARK       I    between atoms: C10_16  and  N4_21 
REMARK    9  A    between atoms: C11_18  and  C12_19 
REMARK   10  A    between atoms: C11_18  and  C13_20 
REMARK   11  A    between atoms: N4_21  and  C14_22 
REMARK   12  A    between atoms: C14_22  and  C15_23 
REMARK   13  A    between atoms: C14_22  and  C16_25 
REMARK       I    between atoms: C15_23  and  N6_40 
REMARK   14  A    between atoms: C16_25  and  C17_26 
REMARK   15  A    between atoms: C17_26  and  C18_27 
REMARK   16  A    between atoms: C17_26  and  C19_28 
REMARK   17  A    between atoms: C20_29  and  C21_30 
REMARK   18  A    between atoms: C20_29  and  C24_33 
REMARK   19  A    between atoms: C20_29  and  N6_40 
REMARK   20  A    between atoms: C21_30  and  C22_31 
REMARK   21  A    between atoms: C22_31  and  C23_32 
REMARK   22  A    between atoms: C23_32  and  O8_43 
REMARK   23  A    between atoms: C24_33  and  C25_34 
REMARK   24  A    between atoms: C28_38  and  O6_39 
REMARK   25  A    between atoms: C29_42  and  O8_43 
REMARK   26  A    between atoms: C29_42  and  C35_49 
ROOT
ATOM      1  C14 non d ame      -8.377   8.745  63.104  0.00  0.00     0.089 C 
ATOM      2  H20 non d ame      -9.264   9.032  62.537  0.00  0.00     0.087 H 
ENDROOT
BRANCH   1   3
ATOM      3  N4  non d ame      -8.416   9.462  64.370  0.00  0.00    -0.346 N 
ATOM      4  C10 non d ame      -9.311  10.665  64.538  0.00  0.00     0.241 C 
ATOM      5  O4  non d ame      -9.988  11.039  63.637  0.00  0.00    -0.271 OA
ATOM      6  H19 non d ame      -7.830   9.130  65.123  0.00  0.00     0.163 HD
BRANCH   4   7
ATOM      7  C9  non d ame      -9.343  11.392  65.856  0.00  0.00     0.092 C 
ATOM      8  H11 non d ame      -8.325  11.654  66.147  0.00  0.00     0.088 H 
BRANCH   7   9
ATOM      9  N3  non d ame     -10.085  12.648  65.705  0.00  0.00    -0.346 N 
ATOM     10  C7  non d ame      -9.599  13.852  66.330  0.00  0.00     0.240 C 
ATOM     11  O3  non d ame      -8.613  13.831  66.959  0.00  0.00    -0.271 OA
ATOM     12  H10 non d ame     -10.939  12.682  65.165  0.00  0.00     0.163 HD
BRANCH  10  13
ATOM     13  C6  non d ame     -10.396  15.184  66.167  0.00  0.00     0.086 C 
ATOM     14  H6  non d ame     -11.033  15.402  67.024  0.00  0.00     0.086 H 
BRANCH  13  15
ATOM     15  N2  non d ame      -9.454  16.286  66.059  0.00  0.00    -0.343 N 
ATOM     16  C5  non d ame      -9.510  17.382  67.029  0.00  0.00     0.273 C 
ATOM     17  O2  non d ame     -10.319  17.369  67.890  0.00  0.00    -0.266 OA
ATOM     18  H5  non d ame      -8.767  16.291  65.318  0.00  0.00     0.163 HD
BRANCH  16  19
ATOM     19  C4  non d ame      -8.520  18.552  66.927  0.00  0.00     0.154 A 
ATOM     20  C1  non d ame      -7.740  19.120  67.984  0.00  0.00    -0.017 A 
ATOM     21  C2  non d ame      -7.002  20.158  67.374  0.00  0.00     0.077 A 
ATOM     22  H1  non d ame      -7.714  18.824  69.033  0.00  0.00     0.091 H 
ATOM     23  O1  non d ame      -7.324  20.174  66.114  0.00  0.00    -0.218 OA
ATOM     24  N1  non d ame      -8.209  19.247  65.829  0.00  0.00    -0.123 NA
BRANCH  21  25
ATOM     25  C3  non d ame      -6.009  21.084  68.064  0.00  0.00    -0.029 C 
ATOM     26  H2  non d ame      -5.208  20.493  68.508  0.00  0.00     0.036 H 
ATOM     27  H3  non d ame      -5.589  21.775  67.335  0.00  0.00     0.036 H 
ATOM     28  H4  non d ame      -6.520  21.648  68.846  0.00  0.00     0.036 H 
ENDBRANCH  21  25
ENDBRANCH  16  19
ENDBRANCH  13  15
BRANCH  13  29
ATOM     29  C8  non d ame     -11.252  15.114  64.928  0.00  0.00    -0.049 C 
ATOM     30  H7  non d ame     -10.743  15.619  64.107  0.00  0.00     0.030 H 
ATOM     31  H8  non d ame     -11.424  14.071  64.663  0.00  0.00     0.030 H 
ATOM     32  H9  non d ame     -12.207  15.603  65.119  0.00  0.00     0.030 H 
ENDBRANCH  13  29
ENDBRANCH  10  13
ENDBRANCH   7   9
BRANCH   7  33
ATOM     33  C11 non d ame     -10.046  10.502  66.922  0.00  0.00    -0.033 C 
ATOM     34  H12 non d ame     -10.284   9.550  66.450  0.00  0.00     0.042 H 
BRANCH  33  35
ATOM     35  C12 non d ame      -9.100  10.205  68.128  0.00  0.00    -0.071 C 
ATOM     36  H13 non d ame      -8.146  10.709  67.974  0.00  0.00     0.028 H 
ATOM     37  H14 non d ame      -9.559  10.567  69.047  0.00  0.00     0.028 H 
ATOM     38  H15 non d ame      -8.935   9.130  68.201  0.00  0.00     0.028 H 
ENDBRANCH  33  35
BRANCH  33  39
ATOM     39  C13 non d ame     -11.384  11.153  67.400  0.00  0.00    -0.071 C 
ATOM     40  H16 non d ame     -12.225  10.587  67.001  0.00  0.00     0.028 H 
ATOM     41  H17 non d ame     -11.423  11.143  68.490  0.00  0.00     0.028 H 
ATOM     42  H18 non d ame     -11.435  12.181  67.044  0.00  0.00     0.028 H 
ENDBRANCH  33  39
ENDBRANCH   7  33
ENDBRANCH   4   7
ENDBRANCH   1   3
BRANCH   1  43
ATOM     43  C15 non d ame      -8.338   7.219  63.401  0.00  0.00     0.240 C 
ATOM     44  O5  non d ame      -8.083   6.453  62.529  0.00  0.00    -0.271 OA
ATOM     45  N6  non d ame      -8.609   6.713  64.777  0.00  0.00    -0.355 N 
ATOM     46  H46 non d ame      -8.822   7.354  65.527  0.00  0.00     0.162 HD
BRANCH  45  47
ATOM     47  C20 non d ame      -8.567   5.259  65.044  0.00  0.00     0.013 C 
ATOM     48  H30 non d ame      -8.562   4.741  64.084  0.00  0.00     0.072 H 
BRANCH  47  49
ATOM     49  C21 non d ame      -9.789   4.860  65.839  0.00  0.00    -0.038 C 
ATOM     50  H31 non d ame     -10.600   4.787  65.116  0.00  0.00     0.036 H 
ATOM     51  H32 non d ame      -9.492   3.984  66.417  0.00  0.00     0.036 H 
BRANCH  49  52
ATOM     52  C22 non d ame     -10.213   5.935  66.864  0.00  0.00     0.018 C 
ATOM     53  H33 non d ame      -9.586   6.803  66.659  0.00  0.00     0.048 H 
ATOM     54  H34 non d ame     -11.297   6.014  66.777  0.00  0.00     0.048 H 
BRANCH  52  55
ATOM     55  C23 non d ame      -9.929   5.541  68.340  0.00  0.00     0.259 C 
ATOM     56  O7  non d ame      -9.498   4.465  68.604  0.00  0.00    -0.265 OA
BRANCH  55  57
ATOM     57  O8  non d ame     -10.202   6.476  69.376  0.00  0.00    -0.317 OA
BRANCH  57  58
ATOM     58  C29 non d ame     -11.353   6.153  70.163  0.00  0.00     0.052 C 
ATOM     59  H47 non d ame     -12.079   5.737  69.465  0.00  0.00     0.082 H 
ATOM     60  H48 non d ame     -10.983   5.547  70.990  0.00  0.00     0.082 H 
BRANCH  58  61
ATOM     61  C35 non d ame     -11.925   7.475  70.739  0.00  0.00    -0.034 A 
ATOM     62  C30 non d ame     -11.245   8.673  70.545  0.00  0.00    -0.075 A 
ATOM     63  C31 non d ame     -11.760   9.860  71.063  0.00  0.00    -0.082 A 
ATOM     64  H49 non d ame     -10.310   8.681  69.985  0.00  0.00     0.084 H 
ATOM     65  C32 non d ame     -12.958   9.846  71.782  0.00  0.00    -0.083 A 
ATOM     66  H50 non d ame     -11.226  10.798  70.905  0.00  0.00     0.083 H 
ATOM     67  C33 non d ame     -13.631   8.647  71.978  0.00  0.00    -0.082 A 
ATOM     68  H51 non d ame     -13.367  10.770  72.190  0.00  0.00     0.083 H 
ATOM     69  C34 non d ame     -13.121   7.459  71.459  0.00  0.00    -0.075 A 
ATOM     70  H52 non d ame     -14.565   8.640  72.541  0.00  0.00     0.083 H 
ATOM     71  H53 non d ame     -13.657   6.522  71.616  0.00  0.00     0.084 H 
ENDBRANCH  58  61
ENDBRANCH  57  58
ENDBRANCH  55  57
ENDBRANCH  52  55
ENDBRANCH  49  52
ENDBRANCH  47  49
BRANCH  47  72
ATOM     72  C24 non d ame      -7.307   4.916  65.837  0.00  0.00    -0.039 C 
ATOM     73  H35 non d ame      -7.547   5.148  66.875  0.00  0.00     0.036 H 
ATOM     74  H36 non d ame      -7.054   3.895  65.552  0.00  0.00     0.036 H 
BRANCH  72  75
ATOM     75  C25 non d ame      -6.071   5.845  65.418  0.00  0.00    -0.001 C 
ATOM     76  C26 non d ame      -4.761   4.911  65.077  0.00  0.00    -0.035 C 
ATOM     77  C27 non d ame      -3.700   5.375  65.781  0.00  0.00     0.085 C 
ATOM     78  H38 non d ame      -4.906   3.905  65.468  0.00  0.00     0.036 H 
ATOM     79  H39 non d ame      -4.459   5.054  64.040  0.00  0.00     0.036 H 
ATOM     80  N5  non d ame      -4.242   6.331  66.817  0.00  0.00    -0.049 N 
ATOM     81  H40 non d ame      -3.282   4.503  66.286  0.00  0.00     0.075 H 
ATOM     82  H41 non d ame      -3.097   5.932  65.065  0.00  0.00     0.075 H 
ATOM     83  C28 non d ame      -5.756   6.662  66.367  0.00  0.00     0.193 C 
ATOM     84  H42 non d ame      -4.269   5.823  67.689  0.00  0.00     0.280 HD
ATOM     85  H43 non d ame      -3.693   7.175  66.742  0.00  0.00     0.280 HD
ATOM     86  H44 non d ame      -5.999   7.615  65.897  0.00  0.00     0.129 H 
ATOM     87  H37 non d ame      -6.351   6.595  64.679  0.00  0.00     0.046 H 
BRANCH  83  88
ATOM     88  O6  non d ame      -6.638   6.553  67.486  0.00  0.00    -0.369 OA
ATOM     89  H45 non d ame      -7.107   7.383  67.605  0.00  0.00     0.212 HD
ENDBRANCH  83  88
ENDBRANCH  72  75
ENDBRANCH  47  72
ENDBRANCH  45  47
ENDBRANCH   1  43
BRANCH   1  90
ATOM     90  C16 non d ame      -7.126   9.151  62.343  0.00  0.00    -0.035 C 
ATOM     91  H21 non d ame      -6.954   8.350  61.622  0.00  0.00     0.037 H 
ATOM     92  H22 non d ame      -7.316  10.166  61.995  0.00  0.00     0.037 H 
BRANCH  90  93
ATOM     93  C17 non d ame      -5.845   9.223  63.234  0.00  0.00    -0.059 C 
ATOM     94  H23 non d ame      -6.146   9.019  64.262  0.00  0.00     0.038 H 
BRANCH  93  95
ATOM     95  C18 non d ame      -4.783   8.152  62.828  0.00  0.00    -0.073 C 
ATOM     96  H24 non d ame      -3.826   8.641  62.648  0.00  0.00     0.028 H 
ATOM     97  H25 non d ame      -4.674   7.425  63.633  0.00  0.00     0.028 H 
ATOM     98  H26 non d ame      -5.109   7.643  61.921  0.00  0.00     0.028 H 
ENDBRANCH  93  95
BRANCH  93  99
ATOM     99  C19 non d ame      -5.239  10.629  63.209  0.00  0.00    -0.073 C 
ATOM    100  H27 non d ame      -4.198  10.581  63.533  0.00  0.00     0.028 H 
ATOM    101  H28 non d ame      -5.287  11.025  62.195  0.00  0.00     0.028 H 
ATOM    102  H29 non d ame      -5.800  11.279  63.879  0.00  0.00     0.028 H 
ENDBRANCH  93  99
ENDBRANCH  90  93
ENDBRANCH   1  90
TORSDOF 26
ENDMDL
MODEL 16
REMARK VINA RESULT:      -5.8      3.317      7.809
REMARK  26 active torsions:
REMARK  status: ('A' for Active; 'I' for Inactive)
REMARK    1  A    between atoms: C2_2  and  C3_3 
REMARK    2  A    between atoms: C4_6  and  C5_7 
REMARK       I    between atoms: C5_7  and  N2_9 
REMARK    3  A    between atoms: N2_9  and  C6_10 
REMARK    4  A    between atoms: C6_10  and  C7_11 
REMARK    5  A    between atoms: C6_10  and  C8_13 
REMARK       I    between atoms: C7_11  and  N3_14 
REMARK    6  A    between atoms: N3_14  and  C9_15 
REMARK    7  A    between atoms: C9_15  and  C10_16 
REMARK    8  A    between atoms: C9_15  and  C11_18 
REMARK       I    between atoms: C10_16  and  N4_21 
REMARK    9  A    between atoms: C11_18  and  C12_19 
REMARK   10  A    between atoms: C11_18  and  C13_20 
REMARK   11  A    between atoms: N4_21  and  C14_22 
REMARK   12  A    between atoms: C14_22  and  C15_23 
REMARK   13  A    between atoms: C14_22  and  C16_25 
REMARK       I    between atoms: C15_23  and  N6_40 
REMARK   14  A    between atoms: C16_25  and  C17_26 
REMARK   15  A    between atoms: C17_26  and  C18_27 
REMARK   16  A    between atoms: C17_26  and  C19_28 
REMARK   17  A    between atoms: C20_29  and  C21_30 
REMARK   18  A    between atoms: C20_29  and  C24_33 
REMARK   19  A    between atoms: C20_29  and  N6_40 
REMARK   20  A    between atoms: C21_30  and  C22_31 
REMARK   21  A    between atoms: C22_31  and  C23_32 
REMARK   22  A    between atoms: C23_32  and  O8_43 
REMARK   23  A    between atoms: C24_33  and  C25_34 
REMARK   24  A    between atoms: C28_38  and  O6_39 
REMARK   25  A    between atoms: C29_42  and  O8_43 
REMARK   26  A    between atoms: C29_42  and  C35_49 
ROOT
ATOM      1  C14 non d ame      -7.699  10.999  68.920  0.00  0.00     0.089 C 
ATOM      2  H20 non d ame      -7.541  10.978  69.999  0.00  0.00     0.087 H 
ENDROOT
BRANCH   1   3
ATOM      3  N4  non d ame      -8.662   9.957  68.598  0.00  0.00    -0.346 N 
ATOM      4  C10 non d ame      -9.011   8.901  69.618  0.00  0.00     0.241 C 
ATOM      5  O4  non d ame      -8.502   8.910  70.690  0.00  0.00    -0.271 OA
ATOM      6  H19 non d ame      -9.083   9.964  67.680  0.00  0.00     0.163 HD
BRANCH   4   7
ATOM      7  C9  non d ame     -10.014   7.832  69.270  0.00  0.00     0.092 C 
ATOM      8  H11 non d ame     -10.871   8.291  68.777  0.00  0.00     0.088 H 
BRANCH   7   9
ATOM      9  N3  non d ame      -9.416   6.894  68.314  0.00  0.00    -0.346 N 
ATOM     10  C7  non d ame     -10.155   6.489  67.145  0.00  0.00     0.240 C 
ATOM     11  O3  non d ame     -11.232   6.907  66.955  0.00  0.00    -0.271 OA
ATOM     12  H10 non d ame      -8.488   6.524  68.464  0.00  0.00     0.163 HD
BRANCH  10  13
ATOM     13  C6  non d ame      -9.515   5.487  66.133  0.00  0.00     0.086 C 
ATOM     14  H6  non d ame     -10.142   5.311  65.260  0.00  0.00     0.086 H 
BRANCH  13  15
ATOM     15  N2  non d ame      -8.266   6.048  65.642  0.00  0.00    -0.343 N 
ATOM     16  C5  non d ame      -7.896   5.864  64.237  0.00  0.00     0.273 C 
ATOM     17  O2  non d ame      -8.608   5.262  63.511  0.00  0.00    -0.266 OA
ATOM     18  H5  non d ame      -7.663   6.559  66.270  0.00  0.00     0.163 HD
BRANCH  16  19
ATOM     19  C4  non d ame      -6.581   6.452  63.704  0.00  0.00     0.154 A 
ATOM     20  C1  non d ame      -6.200   7.831  63.672  0.00  0.00    -0.017 A 
ATOM     21  C2  non d ame      -4.911   7.839  63.094  0.00  0.00     0.077 A 
ATOM     22  H1  non d ame      -6.771   8.694  64.016  0.00  0.00     0.091 H 
ATOM     23  O1  non d ame      -4.597   6.604  62.831  0.00  0.00    -0.218 OA
ATOM     24  N1  non d ame      -5.555   5.776  63.178  0.00  0.00    -0.123 NA
BRANCH  21  25
ATOM     25  C3  non d ame      -4.049   9.066  62.830  0.00  0.00    -0.029 C 
ATOM     26  H2  non d ame      -4.494   9.659  62.031  0.00  0.00     0.036 H 
ATOM     27  H3  non d ame      -3.985   9.668  63.737  0.00  0.00     0.036 H 
ATOM     28  H4  non d ame      -3.047   8.751  62.534  0.00  0.00     0.036 H 
ENDBRANCH  21  25
ENDBRANCH  16  19
ENDBRANCH  13  15
BRANCH  13  29
ATOM     29  C8  non d ame      -9.255   4.171  66.820  0.00  0.00    -0.049 C 
ATOM     30  H7  non d ame     -10.191   3.776  67.214  0.00  0.00     0.030 H 
ATOM     31  H8  non d ame      -8.833   3.464  66.107  0.00  0.00     0.030 H 
ATOM     32  H9  non d ame      -8.552   4.323  67.641  0.00  0.00     0.030 H 
ENDBRANCH  13  29
ENDBRANCH  10  13
ENDBRANCH   7   9
BRANCH   7  33
ATOM     33  C11 non d ame     -10.422   7.065  70.561  0.00  0.00    -0.033 C 
ATOM     34  H12 non d ame     -10.043   7.628  71.413  0.00  0.00     0.042 H 
BRANCH  33  35
ATOM     35  C12 non d ame     -11.974   6.981  70.706  0.00  0.00    -0.071 C 
ATOM     36  H13 non d ame     -12.413   7.953  70.481  0.00  0.00     0.028 H 
ATOM     37  H14 non d ame     -12.364   6.237  70.013  0.00  0.00     0.028 H 
ATOM     38  H15 non d ame     -12.227   6.697  71.726  0.00  0.00     0.028 H 
ENDBRANCH  33  35
BRANCH  33  39
ATOM     39  C13 non d ame      -9.774   5.643  70.595  0.00  0.00    -0.071 C 
ATOM     40  H16 non d ame      -8.809   5.696  71.098  0.00  0.00     0.028 H 
ATOM     41  H17 non d ame     -10.429   4.958  71.135  0.00  0.00     0.028 H 
ATOM     42  H18 non d ame      -9.634   5.283  69.576  0.00  0.00     0.028 H 
ENDBRANCH  33  39
ENDBRANCH   7  33
ENDBRANCH   4   7
ENDBRANCH   1   3
BRANCH   1  43
ATOM     43  C15 non d ame      -8.268  12.364  68.437  0.00  0.00     0.240 C 
ATOM     44  O5  non d ame      -7.543  13.297  68.314  0.00  0.00    -0.271 OA
ATOM     45  N6  non d ame      -9.718  12.505  68.117  0.00  0.00    -0.355 N 
ATOM     46  H46 non d ame     -10.342  11.718  68.213  0.00  0.00     0.162 HD
BRANCH  45  47
ATOM     47  C20 non d ame     -10.243  13.808  67.658  0.00  0.00     0.013 C 
ATOM     48  H30 non d ame      -9.617  14.592  68.083  0.00  0.00     0.072 H 
BRANCH  47  49
ATOM     49  C21 non d ame     -11.668  13.970  68.136  0.00  0.00    -0.038 C 
ATOM     50  H31 non d ame     -12.294  13.787  67.263  0.00  0.00     0.036 H 
ATOM     51  H32 non d ame     -11.758  13.332  69.015  0.00  0.00     0.036 H 
BRANCH  49  52
ATOM     52  C22 non d ame     -11.982  15.407  68.605  0.00  0.00     0.018 C 
ATOM     53  H33 non d ame     -11.916  16.031  67.714  0.00  0.00     0.048 H 
ATOM     54  H34 non d ame     -12.921  15.340  69.154  0.00  0.00     0.048 H 
BRANCH  52  55
ATOM     55  C23 non d ame     -10.941  15.981  69.607  0.00  0.00     0.259 C 
ATOM     56  O7  non d ame     -10.848  15.531  70.703  0.00  0.00    -0.265 OA
BRANCH  55  57
ATOM     57  O8  non d ame     -10.109  17.061  69.204  0.00  0.00    -0.317 OA
BRANCH  57  58
ATOM     58  C29 non d ame     -10.487  17.653  67.957  0.00  0.00     0.052 C 
ATOM     59  H47 non d ame     -11.008  16.871  67.406  0.00  0.00     0.082 H 
ATOM     60  H48 non d ame     -11.005  18.576  68.214  0.00  0.00     0.082 H 
BRANCH  58  61
ATOM     61  C35 non d ame      -9.189  18.017  67.187  0.00  0.00    -0.034 A 
ATOM     62  C30 non d ame      -8.968  19.326  66.773  0.00  0.00    -0.075 A 
ATOM     63  C31 non d ame      -7.802  19.652  66.082  0.00  0.00    -0.082 A 
ATOM     64  H49 non d ame      -9.707  20.097  66.992  0.00  0.00     0.084 H 
ATOM     65  C32 non d ame      -6.857  18.662  65.801  0.00  0.00    -0.083 A 
ATOM     66  H50 non d ame      -7.630  20.680  65.762  0.00  0.00     0.083 H 
ATOM     67  C33 non d ame      -7.084  17.355  66.212  0.00  0.00    -0.082 A 
ATOM     68  H51 non d ame      -5.943  18.909  65.261  0.00  0.00     0.083 H 
ATOM     69  C34 non d ame      -8.247  17.026  66.906  0.00  0.00    -0.075 A 
ATOM     70  H52 non d ame      -6.345  16.585  65.989  0.00  0.00     0.083 H 
ATOM     71  H53 non d ame      -8.417  15.997  67.226  0.00  0.00     0.084 H 
ENDBRANCH  58  61
ENDBRANCH  57  58
ENDBRANCH  55  57
ENDBRANCH  52  55
ENDBRANCH  49  52
ENDBRANCH  47  49
BRANCH  47  72
ATOM     72  C24 non d ame     -10.207  13.870  66.132  0.00  0.00    -0.039 C 
ATOM     73  H35 non d ame     -10.151  14.931  65.886  0.00  0.00     0.036 H 
ATOM     74  H36 non d ame      -9.400  13.199  65.833  0.00  0.00     0.036 H 
BRANCH  72  75
ATOM     75  C25 non d ame     -11.557  13.304  65.482  0.00  0.00    -0.001 C 
ATOM     76  C26 non d ame     -11.293  11.805  64.859  0.00  0.00    -0.035 C 
ATOM     77  C27 non d ame     -11.739  11.781  63.580  0.00  0.00     0.085 C 
ATOM     78  H38 non d ame     -10.223  11.625  64.759  0.00  0.00     0.036 H 
ATOM     79  H39 non d ame     -11.925  11.074  65.363  0.00  0.00     0.036 H 
ATOM     80  N5  non d ame     -11.982  13.213  63.169  0.00  0.00    -0.049 N 
ATOM     81  H40 non d ame     -10.914  11.377  62.992  0.00  0.00     0.075 H 
ATOM     82  H41 non d ame     -12.692  11.255  63.614  0.00  0.00     0.075 H 
ATOM     83  C28 non d ame     -11.980  14.073  64.536  0.00  0.00     0.193 C 
ATOM     84  H42 non d ame     -11.186  13.490  62.614  0.00  0.00     0.280 HD
ATOM     85  H43 non d ame     -12.910  13.244  62.773  0.00  0.00     0.280 HD
ATOM     86  H44 non d ame     -12.915  14.427  64.970  0.00  0.00     0.129 H 
ATOM     87  H37 non d ame     -12.414  13.421  66.146  0.00  0.00     0.046 H 
BRANCH  83  88
ATOM     88  O6  non d ame     -11.166  15.238  64.384  0.00  0.00    -0.369 OA
ATOM     89  H45 non d ame     -11.661  15.915  63.917  0.00  0.00     0.212 HD
ENDBRANCH  83  88
ENDBRANCH  72  75
ENDBRANCH  47  72
ENDBRANCH  45  47
ENDBRANCH   1  43
BRANCH   1  90
ATOM     90  C16 non d ame      -6.392  10.706  68.202  0.00  0.00    -0.035 C 
ATOM     91  H21 non d ame      -6.461   9.662  67.893  0.00  0.00     0.037 H 
ATOM     92  H22 non d ame      -6.293  11.491  67.452  0.00  0.00     0.037 H 
BRANCH  90  93
ATOM     93  C17 non d ame      -5.134  10.812  69.121  0.00  0.00    -0.059 C 
ATOM     94  H23 non d ame      -4.566   9.889  69.010  0.00  0.00     0.038 H 
BRANCH  93  95
ATOM     95  C18 non d ame      -4.202  11.997  68.712  0.00  0.00    -0.073 C 
ATOM     96  H24 non d ame      -3.234  11.882  69.198  0.00  0.00     0.028 H 
ATOM     97  H25 non d ame      -4.068  11.996  67.630  0.00  0.00     0.028 H 
ATOM     98  H26 non d ame      -4.656  12.939  69.021  0.00  0.00     0.028 H 
ENDBRANCH  93  95
BRANCH  93  99
ATOM     99  C19 non d ame      -5.539  10.921  70.594  0.00  0.00    -0.073 C 
ATOM    100  H27 non d ame      -5.483   9.937  71.060  0.00  0.00     0.028 H 
ATOM    101  H28 non d ame      -4.863  11.606  71.105  0.00  0.00     0.028 H 
ATOM    102  H29 non d ame      -6.559  11.299  70.663  0.00  0.00     0.028 H 
ENDBRANCH  93  99
ENDBRANCH  90  93
ENDBRANCH   1  90
TORSDOF 26
ENDMDL
MODEL 17
REMARK VINA RESULT:      -5.7      3.492      7.887
REMARK  26 active torsions:
REMARK  status: ('A' for Active; 'I' for Inactive)
REMARK    1  A    between atoms: C2_2  and  C3_3 
REMARK    2  A    between atoms: C4_6  and  C5_7 
REMARK       I    between atoms: C5_7  and  N2_9 
REMARK    3  A    between atoms: N2_9  and  C6_10 
REMARK    4  A    between atoms: C6_10  and  C7_11 
REMARK    5  A    between atoms: C6_10  and  C8_13 
REMARK       I    between atoms: C7_11  and  N3_14 
REMARK    6  A    between atoms: N3_14  and  C9_15 
REMARK    7  A    between atoms: C9_15  and  C10_16 
REMARK    8  A    between atoms: C9_15  and  C11_18 
REMARK       I    between atoms: C10_16  and  N4_21 
REMARK    9  A    between atoms: C11_18  and  C12_19 
REMARK   10  A    between atoms: C11_18  and  C13_20 
REMARK   11  A    between atoms: N4_21  and  C14_22 
REMARK   12  A    between atoms: C14_22  and  C15_23 
REMARK   13  A    between atoms: C14_22  and  C16_25 
REMARK       I    between atoms: C15_23  and  N6_40 
REMARK   14  A    between atoms: C16_25  and  C17_26 
REMARK   15  A    between atoms: C17_26  and  C18_27 
REMARK   16  A    between atoms: C17_26  and  C19_28 
REMARK   17  A    between atoms: C20_29  and  C21_30 
REMARK   18  A    between atoms: C20_29  and  C24_33 
REMARK   19  A    between atoms: C20_29  and  N6_40 
REMARK   20  A    between atoms: C21_30  and  C22_31 
REMARK   21  A    between atoms: C22_31  and  C23_32 
REMARK   22  A    between atoms: C23_32  and  O8_43 
REMARK   23  A    between atoms: C24_33  and  C25_34 
REMARK   24  A    between atoms: C28_38  and  O6_39 
REMARK   25  A    between atoms: C29_42  and  O8_43 
REMARK   26  A    between atoms: C29_42  and  C35_49 
ROOT
ATOM      1  C14 non d ame      -8.200  10.264  68.399  0.00  0.00     0.089 C 
ATOM      2  H20 non d ame      -7.716  10.206  67.424  0.00  0.00     0.087 H 
ENDROOT
BRANCH   1   3
ATOM      3  N4  non d ame      -9.484  10.923  68.212  0.00  0.00    -0.346 N 
ATOM      4  C10 non d ame      -9.659  11.958  67.129  0.00  0.00     0.241 C 
ATOM      5  O4  non d ame      -8.750  12.246  66.422  0.00  0.00    -0.271 OA
ATOM      6  H19 non d ame     -10.245  10.666  68.825  0.00  0.00     0.163 HD
BRANCH   4   7
ATOM      7  C9  non d ame     -10.996  12.626  66.946  0.00  0.00     0.092 C 
ATOM      8  H11 non d ame     -11.788  11.920  67.197  0.00  0.00     0.088 H 
BRANCH   7   9
ATOM      9  N3  non d ame     -11.111  13.754  67.876  0.00  0.00    -0.346 N 
ATOM     10  C7  non d ame     -11.642  13.544  69.200  0.00  0.00     0.240 C 
ATOM     11  O3  non d ame     -11.983  12.476  69.535  0.00  0.00    -0.271 OA
ATOM     12  H10 non d ame     -10.822  14.682  67.602  0.00  0.00     0.163 HD
BRANCH  10  13
ATOM     13  C6  non d ame     -11.765  14.749  70.184  0.00  0.00     0.086 C 
ATOM     14  H6  non d ame     -11.015  14.726  70.975  0.00  0.00     0.086 H 
BRANCH  13  15
ATOM     15  N2  non d ame     -11.553  15.984  69.446  0.00  0.00    -0.343 N 
ATOM     16  C5  non d ame     -10.187  16.444  69.187  0.00  0.00     0.273 C 
ATOM     17  O2  non d ame      -9.266  15.816  69.579  0.00  0.00    -0.266 OA
ATOM     18  H5  non d ame     -12.346  16.516  69.118  0.00  0.00     0.163 HD
BRANCH  16  19
ATOM     19  C4  non d ame      -9.948  17.747  68.408  0.00  0.00     0.154 A 
ATOM     20  C1  non d ame      -8.712  18.452  68.258  0.00  0.00    -0.017 A 
ATOM     21  C2  non d ame      -9.027  19.572  67.459  0.00  0.00     0.077 A 
ATOM     22  H1  non d ame      -7.736  18.189  68.667  0.00  0.00     0.091 H 
ATOM     23  O1  non d ame     -10.296  19.508  67.184  0.00  0.00    -0.218 OA
ATOM     24  N1  non d ame     -10.856  18.452  67.727  0.00  0.00    -0.123 NA
BRANCH  21  25
ATOM     25  C3  non d ame      -8.057  20.654  67.001  0.00  0.00    -0.029 C 
ATOM     26  H2  non d ame      -7.891  20.563  65.927  0.00  0.00     0.036 H 
ATOM     27  H3  non d ame      -8.475  21.635  67.222  0.00  0.00     0.036 H 
ATOM     28  H4  non d ame      -7.108  20.537  67.526  0.00  0.00     0.036 H 
ENDBRANCH  21  25
ENDBRANCH  16  19
ENDBRANCH  13  15
BRANCH  13  29
ATOM     29  C8  non d ame     -13.135  14.752  70.811  0.00  0.00    -0.049 C 
ATOM     30  H7  non d ame     -13.427  15.777  71.043  0.00  0.00     0.030 H 
ATOM     31  H8  non d ame     -13.855  14.318  70.118  0.00  0.00     0.030 H 
ATOM     32  H9  non d ame     -13.115  14.165  71.730  0.00  0.00     0.030 H 
ENDBRANCH  13  29
ENDBRANCH  10  13
ENDBRANCH   7   9
BRANCH   7  33
ATOM     33  C11 non d ame     -11.119  13.147  65.484  0.00  0.00    -0.033 C 
ATOM     34  H12 non d ame     -10.231  12.825  64.944  0.00  0.00     0.042 H 
BRANCH  33  35
ATOM     35  C12 non d ame     -12.358  12.530  64.763  0.00  0.00    -0.071 C 
ATOM     36  H13 non d ame     -12.048  12.103  63.809  0.00  0.00     0.028 H 
ATOM     37  H14 non d ame     -12.790  11.749  65.387  0.00  0.00     0.028 H 
ATOM     38  H15 non d ame     -13.100  13.308  64.588  0.00  0.00     0.028 H 
ENDBRANCH  33  35
BRANCH  33  39
ATOM     39  C13 non d ame     -11.166  14.709  65.450  0.00  0.00    -0.071 C 
ATOM     40  H16 non d ame     -12.198  15.044  65.540  0.00  0.00     0.028 H 
ATOM     41  H17 non d ame     -10.580  15.108  66.279  0.00  0.00     0.028 H 
ATOM     42  H18 non d ame     -10.749  15.065  64.508  0.00  0.00     0.028 H 
ENDBRANCH  33  39
ENDBRANCH   7  33
ENDBRANCH   4   7
ENDBRANCH   1   3
BRANCH   1  43
ATOM     43  C15 non d ame      -8.450   8.859  69.016  0.00  0.00     0.240 C 
ATOM     44  O5  non d ame      -7.531   8.204  69.388  0.00  0.00    -0.271 OA
ATOM     45  N6  non d ame      -9.839   8.333  69.154  0.00  0.00    -0.355 N 
ATOM     46  H46 non d ame     -10.627   8.883  68.846  0.00  0.00     0.162 HD
BRANCH  45  47
ATOM     47  C20 non d ame     -10.060   6.996  69.743  0.00  0.00     0.013 C 
ATOM     48  H30 non d ame      -9.086   6.542  69.924  0.00  0.00     0.072 H 
BRANCH  47  49
ATOM     49  C21 non d ame     -10.852   6.146  68.775  0.00  0.00    -0.038 C 
ATOM     50  H31 non d ame     -10.385   5.162  68.797  0.00  0.00     0.036 H 
ATOM     51  H32 non d ame     -11.896   6.262  69.067  0.00  0.00     0.036 H 
BRANCH  49  52
ATOM     52  C22 non d ame     -10.748   6.646  67.317  0.00  0.00     0.018 C 
ATOM     53  H33 non d ame     -11.770   6.858  67.003  0.00  0.00     0.048 H 
ATOM     54  H34 non d ame     -10.006   7.444  67.331  0.00  0.00     0.048 H 
BRANCH  52  55
ATOM     55  C23 non d ame     -10.209   5.577  66.325  0.00  0.00     0.259 C 
ATOM     56  O7  non d ame     -10.858   4.616  66.065  0.00  0.00    -0.265 OA
BRANCH  55  57
ATOM     57  O8  non d ame      -8.924   5.753  65.742  0.00  0.00    -0.317 OA
BRANCH  57  58
ATOM     58  C29 non d ame      -8.302   6.999  66.071  0.00  0.00     0.052 C 
ATOM     59  H47 non d ame      -8.949   7.465  66.812  0.00  0.00     0.082 H 
ATOM     60  H48 non d ame      -7.271   6.754  66.325  0.00  0.00     0.082 H 
BRANCH  58  61
ATOM     61  C35 non d ame      -8.296   7.883  64.795  0.00  0.00    -0.034 A 
ATOM     62  C30 non d ame      -8.862   9.153  64.825  0.00  0.00    -0.075 A 
ATOM     63  C31 non d ame      -8.856   9.947  63.679  0.00  0.00    -0.082 A 
ATOM     64  H49 non d ame      -9.309   9.528  65.746  0.00  0.00     0.084 H 
ATOM     65  C32 non d ame      -8.285   9.464  62.498  0.00  0.00    -0.083 A 
ATOM     66  H50 non d ame      -9.298  10.944  63.706  0.00  0.00     0.083 H 
ATOM     67  C33 non d ame      -7.725   8.194  62.472  0.00  0.00    -0.082 A 
ATOM     68  H51 non d ame      -8.276  10.079  61.598  0.00  0.00     0.083 H 
ATOM     69  C34 non d ame      -7.726   7.399  63.616  0.00  0.00    -0.075 A 
ATOM     70  H52 non d ame      -7.282   7.820  61.549  0.00  0.00     0.083 H 
ATOM     71  H53 non d ame      -7.283   6.402  63.588  0.00  0.00     0.084 H 
ENDBRANCH  58  61
ENDBRANCH  57  58
ENDBRANCH  55  57
ENDBRANCH  52  55
ENDBRANCH  49  52
ENDBRANCH  47  49
BRANCH  47  72
ATOM     72  C24 non d ame     -10.834   7.131  71.053  0.00  0.00    -0.039 C 
ATOM     73  H35 non d ame     -11.067   6.111  71.359  0.00  0.00     0.036 H 
ATOM     74  H36 non d ame     -10.216   7.763  71.692  0.00  0.00     0.036 H 
BRANCH  72  75
ATOM     75  C25 non d ame     -12.228   7.892  70.843  0.00  0.00    -0.001 C 
ATOM     76  C26 non d ame     -12.090   9.456  71.330  0.00  0.00    -0.035 C 
ATOM     77  C27 non d ame     -13.104   9.738  72.185  0.00  0.00     0.085 C 
ATOM     78  H38 non d ame     -11.199   9.580  71.943  0.00  0.00     0.036 H 
ATOM     79  H39 non d ame     -12.272  10.127  70.491  0.00  0.00     0.036 H 
ATOM     80  N5  non d ame     -13.727   8.420  72.579  0.00  0.00    -0.049 N 
ATOM     81  H40 non d ame     -12.631  10.183  73.061  0.00  0.00     0.075 H 
ATOM     82  H41 non d ame     -13.824  10.311  71.603  0.00  0.00     0.075 H 
ATOM     83  C28 non d ame     -13.174   7.333  71.522  0.00  0.00     0.193 C 
ATOM     84  H42 non d ame     -13.364   8.194  73.493  0.00  0.00     0.280 HD
ATOM     85  H43 non d ame     -14.722   8.522  72.443  0.00  0.00     0.280 HD
ATOM     86  H44 non d ame     -13.810   6.970  70.715  0.00  0.00     0.129 H 
ATOM     87  H37 non d ame     -12.649   7.716  69.853  0.00  0.00     0.046 H 
BRANCH  83  88
ATOM     88  O6  non d ame     -12.725   6.162  72.207  0.00  0.00    -0.369 OA
ATOM     89  H45 non d ame     -11.928   5.831  71.786  0.00  0.00     0.212 HD
ENDBRANCH  83  88
ENDBRANCH  72  75
ENDBRANCH  47  72
ENDBRANCH  45  47
ENDBRANCH   1  43
BRANCH   1  90
ATOM     90  C16 non d ame      -7.350  11.095  69.347  0.00  0.00    -0.035 C 
ATOM     91  H21 non d ame      -7.920  12.010  69.519  0.00  0.00     0.037 H 
ATOM     92  H22 non d ame      -7.117  10.434  70.181  0.00  0.00     0.037 H 
BRANCH  90  93
ATOM     93  C17 non d ame      -5.982  11.538  68.738  0.00  0.00    -0.059 C 
ATOM     94  H23 non d ame      -6.058  12.595  68.487  0.00  0.00     0.038 H 
BRANCH  93  95
ATOM     95  C18 non d ame      -4.804  11.372  69.751  0.00  0.00    -0.073 C 
ATOM     96  H24 non d ame      -5.180  11.492  70.767  0.00  0.00     0.028 H 
ATOM     97  H25 non d ame      -4.367  10.380  69.640  0.00  0.00     0.028 H 
ATOM     98  H26 non d ame      -4.044  12.128  69.551  0.00  0.00     0.028 H 
ENDBRANCH  93  95
BRANCH  93  99
ATOM     99  C19 non d ame      -5.692  10.783  67.437  0.00  0.00    -0.073 C 
ATOM    100  H27 non d ame      -6.565  10.193  67.158  0.00  0.00     0.028 H 
ATOM    101  H28 non d ame      -5.467  11.499  66.646  0.00  0.00     0.028 H 
ATOM    102  H29 non d ame      -4.837  10.123  67.583  0.00  0.00     0.028 H 
ENDBRANCH  93  99
ENDBRANCH  90  93
ENDBRANCH   1  90
TORSDOF 26
ENDMDL
MODEL 18
REMARK VINA RESULT:      -5.7      4.371      7.956
REMARK  26 active torsions:
REMARK  status: ('A' for Active; 'I' for Inactive)
REMARK    1  A    between atoms: C2_2  and  C3_3 
REMARK    2  A    between atoms: C4_6  and  C5_7 
REMARK       I    between atoms: C5_7  and  N2_9 
REMARK    3  A    between atoms: N2_9  and  C6_10 
REMARK    4  A    between atoms: C6_10  and  C7_11 
REMARK    5  A    between atoms: C6_10  and  C8_13 
REMARK       I    between atoms: C7_11  and  N3_14 
REMARK    6  A    between atoms: N3_14  and  C9_15 
REMARK    7  A    between atoms: C9_15  and  C10_16 
REMARK    8  A    between atoms: C9_15  and  C11_18 
REMARK       I    between atoms: C10_16  and  N4_21 
REMARK    9  A    between atoms: C11_18  and  C12_19 
REMARK   10  A    between atoms: C11_18  and  C13_20 
REMARK   11  A    between atoms: N4_21  and  C14_22 
REMARK   12  A    between atoms: C14_22  and  C15_23 
REMARK   13  A    between atoms: C14_22  and  C16_25 
REMARK       I    between atoms: C15_23  and  N6_40 
REMARK   14  A    between atoms: C16_25  and  C17_26 
REMARK   15  A    between atoms: C17_26  and  C18_27 
REMARK   16  A    between atoms: C17_26  and  C19_28 
REMARK   17  A    between atoms: C20_29  and  C21_30 
REMARK   18  A    between atoms: C20_29  and  C24_33 
REMARK   19  A    between atoms: C20_29  and  N6_40 
REMARK   20  A    between atoms: C21_30  and  C22_31 
REMARK   21  A    between atoms: C22_31  and  C23_32 
REMARK   22  A    between atoms: C23_32  and  O8_43 
REMARK   23  A    between atoms: C24_33  and  C25_34 
REMARK   24  A    between atoms: C28_38  and  O6_39 
REMARK   25  A    between atoms: C29_42  and  O8_43 
REMARK   26  A    between atoms: C29_42  and  C35_49 
ROOT
ATOM      1  C14 non d ame      -8.453   8.366  62.608  0.00  0.00     0.089 C 
ATOM      2  H20 non d ame      -9.193   8.463  61.812  0.00  0.00     0.087 H 
ENDROOT
BRANCH   1   3
ATOM      3  N4  non d ame      -8.934   9.130  63.749  0.00  0.00    -0.346 N 
ATOM      4  C10 non d ame      -9.565  10.486  63.547  0.00  0.00     0.241 C 
ATOM      5  O4  non d ame      -9.671  10.941  62.455  0.00  0.00    -0.271 OA
ATOM      6  H19 non d ame      -8.832   8.727  64.669  0.00  0.00     0.163 HD
BRANCH   4   7
ATOM      7  C9  non d ame     -10.062  11.261  64.738  0.00  0.00     0.092 C 
ATOM      8  H11 non d ame     -10.843  10.689  65.238  0.00  0.00     0.088 H 
BRANCH   7   9
ATOM      9  N3  non d ame      -8.968  11.433  65.701  0.00  0.00    -0.346 N 
ATOM     10  C7  non d ame      -8.937  10.640  66.904  0.00  0.00     0.240 C 
ATOM     11  O3  non d ame      -9.783   9.859  67.116  0.00  0.00    -0.271 OA
ATOM     12  H10 non d ame      -8.232  12.103  65.532  0.00  0.00     0.163 HD
BRANCH  10  13
ATOM     13  C6  non d ame      -7.772  10.829  67.926  0.00  0.00     0.086 C 
ATOM     14  H6  non d ame      -7.987  11.593  68.673  0.00  0.00     0.086 H 
BRANCH  13  15
ATOM     15  N2  non d ame      -7.573   9.584  68.649  0.00  0.00    -0.343 N 
ATOM     16  C5  non d ame      -7.044   9.619  70.014  0.00  0.00     0.273 C 
ATOM     17  O2  non d ame      -6.778  10.654  70.519  0.00  0.00    -0.266 OA
ATOM     18  H5  non d ame      -7.801   8.704  68.208  0.00  0.00     0.163 HD
BRANCH  16  19
ATOM     19  C4  non d ame      -6.829   8.311  70.791  0.00  0.00     0.154 A 
ATOM     20  C1  non d ame      -7.060   8.085  72.185  0.00  0.00    -0.017 A 
ATOM     21  C2  non d ame      -6.714   6.732  72.396  0.00  0.00     0.077 A 
ATOM     22  H1  non d ame      -7.423   8.794  72.929  0.00  0.00     0.091 H 
ATOM     23  O1  non d ame      -6.333   6.246  71.251  0.00  0.00    -0.218 OA
ATOM     24  N1  non d ame      -6.391   7.149  70.299  0.00  0.00    -0.123 NA
BRANCH  21  25
ATOM     25  C3  non d ame      -6.777   5.981  73.720  0.00  0.00    -0.029 C 
ATOM     26  H2  non d ame      -7.736   5.468  73.801  0.00  0.00     0.036 H 
ATOM     27  H3  non d ame      -5.970   5.251  73.763  0.00  0.00     0.036 H 
ATOM     28  H4  non d ame      -6.673   6.688  74.544  0.00  0.00     0.036 H 
ENDBRANCH  21  25
ENDBRANCH  16  19
ENDBRANCH  13  15
BRANCH  13  29
ATOM     29  C8  non d ame      -6.511  11.206  67.191  0.00  0.00    -0.049 C 
ATOM     30  H7  non d ame      -5.646  10.830  67.738  0.00  0.00     0.030 H 
ATOM     31  H8  non d ame      -6.528  10.771  66.192  0.00  0.00     0.030 H 
ATOM     32  H9  non d ame      -6.447  12.292  67.114  0.00  0.00     0.030 H 
ENDBRANCH  13  29
ENDBRANCH  10  13
ENDBRANCH   7   9
BRANCH   7  33
ATOM     33  C11 non d ame     -10.565  12.659  64.274  0.00  0.00    -0.033 C 
ATOM     34  H12 non d ame     -10.120  12.862  63.300  0.00  0.00     0.042 H 
BRANCH  33  35
ATOM     35  C12 non d ame     -12.115  12.674  64.095  0.00  0.00    -0.071 C 
ATOM     36  H13 non d ame     -12.391  13.453  63.383  0.00  0.00     0.028 H 
ATOM     37  H14 non d ame     -12.447  11.706  63.721  0.00  0.00     0.028 H 
ATOM     38  H15 non d ame     -12.588  12.876  65.055  0.00  0.00     0.028 H 
ENDBRANCH  33  35
BRANCH  33  39
ATOM     39  C13 non d ame     -10.099  13.777  65.261  0.00  0.00    -0.071 C 
ATOM     40  H16 non d ame      -9.323  14.379  64.788  0.00  0.00     0.028 H 
ATOM     41  H17 non d ame     -10.947  14.414  65.516  0.00  0.00     0.028 H 
ATOM     42  H18 non d ame      -9.702  13.320  66.167  0.00  0.00     0.028 H 
ENDBRANCH  33  39
ENDBRANCH   7  33
ENDBRANCH   4   7
ENDBRANCH   1   3
BRANCH   1  43
ATOM     43  C15 non d ame      -8.256   6.888  63.050  0.00  0.00     0.240 C 
ATOM     44  O5  non d ame      -7.815   6.095  62.284  0.00  0.00    -0.271 OA
ATOM     45  N6  non d ame      -8.610   6.463  64.435  0.00  0.00    -0.355 N 
ATOM     46  H46 non d ame      -8.982   7.129  65.096  0.00  0.00     0.162 HD
BRANCH  45  47
ATOM     47  C20 non d ame      -8.416   5.055  64.842  0.00  0.00     0.013 C 
ATOM     48  H30 non d ame      -8.136   4.485  63.956  0.00  0.00     0.072 H 
BRANCH  47  49
ATOM     49  C21 non d ame      -9.708   4.516  65.413  0.00  0.00    -0.038 C 
ATOM     50  H31 non d ame     -10.341   4.297  64.554  0.00  0.00     0.036 H 
ATOM     51  H32 non d ame      -9.418   3.717  66.095  0.00  0.00     0.036 H 
BRANCH  49  52
ATOM     52  C22 non d ame     -10.468   5.559  66.261  0.00  0.00     0.018 C 
ATOM     53  H33 non d ame      -9.914   6.491  66.151  0.00  0.00     0.048 H 
ATOM     54  H34 non d ame     -11.507   5.503  65.937  0.00  0.00     0.048 H 
BRANCH  52  55
ATOM     55  C23 non d ame     -10.476   5.244  67.783  0.00  0.00     0.259 C 
ATOM     56  O7  non d ame      -9.895   4.297  68.205  0.00  0.00    -0.265 OA
BRANCH  55  57
ATOM     57  O8  non d ame     -11.198   6.093  68.667  0.00  0.00    -0.317 OA
BRANCH  57  58
ATOM     58  C29 non d ame     -10.418   7.159  69.217  0.00  0.00     0.052 C 
ATOM     59  H47 non d ame      -9.400   6.989  68.869  0.00  0.00     0.082 H 
ATOM     60  H48 non d ame     -10.941   8.076  68.946  0.00  0.00     0.082 H 
BRANCH  58  61
ATOM     61  C35 non d ame     -10.439   7.019  70.762  0.00  0.00    -0.034 A 
ATOM     62  C30 non d ame     -10.302   5.766  71.351  0.00  0.00    -0.075 A 
ATOM     63  C31 non d ame     -10.321   5.642  72.740  0.00  0.00    -0.082 A 
ATOM     64  H49 non d ame     -10.178   4.883  70.725  0.00  0.00     0.084 H 
ATOM     65  C32 non d ame     -10.483   6.776  73.540  0.00  0.00    -0.083 A 
ATOM     66  H50 non d ame     -10.210   4.659  73.198  0.00  0.00     0.083 H 
ATOM     67  C33 non d ame     -10.623   8.024  72.948  0.00  0.00    -0.082 A 
ATOM     68  H51 non d ame     -10.498   6.687  74.626  0.00  0.00     0.083 H 
ATOM     69  C34 non d ame     -10.602   8.153  71.560  0.00  0.00    -0.075 A 
ATOM     70  H52 non d ame     -10.750   8.906  73.576  0.00  0.00     0.083 H 
ATOM     71  H53 non d ame     -10.711   9.137  71.103  0.00  0.00     0.084 H 
ENDBRANCH  58  61
ENDBRANCH  57  58
ENDBRANCH  55  57
ENDBRANCH  52  55
ENDBRANCH  49  52
ENDBRANCH  47  49
BRANCH  47  72
ATOM     72  C24 non d ame      -7.316   4.969  65.898  0.00  0.00    -0.039 C 
ATOM     73  H35 non d ame      -7.804   5.204  66.844  0.00  0.00     0.036 H 
ATOM     74  H36 non d ame      -6.850   3.994  65.753  0.00  0.00     0.036 H 
BRANCH  72  75
ATOM     75  C25 non d ame      -6.181   6.075  65.664  0.00  0.00    -0.001 C 
ATOM     76  C26 non d ame      -4.696   5.372  65.714  0.00  0.00    -0.035 C 
ATOM     77  C27 non d ame      -3.915   6.063  66.580  0.00  0.00     0.085 C 
ATOM     78  H38 non d ame      -4.765   4.384  66.167  0.00  0.00     0.036 H 
ATOM     79  H39 non d ame      -4.189   5.499  64.758  0.00  0.00     0.036 H 
ATOM     80  N5  non d ame      -4.829   6.971  67.368  0.00  0.00    -0.049 N 
ATOM     81  H40 non d ame      -3.492   5.315  67.251  0.00  0.00     0.075 H 
ATOM     82  H41 non d ame      -3.260   6.671  65.959  0.00  0.00     0.075 H 
ATOM     83  C28 non d ame      -6.230   6.996  66.568  0.00  0.00     0.193 C 
ATOM     84  H42 non d ame      -4.976   6.524  68.261  0.00  0.00     0.280 HD
ATOM     85  H43 non d ame      -4.419   7.894  67.327  0.00  0.00     0.280 HD
ATOM     86  H44 non d ame      -6.507   7.857  65.960  0.00  0.00     0.129 H 
ATOM     87  H37 non d ame      -6.398   6.714  64.807  0.00  0.00     0.046 H 
BRANCH  83  88
ATOM     88  O6  non d ame      -7.319   6.803  67.473  0.00  0.00    -0.369 OA
ATOM     89  H45 non d ame      -7.929   7.541  67.401  0.00  0.00     0.212 HD
ENDBRANCH  83  88
ENDBRANCH  72  75
ENDBRANCH  47  72
ENDBRANCH  45  47
ENDBRANCH   1  43
BRANCH   1  90
ATOM     90  C16 non d ame      -7.125   8.944  62.148  0.00  0.00    -0.035 C 
ATOM     91  H21 non d ame      -6.766   8.263  61.374  0.00  0.00     0.037 H 
ATOM     92  H22 non d ame      -7.332   9.985  61.903  0.00  0.00     0.037 H 
BRANCH  90  93
ATOM     93  C17 non d ame      -6.030   8.962  63.261  0.00  0.00    -0.059 C 
ATOM     94  H23 non d ame      -6.468   8.533  64.163  0.00  0.00     0.038 H 
BRANCH  93  95
ATOM     95  C18 non d ame      -4.786   8.097  62.880  0.00  0.00    -0.073 C 
ATOM     96  H24 non d ame      -5.112   7.094  62.605  0.00  0.00     0.028 H 
ATOM     97  H25 non d ame      -4.271   8.555  62.036  0.00  0.00     0.028 H 
ATOM     98  H26 non d ame      -4.108   8.039  63.732  0.00  0.00     0.028 H 
ENDBRANCH  93  95
BRANCH  93  99
ATOM     99  C19 non d ame      -5.613  10.397  63.597  0.00  0.00    -0.073 C 
ATOM    100  H27 non d ame      -5.422  10.944  62.673  0.00  0.00     0.028 H 
ATOM    101  H28 non d ame      -6.415  10.886  64.151  0.00  0.00     0.028 H 
ATOM    102  H29 non d ame      -4.709  10.380  64.205  0.00  0.00     0.028 H 
ENDBRANCH  93  99
ENDBRANCH  90  93
ENDBRANCH   1  90
TORSDOF 26
ENDMDL
MODEL 19
REMARK VINA RESULT:      -5.6      3.546      7.526
REMARK  26 active torsions:
REMARK  status: ('A' for Active; 'I' for Inactive)
REMARK    1  A    between atoms: C2_2  and  C3_3 
REMARK    2  A    between atoms: C4_6  and  C5_7 
REMARK       I    between atoms: C5_7  and  N2_9 
REMARK    3  A    between atoms: N2_9  and  C6_10 
REMARK    4  A    between atoms: C6_10  and  C7_11 
REMARK    5  A    between atoms: C6_10  and  C8_13 
REMARK       I    between atoms: C7_11  and  N3_14 
REMARK    6  A    between atoms: N3_14  and  C9_15 
REMARK    7  A    between atoms: C9_15  and  C10_16 
REMARK    8  A    between atoms: C9_15  and  C11_18 
REMARK       I    between atoms: C10_16  and  N4_21 
REMARK    9  A    between atoms: C11_18  and  C12_19 
REMARK   10  A    between atoms: C11_18  and  C13_20 
REMARK   11  A    between atoms: N4_21  and  C14_22 
REMARK   12  A    between atoms: C14_22  and  C15_23 
REMARK   13  A    between atoms: C14_22  and  C16_25 
REMARK       I    between atoms: C15_23  and  N6_40 
REMARK   14  A    between atoms: C16_25  and  C17_26 
REMARK   15  A    between atoms: C17_26  and  C18_27 
REMARK   16  A    between atoms: C17_26  and  C19_28 
REMARK   17  A    between atoms: C20_29  and  C21_30 
REMARK   18  A    between atoms: C20_29  and  C24_33 
REMARK   19  A    between atoms: C20_29  and  N6_40 
REMARK   20  A    between atoms: C21_30  and  C22_31 
REMARK   21  A    between atoms: C22_31  and  C23_32 
REMARK   22  A    between atoms: C23_32  and  O8_43 
REMARK   23  A    between atoms: C24_33  and  C25_34 
REMARK   24  A    between atoms: C28_38  and  O6_39 
REMARK   25  A    between atoms: C29_42  and  O8_43 
REMARK   26  A    between atoms: C29_42  and  C35_49 
ROOT
ATOM      1  C14 non d ame      -7.104  12.194  68.378  0.00  0.00     0.089 C 
ATOM      2  H20 non d ame      -6.688  13.017  67.796  0.00  0.00     0.087 H 
ENDROOT
BRANCH   1   3
ATOM      3  N4  non d ame      -8.454  12.572  68.767  0.00  0.00    -0.346 N 
ATOM      4  C10 non d ame      -9.361  13.275  67.787  0.00  0.00     0.241 C 
ATOM      5  O4  non d ame      -8.979  13.527  66.691  0.00  0.00    -0.271 OA
ATOM      6  H19 non d ame      -8.759  12.351  69.704  0.00  0.00     0.163 HD
BRANCH   4   7
ATOM      7  C9  non d ame     -10.757  13.654  68.204  0.00  0.00     0.092 C 
ATOM      8  H11 non d ame     -11.447  13.437  67.388  0.00  0.00     0.088 H 
BRANCH   7   9
ATOM      9  N3  non d ame     -11.167  12.832  69.347  0.00  0.00    -0.346 N 
ATOM     10  C7  non d ame     -11.796  11.555  69.127  0.00  0.00     0.240 C 
ATOM     11  O3  non d ame     -11.983  11.171  68.037  0.00  0.00    -0.271 OA
ATOM     12  H10 non d ame     -11.013  13.150  70.294  0.00  0.00     0.163 HD
BRANCH  10  13
ATOM     13  C6  non d ame     -12.232  10.686  70.349  0.00  0.00     0.086 C 
ATOM     14  H6  non d ame     -13.001   9.956  70.094  0.00  0.00     0.086 H 
BRANCH  13  15
ATOM     15  N2  non d ame     -11.084   9.932  70.825  0.00  0.00    -0.343 N 
ATOM     16  C5  non d ame     -11.261   8.544  71.258  0.00  0.00     0.273 C 
ATOM     17  O2  non d ame     -12.331   8.045  71.222  0.00  0.00    -0.266 OA
ATOM     18  H5  non d ame     -10.173  10.368  70.854  0.00  0.00     0.163 HD
BRANCH  16  19
ATOM     19  C4  non d ame     -10.055   7.736  71.762  0.00  0.00     0.154 A 
ATOM     20  C1  non d ame      -9.258   8.003  72.920  0.00  0.00    -0.017 A 
ATOM     21  C2  non d ame      -8.289   6.976  72.939  0.00  0.00     0.077 A 
ATOM     22  H1  non d ame      -9.366   8.818  73.636  0.00  0.00     0.091 H 
ATOM     23  O1  non d ame      -8.514   6.212  71.910  0.00  0.00    -0.218 OA
ATOM     24  N1  non d ame      -9.540   6.635  71.208  0.00  0.00    -0.123 NA
BRANCH  21  25
ATOM     25  C3  non d ame      -7.187   6.795  73.974  0.00  0.00    -0.029 C 
ATOM     26  H2  non d ame      -7.633   6.613  74.952  0.00  0.00     0.036 H 
ATOM     27  H3  non d ame      -6.562   5.948  73.696  0.00  0.00     0.036 H 
ATOM     28  H4  non d ame      -6.576   7.698  74.016  0.00  0.00     0.036 H 
ENDBRANCH  21  25
ENDBRANCH  16  19
ENDBRANCH  13  15
BRANCH  13  29
ATOM     29  C8  non d ame     -12.753  11.580  71.445  0.00  0.00    -0.049 C 
ATOM     30  H7  non d ame     -13.116  12.513  71.011  0.00  0.00     0.030 H 
ATOM     31  H8  non d ame     -13.568  11.080  71.967  0.00  0.00     0.030 H 
ATOM     32  H9  non d ame     -11.949  11.798  72.148  0.00  0.00     0.030 H 
ENDBRANCH  13  29
ENDBRANCH  10  13
ENDBRANCH   7   9
BRANCH   7  33
ATOM     33  C11 non d ame     -10.787  15.156  68.610  0.00  0.00    -0.033 C 
ATOM     34  H12 non d ame     -10.933  15.740  67.703  0.00  0.00     0.042 H 
BRANCH  33  35
ATOM     35  C12 non d ame     -11.983  15.464  69.564  0.00  0.00    -0.071 C 
ATOM     36  H13 non d ame     -12.643  14.598  69.610  0.00  0.00     0.028 H 
ATOM     37  H14 non d ame     -11.605  15.685  70.562  0.00  0.00     0.028 H 
ATOM     38  H15 non d ame     -12.536  16.322  69.186  0.00  0.00     0.028 H 
ENDBRANCH  33  35
BRANCH  33  39
ATOM     39  C13 non d ame      -9.428  15.589  69.250  0.00  0.00    -0.071 C 
ATOM     40  H16 non d ame      -9.618  16.114  70.186  0.00  0.00     0.028 H 
ATOM     41  H17 non d ame      -8.821  14.705  69.446  0.00  0.00     0.028 H 
ATOM     42  H18 non d ame      -8.897  16.249  68.564  0.00  0.00     0.028 H 
ENDBRANCH  33  39
ENDBRANCH   7  33
ENDBRANCH   4   7
ENDBRANCH   1   3
BRANCH   1  43
ATOM     43  C15 non d ame      -7.176  10.873  67.562  0.00  0.00     0.240 C 
ATOM     44  O5  non d ame      -6.177  10.370  67.161  0.00  0.00    -0.271 OA
ATOM     45  N6  non d ame      -8.493  10.229  67.286  0.00  0.00    -0.355 N 
ATOM     46  H46 non d ame      -9.348  10.646  67.625  0.00  0.00     0.162 HD
BRANCH  45  47
ATOM     47  C20 non d ame      -8.545   8.973  66.509  0.00  0.00     0.013 C 
ATOM     48  H30 non d ame      -7.631   8.904  65.919  0.00  0.00     0.072 H 
BRANCH  47  49
ATOM     49  C21 non d ame      -9.749   9.000  65.594  0.00  0.00    -0.038 C 
ATOM     50  H31 non d ame      -9.457   8.438  64.707  0.00  0.00     0.036 H 
ATOM     51  H32 non d ame     -10.589   8.663  66.201  0.00  0.00     0.036 H 
BRANCH  49  52
ATOM     52  C22 non d ame     -10.102  10.424  65.112  0.00  0.00     0.018 C 
ATOM     53  H33 non d ame     -11.185  10.509  65.210  0.00  0.00     0.048 H 
ATOM     54  H34 non d ame      -9.450  11.095  65.670  0.00  0.00     0.048 H 
BRANCH  52  55
ATOM     55  C23 non d ame      -9.789  10.673  63.610  0.00  0.00     0.259 C 
ATOM     56  O7  non d ame     -10.021  11.727  63.112  0.00  0.00    -0.265 OA
BRANCH  55  57
ATOM     57  O8  non d ame      -9.234   9.621  62.830  0.00  0.00    -0.317 OA
BRANCH  57  58
ATOM     58  C29 non d ame      -7.821   9.725  62.634  0.00  0.00     0.052 C 
ATOM     59  H47 non d ame      -7.688  10.012  61.592  0.00  0.00     0.082 H 
ATOM     60  H48 non d ame      -7.461  10.378  63.429  0.00  0.00     0.082 H 
BRANCH  58  61
ATOM     61  C35 non d ame      -7.204   8.316  62.839  0.00  0.00    -0.034 A 
ATOM     62  C30 non d ame      -5.833   8.176  63.031  0.00  0.00    -0.075 A 
ATOM     63  C31 non d ame      -5.280   6.909  63.216  0.00  0.00    -0.082 A 
ATOM     64  H49 non d ame      -5.193   9.058  63.039  0.00  0.00     0.084 H 
ATOM     65  C32 non d ame      -6.102   5.780  63.203  0.00  0.00    -0.083 A 
ATOM     66  H50 non d ame      -4.205   6.804  63.369  0.00  0.00     0.083 H 
ATOM     67  C33 non d ame      -7.469   5.924  63.007  0.00  0.00    -0.082 A 
ATOM     68  H51 non d ame      -5.677   4.787  63.347  0.00  0.00     0.083 H 
ATOM     69  C34 non d ame      -8.027   7.188  62.825  0.00  0.00    -0.075 A 
ATOM     70  H52 non d ame      -8.108   5.040  62.996  0.00  0.00     0.083 H 
ATOM     71  H53 non d ame      -9.102   7.293  62.673  0.00  0.00     0.084 H 
ENDBRANCH  58  61
ENDBRANCH  57  58
ENDBRANCH  55  57
ENDBRANCH  52  55
ENDBRANCH  49  52
ENDBRANCH  47  49
BRANCH  47  72
ATOM     72  C24 non d ame      -8.654   7.782  67.459  0.00  0.00    -0.039 C 
ATOM     73  H35 non d ame      -8.373   8.168  68.440  0.00  0.00     0.036 H 
ATOM     74  H36 non d ame      -9.652   7.374  67.301  0.00  0.00     0.036 H 
BRANCH  72  75
ATOM     75  C25 non d ame      -7.607   6.628  67.088  0.00  0.00    -0.001 C 
ATOM     76  C26 non d ame      -8.399   5.344  66.433  0.00  0.00    -0.035 C 
ATOM     77  C27 non d ame      -8.023   4.220  67.089  0.00  0.00     0.085 C 
ATOM     78  H38 non d ame      -9.466   5.417  66.641  0.00  0.00     0.036 H 
ATOM     79  H39 non d ame      -8.053   5.172  65.414  0.00  0.00     0.036 H 
ATOM     80  N5  non d ame      -7.301   4.659  68.340  0.00  0.00    -0.049 N 
ATOM     81  H40 non d ame      -8.952   3.723  67.371  0.00  0.00     0.075 H 
ATOM     82  H41 non d ame      -7.316   3.720  66.428  0.00  0.00     0.075 H 
ATOM     83  C28 non d ame      -6.964   6.224  68.132  0.00  0.00     0.193 C 
ATOM     84  H42 non d ame      -7.962   4.570  69.098  0.00  0.00     0.280 HD
ATOM     85  H43 non d ame      -6.432   4.145  68.364  0.00  0.00     0.280 HD
ATOM     86  H44 non d ame      -5.954   6.546  67.880  0.00  0.00     0.129 H 
ATOM     87  H37 non d ame      -6.747   7.013  66.539  0.00  0.00     0.046 H 
BRANCH  83  88
ATOM     88  O6  non d ame      -7.319   6.965  69.302  0.00  0.00    -0.369 OA
ATOM     89  H45 non d ame      -7.928   7.667  69.063  0.00  0.00     0.212 HD
ENDBRANCH  83  88
ENDBRANCH  72  75
ENDBRANCH  47  72
ENDBRANCH  45  47
ENDBRANCH   1  43
BRANCH   1  90
ATOM     90  C16 non d ame      -6.270  11.977  69.630  0.00  0.00    -0.035 C 
ATOM     91  H21 non d ame      -6.988  11.924  70.450  0.00  0.00     0.037 H 
ATOM     92  H22 non d ame      -5.634  11.121  69.408  0.00  0.00     0.037 H 
BRANCH  90  93
ATOM     93  C17 non d ame      -5.312  13.165  69.960  0.00  0.00    -0.059 C 
ATOM     94  H23 non d ame      -5.092  13.682  69.026  0.00  0.00     0.038 H 
BRANCH  93  95
ATOM     95  C18 non d ame      -5.966  14.198  70.933  0.00  0.00    -0.073 C 
ATOM     96  H24 non d ame      -6.493  14.958  70.355  0.00  0.00     0.028 H 
ATOM     97  H25 non d ame      -6.671  13.685  71.586  0.00  0.00     0.028 H 
ATOM     98  H26 non d ame      -5.190  14.671  71.535  0.00  0.00     0.028 H 
ENDBRANCH  93  95
BRANCH  93  99
ATOM     99  C19 non d ame      -3.981  12.656  70.521  0.00  0.00    -0.073 C 
ATOM    100  H27 non d ame      -3.159  13.072  69.937  0.00  0.00     0.028 H 
ATOM    101  H28 non d ame      -3.884  12.968  71.561  0.00  0.00     0.028 H 
ATOM    102  H29 non d ame      -3.955  11.568  70.464  0.00  0.00     0.028 H 
ENDBRANCH  93  99
ENDBRANCH  90  93
ENDBRANCH   1  90
TORSDOF 26
ENDMDL
MODEL 20
REMARK VINA RESULT:      -5.6      3.824      7.371
REMARK  26 active torsions:
REMARK  status: ('A' for Active; 'I' for Inactive)
REMARK    1  A    between atoms: C2_2  and  C3_3 
REMARK    2  A    between atoms: C4_6  and  C5_7 
REMARK       I    between atoms: C5_7  and  N2_9 
REMARK    3  A    between atoms: N2_9  and  C6_10 
REMARK    4  A    between atoms: C6_10  and  C7_11 
REMARK    5  A    between atoms: C6_10  and  C8_13 
REMARK       I    between atoms: C7_11  and  N3_14 
REMARK    6  A    between atoms: N3_14  and  C9_15 
REMARK    7  A    between atoms: C9_15  and  C10_16 
REMARK    8  A    between atoms: C9_15  and  C11_18 
REMARK       I    between atoms: C10_16  and  N4_21 
REMARK    9  A    between atoms: C11_18  and  C12_19 
REMARK   10  A    between atoms: C11_18  and  C13_20 
REMARK   11  A    between atoms: N4_21  and  C14_22 
REMARK   12  A    between atoms: C14_22  and  C15_23 
REMARK   13  A    between atoms: C14_22  and  C16_25 
REMARK       I    between atoms: C15_23  and  N6_40 
REMARK   14  A    between atoms: C16_25  and  C17_26 
REMARK   15  A    between atoms: C17_26  and  C18_27 
REMARK   16  A    between atoms: C17_26  and  C19_28 
REMARK   17  A    between atoms: C20_29  and  C21_30 
REMARK   18  A    between atoms: C20_29  and  C24_33 
REMARK   19  A    between atoms: C20_29  and  N6_40 
REMARK   20  A    between atoms: C21_30  and  C22_31 
REMARK   21  A    between atoms: C22_31  and  C23_32 
REMARK   22  A    between atoms: C23_32  and  O8_43 
REMARK   23  A    between atoms: C24_33  and  C25_34 
REMARK   24  A    between atoms: C28_38  and  O6_39 
REMARK   25  A    between atoms: C29_42  and  O8_43 
REMARK   26  A    between atoms: C29_42  and  C35_49 
ROOT
ATOM      1  C14 non d ame      -7.000   9.950  64.535  0.00  0.00     0.089 C 
ATOM      2  H20 non d ame      -6.975  10.145  63.462  0.00  0.00     0.087 H 
ENDROOT
BRANCH   1   3
ATOM      3  N4  non d ame      -8.203  10.574  65.065  0.00  0.00    -0.346 N 
ATOM      4  C10 non d ame      -9.457  10.643  64.229  0.00  0.00     0.241 C 
ATOM      5  O4  non d ame      -9.472  10.191  63.131  0.00  0.00    -0.271 OA
ATOM      6  H19 non d ame      -8.169  10.954  66.000  0.00  0.00     0.163 HD
BRANCH   4   7
ATOM      7  C9  non d ame     -10.695  11.287  64.796  0.00  0.00     0.092 C 
ATOM      8  H11 non d ame     -11.408  10.511  65.075  0.00  0.00     0.088 H 
BRANCH   7   9
ATOM      9  N3  non d ame     -10.350  12.017  66.020  0.00  0.00    -0.346 N 
ATOM     10  C7  non d ame     -11.100  11.790  67.229  0.00  0.00     0.240 C 
ATOM     11  O3  non d ame     -11.985  11.025  67.238  0.00  0.00    -0.271 OA
ATOM     12  H10 non d ame      -9.589  12.682  66.028  0.00  0.00     0.163 HD
BRANCH  10  13
ATOM     13  C6  non d ame     -10.730  12.573  68.528  0.00  0.00     0.086 C 
ATOM     14  H6  non d ame      -9.670  12.505  68.774  0.00  0.00     0.086 H 
BRANCH  13  15
ATOM     15  N2  non d ame     -11.020  13.984  68.327  0.00  0.00    -0.343 N 
ATOM     16  C5  non d ame      -9.959  14.880  67.862  0.00  0.00     0.273 C 
ATOM     17  O2  non d ame      -8.875  14.456  67.656  0.00  0.00    -0.266 OA
ATOM     18  H5  non d ame     -11.949  14.337  68.508  0.00  0.00     0.163 HD
BRANCH  16  19
ATOM     19  C4  non d ame     -10.252  16.372  67.644  0.00  0.00     0.154 A 
ATOM     20  C1  non d ame     -10.063  17.124  66.441  0.00  0.00    -0.017 A 
ATOM     21  C2  non d ame     -10.479  18.435  66.763  0.00  0.00     0.077 A 
ATOM     22  H1  non d ame      -9.683  16.772  65.482  0.00  0.00     0.091 H 
ATOM     23  O1  non d ame     -10.863  18.425  68.006  0.00  0.00    -0.218 OA
ATOM     24  N1  non d ame     -10.739  17.233  68.542  0.00  0.00    -0.123 NA
BRANCH  21  25
ATOM     25  C3  non d ame     -10.481  19.635  65.826  0.00  0.00    -0.029 C 
ATOM     26  H2  non d ame      -9.852  19.423  64.961  0.00  0.00     0.036 H 
ATOM     27  H3  non d ame     -11.499  19.836  65.494  0.00  0.00     0.036 H 
ATOM     28  H4  non d ame     -10.092  20.508  66.352  0.00  0.00     0.036 H 
ENDBRANCH  21  25
ENDBRANCH  16  19
ENDBRANCH  13  15
BRANCH  13  29
ATOM     29  C8  non d ame     -11.535  12.041  69.686  0.00  0.00    -0.049 C 
ATOM     30  H7  non d ame     -11.486  10.952  69.692  0.00  0.00     0.030 H 
ATOM     31  H8  non d ame     -11.130  12.429  70.620  0.00  0.00     0.030 H 
ATOM     32  H9  non d ame     -12.573  12.356  69.581  0.00  0.00     0.030 H 
ENDBRANCH  13  29
ENDBRANCH  10  13
ENDBRANCH   7   9
BRANCH   7  33
ATOM     33  C11 non d ame     -11.287  12.278  63.752  0.00  0.00    -0.033 C 
ATOM     34  H12 non d ame     -10.602  12.313  62.906  0.00  0.00     0.042 H 
BRANCH  33  35
ATOM     35  C12 non d ame     -12.669  11.785  63.219  0.00  0.00    -0.071 C 
ATOM     36  H13 non d ame     -13.317  12.643  63.041  0.00  0.00     0.028 H 
ATOM     37  H14 non d ame     -12.524  11.239  62.288  0.00  0.00     0.028 H 
ATOM     38  H15 non d ame     -13.128  11.130  63.958  0.00  0.00     0.028 H 
ENDBRANCH  33  35
BRANCH  33  39
ATOM     39  C13 non d ame     -11.393  13.719  64.347  0.00  0.00    -0.071 C 
ATOM     40  H16 non d ame     -11.252  13.678  65.427  0.00  0.00     0.028 H 
ATOM     41  H17 non d ame     -10.623  14.353  63.905  0.00  0.00     0.028 H 
ATOM     42  H18 non d ame     -12.376  14.133  64.124  0.00  0.00     0.028 H 
ENDBRANCH  33  39
ENDBRANCH   7  33
ENDBRANCH   4   7
ENDBRANCH   1   3
BRANCH   1  43
ATOM     43  C15 non d ame      -7.048   8.430  64.856  0.00  0.00     0.240 C 
ATOM     44  O5  non d ame      -7.325   8.065  65.953  0.00  0.00    -0.271 OA
ATOM     45  N6  non d ame      -6.759   7.425  63.792  0.00  0.00    -0.355 N 
ATOM     46  H46 non d ame      -6.528   7.723  62.856  0.00  0.00     0.162 HD
BRANCH  45  47
ATOM     47  C20 non d ame      -6.810   5.983  64.113  0.00  0.00     0.013 C 
ATOM     48  H30 non d ame      -6.372   5.437  63.277  0.00  0.00     0.072 H 
BRANCH  47  49
ATOM     49  C21 non d ame      -8.250   5.564  64.305  0.00  0.00    -0.038 C 
ATOM     50  H31 non d ame      -8.814   6.489  64.419  0.00  0.00     0.036 H 
ATOM     51  H32 non d ame      -8.473   4.888  63.479  0.00  0.00     0.036 H 
BRANCH  49  52
ATOM     52  C22 non d ame      -8.471   4.756  65.602  0.00  0.00     0.018 C 
ATOM     53  H33 non d ame      -8.374   3.708  65.318  0.00  0.00     0.048 H 
ATOM     54  H34 non d ame      -7.791   5.186  66.337  0.00  0.00     0.048 H 
BRANCH  52  55
ATOM     55  C23 non d ame      -9.898   4.906  66.199  0.00  0.00     0.259 C 
ATOM     56  O7  non d ame     -10.851   4.568  65.574  0.00  0.00    -0.265 OA
BRANCH  55  57
ATOM     57  O8  non d ame     -10.056   5.466  67.497  0.00  0.00    -0.317 OA
BRANCH  57  58
ATOM     58  C29 non d ame     -10.856   6.652  67.526  0.00  0.00     0.052 C 
ATOM     59  H47 non d ame     -10.349   7.366  66.878  0.00  0.00     0.082 H 
ATOM     60  H48 non d ame     -11.870   6.328  67.291  0.00  0.00     0.082 H 
BRANCH  58  61
ATOM     61  C35 non d ame     -10.841   7.204  68.976  0.00  0.00    -0.034 A 
ATOM     62  C30 non d ame     -10.121   8.356  69.275  0.00  0.00    -0.075 A 
ATOM     63  C31 non d ame     -10.107   8.852  70.578  0.00  0.00    -0.082 A 
ATOM     64  H49 non d ame      -9.568   8.871  68.489  0.00  0.00     0.084 H 
ATOM     65  C32 non d ame     -10.814   8.189  71.585  0.00  0.00    -0.083 A 
ATOM     66  H50 non d ame      -9.545   9.757  70.809  0.00  0.00     0.083 H 
ATOM     67  C33 non d ame     -11.528   7.037  71.282  0.00  0.00    -0.082 A 
ATOM     68  H51 non d ame     -10.810   8.571  72.606  0.00  0.00     0.083 H 
ATOM     69  C34 non d ame     -11.546   6.540  69.980  0.00  0.00    -0.075 A 
ATOM     70  H52 non d ame     -12.077   6.521  72.070  0.00  0.00     0.083 H 
ATOM     71  H53 non d ame     -12.111   5.635  69.751  0.00  0.00     0.084 H 
ENDBRANCH  58  61
ENDBRANCH  57  58
ENDBRANCH  55  57
ENDBRANCH  52  55
ENDBRANCH  49  52
ENDBRANCH  47  49
BRANCH  47  72
ATOM     72  C24 non d ame      -6.025   5.712  65.394  0.00  0.00    -0.039 C 
ATOM     73  H35 non d ame      -6.101   6.628  65.981  0.00  0.00     0.036 H 
ATOM     74  H36 non d ame      -6.427   4.778  65.789  0.00  0.00     0.036 H 
BRANCH  72  75
ATOM     75  C25 non d ame      -4.470   5.468  65.097  0.00  0.00    -0.001 C 
ATOM     76  C26 non d ame      -4.068   3.915  65.455  0.00  0.00    -0.035 C 
ATOM     77  C27 non d ame      -2.982   3.921  66.265  0.00  0.00     0.085 C 
ATOM     78  H38 non d ame      -4.843   3.460  66.072  0.00  0.00     0.036 H 
ATOM     79  H39 non d ame      -3.715   3.404  64.560  0.00  0.00     0.036 H 
ATOM     80  N5  non d ame      -2.805   5.338  66.756  0.00  0.00    -0.049 N 
ATOM     81  H40 non d ame      -3.244   3.282  67.109  0.00  0.00     0.075 H 
ATOM     82  H41 non d ame      -2.140   3.660  65.624  0.00  0.00     0.075 H 
ATOM     83  C28 non d ame      -3.729   6.257  65.802  0.00  0.00     0.193 C 
ATOM     84  H42 non d ame      -3.182   5.365  67.692  0.00  0.00     0.280 HD
ATOM     85  H43 non d ame      -1.838   5.578  66.593  0.00  0.00     0.280 HD
ATOM     86  H44 non d ame      -3.282   6.865  65.016  0.00  0.00     0.129 H 
ATOM     87  H37 non d ame      -4.174   5.844  64.117  0.00  0.00     0.046 H 
BRANCH  83  88
ATOM     88  O6  non d ame      -4.504   7.162  66.591  0.00  0.00    -0.369 OA
ATOM     89  H45 non d ame      -5.019   6.666  67.232  0.00  0.00     0.212 HD
ENDBRANCH  83  88
ENDBRANCH  72  75
ENDBRANCH  47  72
ENDBRANCH  45  47
ENDBRANCH   1  43
BRANCH   1  90
ATOM     90  C16 non d ame      -5.784  10.575  65.199  0.00  0.00    -0.035 C 
ATOM     91  H21 non d ame      -5.893  11.650  65.049  0.00  0.00     0.037 H 
ATOM     92  H22 non d ame      -5.764  10.166  66.209  0.00  0.00     0.037 H 
BRANCH  90  93
ATOM     93  C17 non d ame      -4.429  10.172  64.534  0.00  0.00    -0.059 C 
ATOM     94  H23 non d ame      -4.509   9.130  64.227  0.00  0.00     0.038 H 
BRANCH  93  95
ATOM     95  C18 non d ame      -4.123  11.022  63.259  0.00  0.00    -0.073 C 
ATOM     96  H24 non d ame      -3.090  11.369  63.294  0.00  0.00     0.028 H 
ATOM     97  H25 non d ame      -4.270  10.409  62.370  0.00  0.00     0.028 H 
ATOM     98  H26 non d ame      -4.795  11.880  63.225  0.00  0.00     0.028 H 
ENDBRANCH  93  95
BRANCH  93  99
ATOM     99  C19 non d ame      -3.277  10.263  65.538  0.00  0.00    -0.073 C 
ATOM    100  H27 non d ame      -3.156   9.301  66.039  0.00  0.00     0.028 H 
ATOM    101  H28 non d ame      -2.357  10.518  65.012  0.00  0.00     0.028 H 
ATOM    102  H29 non d ame      -3.498  11.033  66.277  0.00  0.00     0.028 H 
ENDBRANCH  93  99
ENDBRANCH  90  93
ENDBRANCH   1  90
TORSDOF 26
ENDMDL
