MODEL 1
REMARK VINA RESULT:      -6.8      0.000      0.000
REMARK  26 active torsions:
REMARK  status: ('A' for Active; 'I' for Inactive)
REMARK    1  A    between atoms: C2_2  and  C3_3 
REMARK    2  A    between atoms: C4_6  and  C5_7 
REMARK       I    between atoms: C5_7  and  N2_9 
REMARK    3  A    between atoms: N2_9  and  C6_10 
REMARK    4  A    between atoms: C6_10  and  C7_11 
REMARK    5  A    between atoms: C6_10  and  C8_13 
REMARK       I    between atoms: C7_11  and  N3_14 
REMARK    6  A    between atoms: N3_14  and  C9_15 
REMARK    7  A    between atoms: C9_15  and  C10_16 
REMARK    8  A    between atoms: C9_15  and  C11_18 
REMARK       I    between atoms: C10_16  and  N4_21 
REMARK    9  A    between atoms: C11_18  and  C12_19 
REMARK   10  A    between atoms: C11_18  and  C13_20 
REMARK   11  A    between atoms: N4_21  and  C14_22 
REMARK   12  A    between atoms: C14_22  and  C15_23 
REMARK   13  A    between atoms: C14_22  and  C16_25 
REMARK       I    between atoms: C15_23  and  N6_40 
REMARK   14  A    between atoms: C16_25  and  C17_26 
REMARK   15  A    between atoms: C17_26  and  C18_27 
REMARK   16  A    between atoms: C17_26  and  C19_28 
REMARK   17  A    between atoms: C20_29  and  C21_30 
REMARK   18  A    between atoms: C20_29  and  C24_33 
REMARK   19  A    between atoms: C20_29  and  N6_40 
REMARK   20  A    between atoms: C21_30  and  C22_31 
REMARK   21  A    between atoms: C22_31  and  C23_32 
REMARK   22  A    between atoms: C23_32  and  O8_43 
REMARK   23  A    between atoms: C24_33  and  C25_34 
REMARK   24  A    between atoms: C28_38  and  O6_39 
REMARK   25  A    between atoms: C29_42  and  O8_43 
REMARK   26  A    between atoms: C29_42  and  C35_49 
ROOT
ATOM      1  C14 non d ame     -11.869  14.104  69.802  0.00  0.00     0.089 C 
ATOM      2  H20 non d ame     -12.848  13.680  69.575  0.00  0.00     0.087 H 
ENDROOT
BRANCH   1   3
ATOM      3  N4  non d ame     -10.877  13.065  69.570  0.00  0.00    -0.346 N 
ATOM      4  C10 non d ame     -11.150  11.959  68.581  0.00  0.00     0.241 C 
ATOM      5  O4  non d ame     -12.176  11.925  67.987  0.00  0.00    -0.271 OA
ATOM      6  H19 non d ame     -10.011  13.110  70.087  0.00  0.00     0.163 HD
BRANCH   4   7
ATOM      7  C9  non d ame     -10.110  10.895  68.349  0.00  0.00     0.092 C 
ATOM      8  H11 non d ame      -9.950  10.777  67.277  0.00  0.00     0.088 H 
BRANCH   7   9
ATOM      9  N3  non d ame      -8.834  11.322  68.933  0.00  0.00    -0.346 N 
ATOM     10  C7  non d ame      -7.832  11.940  68.100  0.00  0.00     0.240 C 
ATOM     11  O3  non d ame      -8.034  12.100  66.958  0.00  0.00    -0.271 OA
ATOM     12  H10 non d ame      -8.645  11.188  69.916  0.00  0.00     0.163 HD
BRANCH  10  13
ATOM     13  C6  non d ame      -6.475  12.389  68.726  0.00  0.00     0.086 C 
ATOM     14  H6  non d ame      -5.620  12.154  68.093  0.00  0.00     0.086 H 
BRANCH  13  15
ATOM     15  N2  non d ame      -6.487  13.833  68.890  0.00  0.00    -0.343 N 
ATOM     16  C5  non d ame      -5.520  14.650  68.154  0.00  0.00     0.273 C 
ATOM     17  O2  non d ame      -4.735  14.136  67.435  0.00  0.00    -0.266 OA
ATOM     18  H5  non d ame      -7.160  14.264  69.508  0.00  0.00     0.163 HD
BRANCH  16  19
ATOM     19  C4  non d ame      -5.522  16.179  68.316  0.00  0.00     0.154 A 
ATOM     20  C1  non d ame      -5.902  16.925  69.476  0.00  0.00    -0.017 A 
ATOM     21  C2  non d ame      -5.726  18.278  69.112  0.00  0.00     0.077 A 
ATOM     22  H1  non d ame      -6.253  16.542  70.435  0.00  0.00     0.091 H 
ATOM     23  O1  non d ame      -5.293  18.296  67.886  0.00  0.00    -0.218 OA
ATOM     24  N1  non d ame      -5.167  17.083  67.399  0.00  0.00    -0.123 NA
BRANCH  21  25
ATOM     25  C3  non d ame      -5.991  19.491  69.994  0.00  0.00    -0.029 C 
ATOM     26  H2  non d ame      -5.369  19.434  70.888  0.00  0.00     0.036 H 
ATOM     27  H3  non d ame      -5.753  20.400  69.443  0.00  0.00     0.036 H 
ATOM     28  H4  non d ame      -7.043  19.507  70.284  0.00  0.00     0.036 H 
ENDBRANCH  21  25
ENDBRANCH  16  19
ENDBRANCH  13  15
BRANCH  13  29
ATOM     29  C8  non d ame      -6.290  11.719  70.064  0.00  0.00    -0.049 C 
ATOM     30  H7  non d ame      -7.265  11.504  70.501  0.00  0.00     0.030 H 
ATOM     31  H8  non d ame      -5.737  10.789  69.932  0.00  0.00     0.030 H 
ATOM     32  H9  non d ame      -5.734  12.382  70.728  0.00  0.00     0.030 H 
ENDBRANCH  13  29
ENDBRANCH  10  13
ENDBRANCH   7   9
BRANCH   7  33
ATOM     33  C11 non d ame     -10.567   9.567  69.022  0.00  0.00    -0.033 C 
ATOM     34  H12 non d ame     -11.577   9.353  68.673  0.00  0.00     0.042 H 
BRANCH  33  35
ATOM     35  C12 non d ame      -9.659   8.372  68.595  0.00  0.00    -0.071 C 
ATOM     36  H13 non d ame      -9.509   7.708  69.447  0.00  0.00     0.028 H 
ATOM     37  H14 non d ame     -10.140   7.822  67.787  0.00  0.00     0.028 H 
ATOM     38  H15 non d ame      -8.696   8.751  68.256  0.00  0.00     0.028 H 
ENDBRANCH  33  35
BRANCH  33  39
ATOM     39  C13 non d ame     -10.614   9.716  70.577  0.00  0.00    -0.071 C 
ATOM     40  H16 non d ame      -9.921  10.498  70.888  0.00  0.00     0.028 H 
ATOM     41  H17 non d ame     -11.625   9.982  70.886  0.00  0.00     0.028 H 
ATOM     42  H18 non d ame     -10.328   8.772  71.040  0.00  0.00     0.028 H 
ENDBRANCH  33  39
ENDBRANCH   7  33
ENDBRANCH   4   7
ENDBRANCH   1   3
BRANCH   1  43
ATOM     43  C15 non d ame     -11.532  15.322  68.895  0.00  0.00     0.240 C 
ATOM     44  O5  non d ame     -11.981  16.392  69.152  0.00  0.00    -0.271 OA
ATOM     45  N6  non d ame     -10.642  15.156  67.711  0.00  0.00    -0.355 N 
ATOM     46  H46 non d ame     -10.251  14.253  67.485  0.00  0.00     0.162 HD
BRANCH  45  47
ATOM     47  C20 non d ame     -10.330  16.324  66.859  0.00  0.00     0.013 C 
ATOM     48  H30 non d ame     -11.099  17.078  67.029  0.00  0.00     0.072 H 
BRANCH  47  49
ATOM     49  C21 non d ame     -10.334  15.900  65.408  0.00  0.00    -0.038 C 
ATOM     50  H31 non d ame     -11.289  16.239  65.004  0.00  0.00     0.036 H 
ATOM     51  H32 non d ame      -9.401  16.276  64.989  0.00  0.00     0.036 H 
BRANCH  49  52
ATOM     52  C22 non d ame     -10.306  14.366  65.232  0.00  0.00     0.018 C 
ATOM     53  H33 non d ame      -9.589  14.174  64.433  0.00  0.00     0.048 H 
ATOM     54  H34 non d ame     -10.133  13.958  66.228  0.00  0.00     0.048 H 
BRANCH  52  55
ATOM     55  C23 non d ame     -11.656  13.766  64.750  0.00  0.00     0.259 C 
ATOM     56  O7  non d ame     -12.628  13.846  65.429  0.00  0.00    -0.265 OA
BRANCH  55  57
ATOM     57  O8  non d ame     -11.715  13.105  63.492  0.00  0.00    -0.317 OA
BRANCH  57  58
ATOM     58  C29 non d ame     -11.922  11.693  63.584  0.00  0.00     0.052 C 
ATOM     59  H47 non d ame     -12.487  11.537  64.503  0.00  0.00     0.082 H 
ATOM     60  H48 non d ame     -12.346  11.393  62.626  0.00  0.00     0.082 H 
BRANCH  58  61
ATOM     61  C35 non d ame     -10.534  11.015  63.740  0.00  0.00    -0.034 A 
ATOM     62  C30 non d ame     -10.282  10.186  64.829  0.00  0.00    -0.075 A 
ATOM     63  C31 non d ame      -9.036   9.577  64.969  0.00  0.00    -0.082 A 
ATOM     64  H49 non d ame     -11.061  10.013  65.571  0.00  0.00     0.084 H 
ATOM     65  C32 non d ame      -8.038   9.803  64.017  0.00  0.00    -0.083 A 
ATOM     66  H50 non d ame      -8.843   8.926  65.822  0.00  0.00     0.083 H 
ATOM     67  C33 non d ame      -8.293  10.634  62.934  0.00  0.00    -0.082 A 
ATOM     68  H51 non d ame      -7.061   9.330  64.119  0.00  0.00     0.083 H 
ATOM     69  C34 non d ame      -9.538  11.242  62.789  0.00  0.00    -0.075 A 
ATOM     70  H52 non d ame      -7.512  10.809  62.194  0.00  0.00     0.083 H 
ATOM     71  H53 non d ame      -9.731  11.893  61.935  0.00  0.00     0.084 H 
ENDBRANCH  58  61
ENDBRANCH  57  58
ENDBRANCH  55  57
ENDBRANCH  52  55
ENDBRANCH  49  52
ENDBRANCH  47  49
BRANCH  47  72
ATOM     72  C24 non d ame      -8.954  16.877  67.225  0.00  0.00    -0.039 C 
ATOM     73  H35 non d ame      -8.693  16.402  68.170  0.00  0.00     0.036 H 
ATOM     74  H36 non d ame      -8.333  16.716  66.344  0.00  0.00     0.036 H 
BRANCH  72  75
ATOM     75  C25 non d ame      -9.001  18.457  67.487  0.00  0.00    -0.001 C 
ATOM     76  C26 non d ame     -10.545  19.003  67.341  0.00  0.00    -0.035 C 
ATOM     77  C27 non d ame     -10.557  20.059  66.492  0.00  0.00     0.085 C 
ATOM     78  H38 non d ame     -11.158  18.260  66.832  0.00  0.00     0.036 H 
ATOM     79  H39 non d ame     -10.881  19.432  68.286  0.00  0.00     0.036 H 
ATOM     80  N5  non d ame      -9.219  20.077  65.793  0.00  0.00    -0.049 N 
ATOM     81  H40 non d ame     -11.337  19.837  65.762  0.00  0.00     0.075 H 
ATOM     82  H41 non d ame     -10.638  20.941  67.126  0.00  0.00     0.075 H 
ATOM     83  C28 non d ame      -8.261  19.093  66.641  0.00  0.00     0.193 C 
ATOM     84  H42 non d ame      -9.368  19.672  64.879  0.00  0.00     0.280 HD
ATOM     85  H43 non d ame      -8.866  21.020  65.876  0.00  0.00     0.280 HD
ATOM     86  H44 non d ame      -7.502  19.500  67.309  0.00  0.00     0.129 H 
ATOM     87  H37 non d ame      -8.457  18.743  68.387  0.00  0.00     0.046 H 
BRANCH  83  88
ATOM     88  O6  non d ame      -7.562  18.208  65.764  0.00  0.00    -0.369 OA
ATOM     89  H45 non d ame      -7.541  18.584  64.881  0.00  0.00     0.212 HD
ENDBRANCH  83  88
ENDBRANCH  72  75
ENDBRANCH  47  72
ENDBRANCH  45  47
ENDBRANCH   1  43
BRANCH   1  90
ATOM     90  C16 non d ame     -11.815  14.524  71.262  0.00  0.00    -0.035 C 
ATOM     91  H21 non d ame     -11.047  13.896  71.715  0.00  0.00     0.037 H 
ATOM     92  H22 non d ame     -11.694  15.607  71.247  0.00  0.00     0.037 H 
BRANCH  90  93
ATOM     93  C17 non d ame     -13.136  14.238  72.045  0.00  0.00    -0.059 C 
ATOM     94  H23 non d ame     -12.991  14.573  73.072  0.00  0.00     0.038 H 
BRANCH  93  95
ATOM     95  C18 non d ame     -14.352  15.022  71.456  0.00  0.00    -0.073 C 
ATOM     96  H24 non d ame     -14.055  16.050  71.250  0.00  0.00     0.028 H 
ATOM     97  H25 non d ame     -14.678  14.546  70.532  0.00  0.00     0.028 H 
ATOM     98  H26 non d ame     -15.171  15.017  72.176  0.00  0.00     0.028 H 
ENDBRANCH  93  95
BRANCH  93  99
ATOM     99  C19 non d ame     -13.429  12.736  72.094  0.00  0.00    -0.073 C 
ATOM    100  H27 non d ame     -12.585  12.187  71.675  0.00  0.00     0.028 H 
ATOM    101  H28 non d ame     -13.584  12.430  73.129  0.00  0.00     0.028 H 
ATOM    102  H29 non d ame     -14.326  12.522  71.514  0.00  0.00     0.028 H 
ENDBRANCH  93  99
ENDBRANCH  90  93
ENDBRANCH   1  90
TORSDOF 26
ENDMDL
MODEL 2
REMARK VINA RESULT:      -6.8      3.579      7.303
REMARK  26 active torsions:
REMARK  status: ('A' for Active; 'I' for Inactive)
REMARK    1  A    between atoms: C2_2  and  C3_3 
REMARK    2  A    between atoms: C4_6  and  C5_7 
REMARK       I    between atoms: C5_7  and  N2_9 
REMARK    3  A    between atoms: N2_9  and  C6_10 
REMARK    4  A    between atoms: C6_10  and  C7_11 
REMARK    5  A    between atoms: C6_10  and  C8_13 
REMARK       I    between atoms: C7_11  and  N3_14 
REMARK    6  A    between atoms: N3_14  and  C9_15 
REMARK    7  A    between atoms: C9_15  and  C10_16 
REMARK    8  A    between atoms: C9_15  and  C11_18 
REMARK       I    between atoms: C10_16  and  N4_21 
REMARK    9  A    between atoms: C11_18  and  C12_19 
REMARK   10  A    between atoms: C11_18  and  C13_20 
REMARK   11  A    between atoms: N4_21  and  C14_22 
REMARK   12  A    between atoms: C14_22  and  C15_23 
REMARK   13  A    between atoms: C14_22  and  C16_25 
REMARK       I    between atoms: C15_23  and  N6_40 
REMARK   14  A    between atoms: C16_25  and  C17_26 
REMARK   15  A    between atoms: C17_26  and  C18_27 
REMARK   16  A    between atoms: C17_26  and  C19_28 
REMARK   17  A    between atoms: C20_29  and  C21_30 
REMARK   18  A    between atoms: C20_29  and  C24_33 
REMARK   19  A    between atoms: C20_29  and  N6_40 
REMARK   20  A    between atoms: C21_30  and  C22_31 
REMARK   21  A    between atoms: C22_31  and  C23_32 
REMARK   22  A    between atoms: C23_32  and  O8_43 
REMARK   23  A    between atoms: C24_33  and  C25_34 
REMARK   24  A    between atoms: C28_38  and  O6_39 
REMARK   25  A    between atoms: C29_42  and  O8_43 
REMARK   26  A    between atoms: C29_42  and  C35_49 
ROOT
ATOM      1  C14 non d ame     -10.484  10.426  68.451  0.00  0.00     0.089 C 
ATOM      2  H20 non d ame      -9.568  10.488  69.039  0.00  0.00     0.087 H 
ENDROOT
BRANCH   1   3
ATOM      3  N4  non d ame     -11.001   9.072  68.587  0.00  0.00    -0.346 N 
ATOM      4  C10 non d ame     -10.175   8.005  69.260  0.00  0.00     0.241 C 
ATOM      5  O4  non d ame      -9.095   8.259  69.681  0.00  0.00    -0.271 OA
ATOM      6  H19 non d ame     -11.921   8.876  68.219  0.00  0.00     0.163 HD
BRANCH   4   7
ATOM      7  C9  non d ame     -10.728   6.611  69.397  0.00  0.00     0.092 C 
ATOM      8  H11 non d ame     -11.790   6.621  69.151  0.00  0.00     0.088 H 
BRANCH   7   9
ATOM      9  N3  non d ame     -10.068   5.726  68.432  0.00  0.00    -0.346 N 
ATOM     10  C7  non d ame     -10.357   5.851  67.025  0.00  0.00     0.240 C 
ATOM     11  O3  non d ame     -11.119   6.657  66.651  0.00  0.00    -0.271 OA
ATOM     12  H10 non d ame      -9.409   5.025  68.740  0.00  0.00     0.163 HD
BRANCH  10  13
ATOM     13  C6  non d ame      -9.654   4.904  66.003  0.00  0.00     0.086 C 
ATOM     14  H6  non d ame     -10.259   4.716  65.117  0.00  0.00     0.086 H 
BRANCH  13  15
ATOM     15  N2  non d ame      -8.427   5.534  65.544  0.00  0.00    -0.343 N 
ATOM     16  C5  non d ame      -8.106   5.530  64.115  0.00  0.00     0.273 C 
ATOM     17  O2  non d ame      -8.839   5.016  63.344  0.00  0.00    -0.266 OA
ATOM     18  H5  non d ame      -7.805   5.969  66.210  0.00  0.00     0.163 HD
BRANCH  16  19
ATOM     19  C4  non d ame      -6.813   6.194  63.615  0.00  0.00     0.154 A 
ATOM     20  C1  non d ame      -6.512   7.593  63.592  0.00  0.00    -0.017 A 
ATOM     21  C2  non d ame      -5.212   7.676  63.046  0.00  0.00     0.077 A 
ATOM     22  H1  non d ame      -7.141   8.420  63.920  0.00  0.00     0.091 H 
ATOM     23  O1  non d ame      -4.820   6.462  62.791  0.00  0.00    -0.218 OA
ATOM     24  N1  non d ame      -5.738   5.579  63.115  0.00  0.00    -0.123 NA
BRANCH  21  25
ATOM     25  C3  non d ame      -4.416   8.951  62.802  0.00  0.00    -0.029 C 
ATOM     26  H2  non d ame      -5.028   9.661  62.245  0.00  0.00     0.036 H 
ATOM     27  H3  non d ame      -4.131   9.390  63.759  0.00  0.00     0.036 H 
ATOM     28  H4  non d ame      -3.519   8.716  62.229  0.00  0.00     0.036 H 
ENDBRANCH  21  25
ENDBRANCH  16  19
ENDBRANCH  13  15
BRANCH  13  29
ATOM     29  C8  non d ame      -9.341   3.587  66.668  0.00  0.00    -0.049 C 
ATOM     30  H7  non d ame     -10.236   3.207  67.161  0.00  0.00     0.030 H 
ATOM     31  H8  non d ame      -9.008   2.871  65.916  0.00  0.00     0.030 H 
ATOM     32  H9  non d ame      -8.553   3.731  67.406  0.00  0.00     0.030 H 
ENDBRANCH  13  29
ENDBRANCH  10  13
ENDBRANCH   7   9
BRANCH   7  33
ATOM     33  C11 non d ame     -10.466   6.089  70.840  0.00  0.00    -0.033 C 
ATOM     34  H12 non d ame      -9.679   6.706  71.275  0.00  0.00     0.042 H 
BRANCH  33  35
ATOM     35  C12 non d ame     -11.733   6.241  71.738  0.00  0.00    -0.071 C 
ATOM     36  H13 non d ame     -11.446   6.661  72.702  0.00  0.00     0.028 H 
ATOM     37  H14 non d ame     -12.446   6.905  71.251  0.00  0.00     0.028 H 
ATOM     38  H15 non d ame     -12.190   5.264  71.889  0.00  0.00     0.028 H 
ENDBRANCH  33  35
BRANCH  33  39
ATOM     39  C13 non d ame      -9.962   4.610  70.816  0.00  0.00    -0.071 C 
ATOM     40  H16 non d ame      -9.325   4.429  71.682  0.00  0.00     0.028 H 
ATOM     41  H17 non d ame     -10.818   3.934  70.847  0.00  0.00     0.028 H 
ATOM     42  H18 non d ame      -9.393   4.434  69.903  0.00  0.00     0.028 H 
ENDBRANCH  33  39
ENDBRANCH   7  33
ENDBRANCH   4   7
ENDBRANCH   1   3
BRANCH   1  43
ATOM     43  C15 non d ame     -11.569  11.423  68.948  0.00  0.00     0.240 C 
ATOM     44  O5  non d ame     -12.632  11.017  69.294  0.00  0.00    -0.271 OA
ATOM     45  N6  non d ame     -11.282  12.885  69.002  0.00  0.00    -0.355 N 
ATOM     46  H46 non d ame     -10.381  13.241  68.716  0.00  0.00     0.162 HD
BRANCH  45  47
ATOM     47  C20 non d ame     -12.324  13.820  69.479  0.00  0.00     0.013 C 
ATOM     48  H30 non d ame     -13.291  13.438  69.153  0.00  0.00     0.072 H 
BRANCH  47  49
ATOM     49  C21 non d ame     -12.080  15.187  68.881  0.00  0.00    -0.038 C 
ATOM     50  H31 non d ame     -12.639  15.203  67.945  0.00  0.00     0.036 H 
ATOM     51  H32 non d ame     -12.317  15.900  69.670  0.00  0.00     0.036 H 
BRANCH  49  52
ATOM     52  C22 non d ame     -10.600  15.423  68.509  0.00  0.00     0.018 C 
ATOM     53  H33 non d ame     -10.153  15.914  69.373  0.00  0.00     0.048 H 
ATOM     54  H34 non d ame     -10.221  14.456  68.175  0.00  0.00     0.048 H 
BRANCH  52  55
ATOM     55  C23 non d ame     -10.402  16.396  67.313  0.00  0.00     0.259 C 
ATOM     56  O7  non d ame     -10.379  17.570  67.489  0.00  0.00    -0.265 OA
BRANCH  55  57
ATOM     57  O8  non d ame     -10.261  15.866  66.000  0.00  0.00    -0.317 OA
BRANCH  57  58
ATOM     58  C29 non d ame      -9.662  14.568  65.957  0.00  0.00     0.052 C 
ATOM     59  H47 non d ame      -8.738  14.689  65.391  0.00  0.00     0.082 H 
ATOM     60  H48 non d ame      -9.626  14.225  66.991  0.00  0.00     0.082 H 
BRANCH  58  61
ATOM     61  C35 non d ame     -10.608  13.630  65.161  0.00  0.00    -0.034 A 
ATOM     62  C30 non d ame     -11.960  13.570  65.480  0.00  0.00    -0.075 A 
ATOM     63  C31 non d ame     -12.810  12.727  64.765  0.00  0.00    -0.082 A 
ATOM     64  H49 non d ame     -12.354  14.183  66.291  0.00  0.00     0.084 H 
ATOM     65  C32 non d ame     -12.302  11.941  63.728  0.00  0.00    -0.083 A 
ATOM     66  H50 non d ame     -13.870  12.684  65.017  0.00  0.00     0.083 H 
ATOM     67  C33 non d ame     -10.951  12.002  63.415  0.00  0.00    -0.082 A 
ATOM     68  H51 non d ame     -12.959  11.280  63.163  0.00  0.00     0.083 H 
ATOM     69  C34 non d ame     -10.098  12.844  64.125  0.00  0.00    -0.075 A 
ATOM     70  H52 non d ame     -10.557  11.385  62.606  0.00  0.00     0.083 H 
ATOM     71  H53 non d ame      -9.038  12.887  63.872  0.00  0.00     0.084 H 
ENDBRANCH  58  61
ENDBRANCH  57  58
ENDBRANCH  55  57
ENDBRANCH  52  55
ENDBRANCH  49  52
ENDBRANCH  47  49
BRANCH  47  72
ATOM     72  C24 non d ame     -12.275  13.914  71.002  0.00  0.00    -0.039 C 
ATOM     73  H35 non d ame     -12.891  13.089  71.363  0.00  0.00     0.036 H 
ATOM     74  H36 non d ame     -11.216  13.955  71.257  0.00  0.00     0.036 H 
BRANCH  72  75
ATOM     75  C25 non d ame     -12.943  15.269  71.534  0.00  0.00    -0.001 C 
ATOM     76  C26 non d ame     -11.806  16.203  72.268  0.00  0.00    -0.035 C 
ATOM     77  C27 non d ame     -12.262  16.565  73.491  0.00  0.00     0.085 C 
ATOM     78  H38 non d ame     -10.921  15.608  72.492  0.00  0.00     0.036 H 
ATOM     79  H39 non d ame     -11.706  17.153  71.742  0.00  0.00     0.036 H 
ATOM     80  N5  non d ame     -13.461  15.698  73.790  0.00  0.00    -0.049 N 
ATOM     81  H40 non d ame     -11.460  16.315  74.187  0.00  0.00     0.075 H 
ATOM     82  H41 non d ame     -12.590  17.599  73.386  0.00  0.00     0.075 H 
ATOM     83  C28 non d ame     -13.884  15.025  72.384  0.00  0.00     0.193 C 
ATOM     84  H42 non d ame     -13.140  14.969  74.411  0.00  0.00     0.280 HD
ATOM     85  H43 non d ame     -14.200  16.321  74.082  0.00  0.00     0.280 HD
ATOM     86  H44 non d ame     -14.750  15.392  71.833  0.00  0.00     0.129 H 
ATOM     87  H37 non d ame     -13.565  15.748  70.777  0.00  0.00     0.046 H 
BRANCH  83  88
ATOM     88  O6  non d ame     -14.105  13.624  72.556  0.00  0.00    -0.369 OA
ATOM     89  H45 non d ame     -14.237  13.432  73.487  0.00  0.00     0.212 HD
ENDBRANCH  83  88
ENDBRANCH  72  75
ENDBRANCH  47  72
ENDBRANCH  45  47
ENDBRANCH   1  43
BRANCH   1  90
ATOM     90  C16 non d ame     -10.176  10.694  66.987  0.00  0.00    -0.035 C 
ATOM     91  H21 non d ame     -11.034  10.310  66.435  0.00  0.00     0.037 H 
ATOM     92  H22 non d ame      -9.925  11.754  66.934  0.00  0.00     0.037 H 
BRANCH  90  93
ATOM     93  C17 non d ame      -8.928   9.918  66.457  0.00  0.00    -0.059 C 
ATOM     94  H23 non d ame      -8.660   9.172  67.205  0.00  0.00     0.038 H 
BRANCH  93  95
ATOM     95  C18 non d ame      -9.226   9.167  65.120  0.00  0.00    -0.073 C 
ATOM     96  H24 non d ame     -10.292   9.223  64.901  0.00  0.00     0.028 H 
ATOM     97  H25 non d ame      -8.664   9.631  64.309  0.00  0.00     0.028 H 
ATOM     98  H26 non d ame      -8.929   8.122  65.216  0.00  0.00     0.028 H 
ENDBRANCH  93  95
BRANCH  93  99
ATOM     99  C19 non d ame      -7.728  10.855  66.299  0.00  0.00    -0.073 C 
ATOM    100  H27 non d ame      -7.518  11.002  65.239  0.00  0.00     0.028 H 
ATOM    101  H28 non d ame      -7.955  11.817  66.761  0.00  0.00     0.028 H 
ATOM    102  H29 non d ame      -6.857  10.416  66.784  0.00  0.00     0.028 H 
ENDBRANCH  93  99
ENDBRANCH  90  93
ENDBRANCH   1  90
TORSDOF 26
ENDMDL
MODEL 3
REMARK VINA RESULT:      -6.1      2.351      7.709
REMARK  26 active torsions:
REMARK  status: ('A' for Active; 'I' for Inactive)
REMARK    1  A    between atoms: C2_2  and  C3_3 
REMARK    2  A    between atoms: C4_6  and  C5_7 
REMARK       I    between atoms: C5_7  and  N2_9 
REMARK    3  A    between atoms: N2_9  and  C6_10 
REMARK    4  A    between atoms: C6_10  and  C7_11 
REMARK    5  A    between atoms: C6_10  and  C8_13 
REMARK       I    between atoms: C7_11  and  N3_14 
REMARK    6  A    between atoms: N3_14  and  C9_15 
REMARK    7  A    between atoms: C9_15  and  C10_16 
REMARK    8  A    between atoms: C9_15  and  C11_18 
REMARK       I    between atoms: C10_16  and  N4_21 
REMARK    9  A    between atoms: C11_18  and  C12_19 
REMARK   10  A    between atoms: C11_18  and  C13_20 
REMARK   11  A    between atoms: N4_21  and  C14_22 
REMARK   12  A    between atoms: C14_22  and  C15_23 
REMARK   13  A    between atoms: C14_22  and  C16_25 
REMARK       I    between atoms: C15_23  and  N6_40 
REMARK   14  A    between atoms: C16_25  and  C17_26 
REMARK   15  A    between atoms: C17_26  and  C18_27 
REMARK   16  A    between atoms: C17_26  and  C19_28 
REMARK   17  A    between atoms: C20_29  and  C21_30 
REMARK   18  A    between atoms: C20_29  and  C24_33 
REMARK   19  A    between atoms: C20_29  and  N6_40 
REMARK   20  A    between atoms: C21_30  and  C22_31 
REMARK   21  A    between atoms: C22_31  and  C23_32 
REMARK   22  A    between atoms: C23_32  and  O8_43 
REMARK   23  A    between atoms: C24_33  and  C25_34 
REMARK   24  A    between atoms: C28_38  and  O6_39 
REMARK   25  A    between atoms: C29_42  and  O8_43 
REMARK   26  A    between atoms: C29_42  and  C35_49 
ROOT
ATOM      1  C14 non d ame      -6.968  13.299  68.258  0.00  0.00     0.089 C 
ATOM      2  H20 non d ame      -6.232  13.123  67.474  0.00  0.00     0.087 H 
ENDROOT
BRANCH   1   3
ATOM      3  N4  non d ame      -7.214  14.733  68.314  0.00  0.00    -0.346 N 
ATOM      4  C10 non d ame      -6.221  15.699  67.719  0.00  0.00     0.241 C 
ATOM      5  O4  non d ame      -5.230  15.300  67.202  0.00  0.00    -0.271 OA
ATOM      6  H19 non d ame      -8.062  15.053  68.760  0.00  0.00     0.163 HD
BRANCH   4   7
ATOM      7  C9  non d ame      -6.494  17.179  67.781  0.00  0.00     0.092 C 
ATOM      8  H11 non d ame      -6.264  17.627  66.814  0.00  0.00     0.088 H 
BRANCH   7   9
ATOM      9  N3  non d ame      -7.920  17.403  68.035  0.00  0.00    -0.346 N 
ATOM     10  C7  non d ame      -8.820  17.639  66.932  0.00  0.00     0.240 C 
ATOM     11  O3  non d ame      -8.412  17.652  65.835  0.00  0.00    -0.271 OA
ATOM     12  H10 non d ame      -8.286  17.396  68.976  0.00  0.00     0.163 HD
BRANCH  10  13
ATOM     13  C6  non d ame     -10.336  17.880  67.208  0.00  0.00     0.086 C 
ATOM     14  H6  non d ame     -10.981  17.386  66.482  0.00  0.00     0.086 H 
BRANCH  13  15
ATOM     15  N2  non d ame     -10.672  17.324  68.508  0.00  0.00    -0.343 N 
ATOM     16  C5  non d ame     -11.334  16.019  68.586  0.00  0.00     0.273 C 
ATOM     17  O2  non d ame     -11.594  15.427  67.596  0.00  0.00    -0.266 OA
ATOM     18  H5  non d ame     -10.449  17.838  69.349  0.00  0.00     0.163 HD
BRANCH  16  19
ATOM     19  C4  non d ame     -11.694  15.419  69.954  0.00  0.00     0.154 A 
ATOM     20  C1  non d ame     -11.751  16.102  71.210  0.00  0.00    -0.017 A 
ATOM     21  C2  non d ame     -12.126  15.111  72.145  0.00  0.00     0.077 A 
ATOM     22  H1  non d ame     -11.552  17.154  71.412  0.00  0.00     0.091 H 
ATOM     23  O1  non d ame     -12.266  13.995  71.492  0.00  0.00    -0.218 OA
ATOM     24  N1  non d ame     -12.019  14.149  70.212  0.00  0.00    -0.123 NA
BRANCH  21  25
ATOM     25  C3  non d ame     -12.330  15.315  73.641  0.00  0.00    -0.029 C 
ATOM     26  H2  non d ame     -12.120  16.353  73.899  0.00  0.00     0.036 H 
ATOM     27  H3  non d ame     -13.360  15.076  73.903  0.00  0.00     0.036 H 
ATOM     28  H4  non d ame     -11.654  14.660  74.192  0.00  0.00     0.036 H 
ENDBRANCH  21  25
ENDBRANCH  16  19
ENDBRANCH  13  15
BRANCH  13  29
ATOM     29  C8  non d ame     -10.624  19.360  67.189  0.00  0.00    -0.049 C 
ATOM     30  H7  non d ame      -9.804  19.883  66.698  0.00  0.00     0.030 H 
ATOM     31  H8  non d ame     -11.550  19.542  66.644  0.00  0.00     0.030 H 
ATOM     32  H9  non d ame     -10.726  19.723  68.212  0.00  0.00     0.030 H 
ENDBRANCH  13  29
ENDBRANCH  10  13
ENDBRANCH   7   9
BRANCH   7  33
ATOM     33  C11 non d ame      -5.659  17.812  68.932  0.00  0.00    -0.033 C 
ATOM     34  H12 non d ame      -4.642  17.949  68.565  0.00  0.00     0.042 H 
BRANCH  33  35
ATOM     35  C12 non d ame      -6.208  19.219  69.325  0.00  0.00    -0.071 C 
ATOM     36  H13 non d ame      -5.379  19.865  69.615  0.00  0.00     0.028 H 
ATOM     37  H14 non d ame      -6.728  19.657  68.473  0.00  0.00     0.028 H 
ATOM     38  H15 non d ame      -6.900  19.118  70.161  0.00  0.00     0.028 H 
ENDBRANCH  33  35
BRANCH  33  39
ATOM     39  C13 non d ame      -5.602  16.861  70.170  0.00  0.00    -0.071 C 
ATOM     40  H16 non d ame      -5.523  15.828  69.832  0.00  0.00     0.028 H 
ATOM     41  H17 non d ame      -4.733  17.110  70.780  0.00  0.00     0.028 H 
ATOM     42  H18 non d ame      -6.508  16.981  70.763  0.00  0.00     0.028 H 
ENDBRANCH  33  39
ENDBRANCH   7  33
ENDBRANCH   4   7
ENDBRANCH   1   3
BRANCH   1  43
ATOM     43  C15 non d ame      -8.316  12.577  67.971  0.00  0.00     0.240 C 
ATOM     44  O5  non d ame      -9.342  13.106  68.253  0.00  0.00    -0.271 OA
ATOM     45  N6  non d ame      -8.328  11.228  67.337  0.00  0.00    -0.355 N 
ATOM     46  H46 non d ame      -7.463  10.770  67.089  0.00  0.00     0.162 HD
BRANCH  45  47
ATOM     47  C20 non d ame      -9.617  10.555  67.070  0.00  0.00     0.013 C 
ATOM     48  H30 non d ame     -10.417  11.243  67.344  0.00  0.00     0.072 H 
BRANCH  47  49
ATOM     49  C21 non d ame      -9.707   9.298  67.905  0.00  0.00    -0.038 C 
ATOM     50  H31 non d ame      -8.677   8.998  68.098  0.00  0.00     0.036 H 
ATOM     51  H32 non d ame     -10.369   9.544  68.736  0.00  0.00     0.036 H 
BRANCH  49  52
ATOM     52  C22 non d ame     -10.370   8.124  67.152  0.00  0.00     0.018 C 
ATOM     53  H33 non d ame     -11.370   8.470  66.887  0.00  0.00     0.048 H 
ATOM     54  H34 non d ame      -9.666   7.840  66.370  0.00  0.00     0.048 H 
BRANCH  52  55
ATOM     55  C23 non d ame     -10.575   6.856  68.026  0.00  0.00     0.259 C 
ATOM     56  O7  non d ame     -11.101   5.890  67.574  0.00  0.00    -0.265 OA
BRANCH  55  57
ATOM     57  O8  non d ame     -10.138   6.864  69.380  0.00  0.00    -0.317 OA
BRANCH  57  58
ATOM     58  C29 non d ame     -11.069   6.280  70.296  0.00  0.00     0.052 C 
ATOM     59  H47 non d ame     -11.719   5.648  69.692  0.00  0.00     0.082 H 
ATOM     60  H48 non d ame     -10.465   5.841  71.090  0.00  0.00     0.082 H 
BRANCH  58  61
ATOM     61  C35 non d ame     -11.923   7.425  70.904  0.00  0.00    -0.034 A 
ATOM     62  C30 non d ame     -13.221   7.172  71.334  0.00  0.00    -0.075 A 
ATOM     63  C31 non d ame     -13.989   8.199  71.881  0.00  0.00    -0.082 A 
ATOM     64  H49 non d ame     -13.637   6.168  71.243  0.00  0.00     0.084 H 
ATOM     65  C32 non d ame     -13.453   9.485  71.994  0.00  0.00    -0.083 A 
ATOM     66  H50 non d ame     -15.005   7.997  72.219  0.00  0.00     0.083 H 
ATOM     67  C33 non d ame     -12.158   9.734  71.561  0.00  0.00    -0.082 A 
ATOM     68  H51 non d ame     -14.046  10.294  72.421  0.00  0.00     0.083 H 
ATOM     69  C34 non d ame     -11.387   8.709  71.016  0.00  0.00    -0.075 A 
ATOM     70  H52 non d ame     -11.744  10.739  71.649  0.00  0.00     0.083 H 
ATOM     71  H53 non d ame     -10.370   8.912  70.679  0.00  0.00     0.084 H 
ENDBRANCH  58  61
ENDBRANCH  57  58
ENDBRANCH  55  57
ENDBRANCH  52  55
ENDBRANCH  49  52
ENDBRANCH  47  49
BRANCH  47  72
ATOM     72  C24 non d ame      -9.713  10.192  65.590  0.00  0.00    -0.039 C 
ATOM     73  H35 non d ame      -8.712   9.865  65.305  0.00  0.00     0.036 H 
ATOM     74  H36 non d ame     -10.553   9.501  65.514  0.00  0.00     0.036 H 
BRANCH  72  75
ATOM     75  C25 non d ame     -10.068  11.467  64.688  0.00  0.00    -0.001 C 
ATOM     76  C26 non d ame     -11.466  12.154  65.215  0.00  0.00    -0.035 C 
ATOM     77  C27 non d ame     -12.302  12.309  64.160  0.00  0.00     0.085 C 
ATOM     78  H38 non d ame     -12.001  11.461  65.865  0.00  0.00     0.036 H 
ATOM     79  H39 non d ame     -11.280  13.176  65.544  0.00  0.00     0.036 H 
ATOM     80  N5  non d ame     -11.733  11.494  63.024  0.00  0.00    -0.049 N 
ATOM     81  H40 non d ame     -13.250  11.870  64.473  0.00  0.00     0.075 H 
ATOM     82  H41 non d ame     -12.250  13.365  63.900  0.00  0.00     0.075 H 
ATOM     83  C28 non d ame     -10.217  11.137  63.448  0.00  0.00     0.193 C 
ATOM     84  H42 non d ame     -12.268  10.638  62.990  0.00  0.00     0.280 HD
ATOM     85  H43 non d ame     -11.706  12.104  62.219  0.00  0.00     0.280 HD
ATOM     86  H44 non d ame      -9.377  11.667  63.000  0.00  0.00     0.129 H 
ATOM     87  H37 non d ame      -9.212  12.128  64.551  0.00  0.00     0.046 H 
BRANCH  83  88
ATOM     88  O6  non d ame      -9.956   9.750  63.225  0.00  0.00    -0.369 OA
ATOM     89  H45 non d ame     -10.730   9.338  62.835  0.00  0.00     0.212 HD
ENDBRANCH  83  88
ENDBRANCH  72  75
ENDBRANCH  47  72
ENDBRANCH  45  47
ENDBRANCH   1  43
BRANCH   1  90
ATOM     90  C16 non d ame      -6.416  12.838  69.597  0.00  0.00    -0.035 C 
ATOM     91  H21 non d ame      -6.241  13.750  70.167  0.00  0.00     0.037 H 
ATOM     92  H22 non d ame      -7.125  12.095  69.962  0.00  0.00     0.037 H 
BRANCH  90  93
ATOM     93  C17 non d ame      -5.036  12.114  69.489  0.00  0.00    -0.059 C 
ATOM     94  H23 non d ame      -5.015  11.582  68.538  0.00  0.00     0.038 H 
BRANCH  93  95
ATOM     95  C18 non d ame      -3.840  13.119  69.499  0.00  0.00    -0.073 C 
ATOM     96  H24 non d ame      -3.475  13.238  70.519  0.00  0.00     0.028 H 
ATOM     97  H25 non d ame      -3.038  12.736  68.868  0.00  0.00     0.028 H 
ATOM     98  H26 non d ame      -4.174  14.084  69.117  0.00  0.00     0.028 H 
ENDBRANCH  93  95
BRANCH  93  99
ATOM     99  C19 non d ame      -4.879  11.069  70.597  0.00  0.00    -0.073 C 
ATOM    100  H27 non d ame      -4.943  10.070  70.167  0.00  0.00     0.028 H 
ATOM    101  H28 non d ame      -3.909  11.195  71.080  0.00  0.00     0.028 H 
ATOM    102  H29 non d ame      -5.670  11.200  71.334  0.00  0.00     0.028 H 
ENDBRANCH  93  99
ENDBRANCH  90  93
ENDBRANCH   1  90
TORSDOF 26
ENDMDL
MODEL 4
REMARK VINA RESULT:      -6.1      3.414      9.164
REMARK  26 active torsions:
REMARK  status: ('A' for Active; 'I' for Inactive)
REMARK    1  A    between atoms: C2_2  and  C3_3 
REMARK    2  A    between atoms: C4_6  and  C5_7 
REMARK       I    between atoms: C5_7  and  N2_9 
REMARK    3  A    between atoms: N2_9  and  C6_10 
REMARK    4  A    between atoms: C6_10  and  C7_11 
REMARK    5  A    between atoms: C6_10  and  C8_13 
REMARK       I    between atoms: C7_11  and  N3_14 
REMARK    6  A    between atoms: N3_14  and  C9_15 
REMARK    7  A    between atoms: C9_15  and  C10_16 
REMARK    8  A    between atoms: C9_15  and  C11_18 
REMARK       I    between atoms: C10_16  and  N4_21 
REMARK    9  A    between atoms: C11_18  and  C12_19 
REMARK   10  A    between atoms: C11_18  and  C13_20 
REMARK   11  A    between atoms: N4_21  and  C14_22 
REMARK   12  A    between atoms: C14_22  and  C15_23 
REMARK   13  A    between atoms: C14_22  and  C16_25 
REMARK       I    between atoms: C15_23  and  N6_40 
REMARK   14  A    between atoms: C16_25  and  C17_26 
REMARK   15  A    between atoms: C17_26  and  C18_27 
REMARK   16  A    between atoms: C17_26  and  C19_28 
REMARK   17  A    between atoms: C20_29  and  C21_30 
REMARK   18  A    between atoms: C20_29  and  C24_33 
REMARK   19  A    between atoms: C20_29  and  N6_40 
REMARK   20  A    between atoms: C21_30  and  C22_31 
REMARK   21  A    between atoms: C22_31  and  C23_32 
REMARK   22  A    between atoms: C23_32  and  O8_43 
REMARK   23  A    between atoms: C24_33  and  C25_34 
REMARK   24  A    between atoms: C28_38  and  O6_39 
REMARK   25  A    between atoms: C29_42  and  O8_43 
REMARK   26  A    between atoms: C29_42  and  C35_49 
ROOT
ATOM      1  C14 non d ame      -8.760   6.856  66.813  0.00  0.00     0.089 C 
ATOM      2  H20 non d ame      -9.136   6.564  65.831  0.00  0.00     0.087 H 
ENDROOT
BRANCH   1   3
ATOM      3  N4  non d ame      -8.539   8.294  66.788  0.00  0.00    -0.346 N 
ATOM      4  C10 non d ame      -8.421   9.024  65.473  0.00  0.00     0.241 C 
ATOM      5  O4  non d ame      -8.504   8.431  64.448  0.00  0.00    -0.271 OA
ATOM      6  H19 non d ame      -8.469   8.780  67.671  0.00  0.00     0.163 HD
BRANCH   4   7
ATOM      7  C9  non d ame      -8.198  10.514  65.466  0.00  0.00     0.092 C 
ATOM      8  H11 non d ame      -7.753  10.805  64.515  0.00  0.00     0.088 H 
BRANCH   7   9
ATOM      9  N3  non d ame      -9.489  11.202  65.569  0.00  0.00    -0.346 N 
ATOM     10  C7  non d ame     -10.134  11.704  64.380  0.00  0.00     0.240 C 
ATOM     11  O3  non d ame      -9.628  11.565  63.334  0.00  0.00    -0.271 OA
ATOM     12  H10 non d ame      -9.937  11.331  66.464  0.00  0.00     0.163 HD
BRANCH  10  13
ATOM     13  C6  non d ame     -11.505  12.439  64.496  0.00  0.00     0.086 C 
ATOM     14  H6  non d ame     -12.066  12.147  65.384  0.00  0.00     0.086 H 
BRANCH  13  15
ATOM     15  N2  non d ame     -11.267  13.868  64.605  0.00  0.00    -0.343 N 
ATOM     16  C5  non d ame     -10.971  14.452  65.915  0.00  0.00     0.273 C 
ATOM     17  O2  non d ame     -10.930  13.764  66.876  0.00  0.00    -0.266 OA
ATOM     18  H5  non d ame     -11.307  14.449  63.780  0.00  0.00     0.163 HD
BRANCH  16  19
ATOM     19  C4  non d ame     -10.716  15.962  66.045  0.00  0.00     0.154 A 
ATOM     20  C1  non d ame     -10.491  16.700  67.250  0.00  0.00    -0.017 A 
ATOM     21  C2  non d ame     -10.311  18.037  66.830  0.00  0.00     0.077 A 
ATOM     22  H1  non d ame     -10.463  16.324  68.273  0.00  0.00     0.091 H 
ATOM     23  O1  non d ame     -10.420  18.053  65.533  0.00  0.00    -0.218 OA
ATOM     24  N1  non d ame     -10.656  16.854  65.053  0.00  0.00    -0.123 NA
BRANCH  21  25
ATOM     25  C3  non d ame     -10.039  19.236  67.728  0.00  0.00    -0.029 C 
ATOM     26  H2  non d ame      -9.199  19.014  68.386  0.00  0.00     0.036 H 
ATOM     27  H3  non d ame      -9.800  20.104  67.113  0.00  0.00     0.036 H 
ATOM     28  H4  non d ame     -10.924  19.449  68.328  0.00  0.00     0.036 H 
ENDBRANCH  21  25
ENDBRANCH  16  19
ENDBRANCH  13  15
BRANCH  13  29
ATOM     29  C8  non d ame     -12.340  12.146  63.275  0.00  0.00    -0.049 C 
ATOM     30  H7  non d ame     -13.223  11.577  63.567  0.00  0.00     0.030 H 
ATOM     31  H8  non d ame     -12.648  13.083  62.812  0.00  0.00     0.030 H 
ATOM     32  H9  non d ame     -11.753  11.565  62.565  0.00  0.00     0.030 H 
ENDBRANCH  13  29
ENDBRANCH  10  13
ENDBRANCH   7   9
BRANCH   7  33
ATOM     33  C11 non d ame      -7.304  10.910  66.677  0.00  0.00    -0.033 C 
ATOM     34  H12 non d ame      -7.476  10.178  67.466  0.00  0.00     0.042 H 
BRANCH  33  35
ATOM     35  C12 non d ame      -5.789  10.855  66.308  0.00  0.00    -0.071 C 
ATOM     36  H13 non d ame      -5.432   9.828  66.394  0.00  0.00     0.028 H 
ATOM     37  H14 non d ame      -5.652  11.202  65.284  0.00  0.00     0.028 H 
ATOM     38  H15 non d ame      -5.226  11.494  66.987  0.00  0.00     0.028 H 
ENDBRANCH  33  35
BRANCH  33  39
ATOM     39  C13 non d ame      -7.702  12.317  67.229  0.00  0.00    -0.071 C 
ATOM     40  H16 non d ame      -7.239  13.091  66.617  0.00  0.00     0.028 H 
ATOM     41  H17 non d ame      -8.786  12.428  67.195  0.00  0.00     0.028 H 
ATOM     42  H18 non d ame      -7.359  12.413  68.259  0.00  0.00     0.028 H 
ENDBRANCH  33  39
ENDBRANCH   7  33
ENDBRANCH   4   7
ENDBRANCH   1   3
BRANCH   1  43
ATOM     43  C15 non d ame      -9.771   6.530  67.949  0.00  0.00     0.240 C 
ATOM     44  O5  non d ame     -10.597   5.691  67.783  0.00  0.00    -0.271 OA
ATOM     45  N6  non d ame      -9.705   7.258  69.248  0.00  0.00    -0.355 N 
ATOM     46  H46 non d ame      -9.006   7.970  69.403  0.00  0.00     0.162 HD
BRANCH  45  47
ATOM     47  C20 non d ame     -10.673   6.936  70.319  0.00  0.00     0.013 C 
ATOM     48  H30 non d ame     -11.473   6.339  69.880  0.00  0.00     0.072 H 
BRANCH  47  49
ATOM     49  C21 non d ame     -11.238   8.219  70.885  0.00  0.00    -0.038 C 
ATOM     50  H31 non d ame     -12.244   8.305  70.474  0.00  0.00     0.036 H 
ATOM     51  H32 non d ame     -11.094   8.152  71.964  0.00  0.00     0.036 H 
BRANCH  49  52
ATOM     52  C22 non d ame     -10.465   9.471  70.418  0.00  0.00     0.018 C 
ATOM     53  H33 non d ame     -10.512  10.175  71.249  0.00  0.00     0.048 H 
ATOM     54  H34 non d ame      -9.500   9.108  70.065  0.00  0.00     0.048 H 
BRANCH  52  55
ATOM     55  C23 non d ame     -11.119  10.194  69.207  0.00  0.00     0.259 C 
ATOM     56  O7  non d ame     -10.808   9.912  68.096  0.00  0.00    -0.265 OA
BRANCH  55  57
ATOM     57  O8  non d ame     -12.087  11.210  69.442  0.00  0.00    -0.317 OA
BRANCH  57  58
ATOM     58  C29 non d ame     -12.452  11.359  70.817  0.00  0.00     0.052 C 
ATOM     59  H47 non d ame     -13.386  10.810  70.935  0.00  0.00     0.082 H 
ATOM     60  H48 non d ame     -11.572  11.068  71.390  0.00  0.00     0.082 H 
BRANCH  58  61
ATOM     61  C35 non d ame     -12.731  12.864  71.078  0.00  0.00    -0.034 A 
ATOM     62  C30 non d ame     -12.196  13.829  70.231  0.00  0.00    -0.075 A 
ATOM     63  C31 non d ame     -12.445  15.180  70.465  0.00  0.00    -0.082 A 
ATOM     64  H49 non d ame     -11.581  13.526  69.383  0.00  0.00     0.084 H 
ATOM     65  C32 non d ame     -13.232  15.565  71.554  0.00  0.00    -0.083 A 
ATOM     66  H50 non d ame     -12.027  15.933  69.798  0.00  0.00     0.083 H 
ATOM     67  C33 non d ame     -13.762  14.599  72.399  0.00  0.00    -0.082 A 
ATOM     68  H51 non d ame     -13.433  16.620  71.744  0.00  0.00     0.083 H 
ATOM     69  C34 non d ame     -13.516  13.247  72.167  0.00  0.00    -0.075 A 
ATOM     70  H52 non d ame     -14.373  14.903  73.249  0.00  0.00     0.083 H 
ATOM     71  H53 non d ame     -13.936  12.494  72.834  0.00  0.00     0.084 H 
ENDBRANCH  58  61
ENDBRANCH  57  58
ENDBRANCH  55  57
ENDBRANCH  52  55
ENDBRANCH  49  52
ENDBRANCH  47  49
BRANCH  47  72
ATOM     72  C24 non d ame      -9.974   6.153  71.428  0.00  0.00    -0.039 C 
ATOM     73  H35 non d ame      -9.992   5.112  71.104  0.00  0.00     0.036 H 
ATOM     74  H36 non d ame      -9.021   6.658  71.584  0.00  0.00     0.036 H 
BRANCH  72  75
ATOM     75  C25 non d ame     -10.782   6.231  72.809  0.00  0.00    -0.001 C 
ATOM     76  C26 non d ame      -9.873   6.995  73.947  0.00  0.00    -0.035 C 
ATOM     77  C27 non d ame      -9.832   6.226  75.061  0.00  0.00     0.085 C 
ATOM     78  H38 non d ame      -8.832   7.036  73.628  0.00  0.00     0.036 H 
ATOM     79  H39 non d ame     -10.377   7.902  74.282  0.00  0.00     0.036 H 
ATOM     80  N5  non d ame     -10.355   4.863  74.676  0.00  0.00    -0.049 N 
ATOM     81  H40 non d ame      -8.776   6.142  75.319  0.00  0.00     0.075 H 
ATOM     82  H41 non d ame     -10.528   6.689  75.760  0.00  0.00     0.075 H 
ATOM     83  C28 non d ame     -11.078   5.053  73.245  0.00  0.00     0.193 C 
ATOM     84  H42 non d ame      -9.546   4.271  74.552  0.00  0.00     0.280 HD
ATOM     85  H43 non d ame     -11.057   4.622  75.362  0.00  0.00     0.280 HD
ATOM     86  H44 non d ame     -12.166   5.082  73.174  0.00  0.00     0.129 H 
ATOM     87  H37 non d ame     -11.803   6.586  72.670  0.00  0.00     0.046 H 
BRANCH  83  88
ATOM     88  O6  non d ame     -10.664   4.024  72.344  0.00  0.00    -0.369 OA
ATOM     89  H45 non d ame     -10.744   4.340  71.441  0.00  0.00     0.212 HD
ENDBRANCH  83  88
ENDBRANCH  72  75
ENDBRANCH  47  72
ENDBRANCH  45  47
ENDBRANCH   1  43
BRANCH   1  90
ATOM     90  C16 non d ame      -7.439   6.156  67.088  0.00  0.00    -0.035 C 
ATOM     91  H21 non d ame      -6.679   6.935  67.019  0.00  0.00     0.037 H 
ATOM     92  H22 non d ame      -7.586   5.620  68.026  0.00  0.00     0.037 H 
BRANCH  90  93
ATOM     93  C17 non d ame      -7.066   5.080  66.019  0.00  0.00    -0.059 C 
ATOM     94  H23 non d ame      -7.995   4.696  65.598  0.00  0.00     0.038 H 
BRANCH  93  95
ATOM     95  C18 non d ame      -6.224   5.681  64.847  0.00  0.00    -0.073 C 
ATOM     96  H24 non d ame      -6.092   4.927  64.072  0.00  0.00     0.028 H 
ATOM     97  H25 non d ame      -6.745   6.543  64.431  0.00  0.00     0.028 H 
ATOM     98  H26 non d ame      -5.249   5.992  65.223  0.00  0.00     0.028 H 
ENDBRANCH  93  95
BRANCH  93  99
ATOM     99  C19 non d ame      -6.336   3.899  66.664  0.00  0.00    -0.073 C 
ATOM    100  H27 non d ame      -6.308   3.063  65.964  0.00  0.00     0.028 H 
ATOM    101  H28 non d ame      -5.318   4.196  66.917  0.00  0.00     0.028 H 
ATOM    102  H29 non d ame      -6.862   3.598  67.569  0.00  0.00     0.028 H 
ENDBRANCH  93  99
ENDBRANCH  90  93
ENDBRANCH   1  90
TORSDOF 26
ENDMDL
MODEL 5
REMARK VINA RESULT:      -6.0      3.013      7.446
REMARK  26 active torsions:
REMARK  status: ('A' for Active; 'I' for Inactive)
REMARK    1  A    between atoms: C2_2  and  C3_3 
REMARK    2  A    between atoms: C4_6  and  C5_7 
REMARK       I    between atoms: C5_7  and  N2_9 
REMARK    3  A    between atoms: N2_9  and  C6_10 
REMARK    4  A    between atoms: C6_10  and  C7_11 
REMARK    5  A    between atoms: C6_10  and  C8_13 
REMARK       I    between atoms: C7_11  and  N3_14 
REMARK    6  A    between atoms: N3_14  and  C9_15 
REMARK    7  A    between atoms: C9_15  and  C10_16 
REMARK    8  A    between atoms: C9_15  and  C11_18 
REMARK       I    between atoms: C10_16  and  N4_21 
REMARK    9  A    between atoms: C11_18  and  C12_19 
REMARK   10  A    between atoms: C11_18  and  C13_20 
REMARK   11  A    between atoms: N4_21  and  C14_22 
REMARK   12  A    between atoms: C14_22  and  C15_23 
REMARK   13  A    between atoms: C14_22  and  C16_25 
REMARK       I    between atoms: C15_23  and  N6_40 
REMARK   14  A    between atoms: C16_25  and  C17_26 
REMARK   15  A    between atoms: C17_26  and  C18_27 
REMARK   16  A    between atoms: C17_26  and  C19_28 
REMARK   17  A    between atoms: C20_29  and  C21_30 
REMARK   18  A    between atoms: C20_29  and  C24_33 
REMARK   19  A    between atoms: C20_29  and  N6_40 
REMARK   20  A    between atoms: C21_30  and  C22_31 
REMARK   21  A    between atoms: C22_31  and  C23_32 
REMARK   22  A    between atoms: C23_32  and  O8_43 
REMARK   23  A    between atoms: C24_33  and  C25_34 
REMARK   24  A    between atoms: C28_38  and  O6_39 
REMARK   25  A    between atoms: C29_42  and  O8_43 
REMARK   26  A    between atoms: C29_42  and  C35_49 
ROOT
ATOM      1  C14 non d ame      -8.935  10.316  66.296  0.00  0.00     0.089 C 
ATOM      2  H20 non d ame      -9.595   9.738  65.648  0.00  0.00     0.087 H 
ENDROOT
BRANCH   1   3
ATOM      3  N4  non d ame      -9.373  11.703  66.244  0.00  0.00    -0.346 N 
ATOM      4  C10 non d ame     -10.829  12.049  66.429  0.00  0.00     0.241 C 
ATOM      5  O4  non d ame     -11.630  11.194  66.617  0.00  0.00    -0.271 OA
ATOM      6  H19 non d ame      -8.676  12.415  66.081  0.00  0.00     0.163 HD
BRANCH   4   7
ATOM      7  C9  non d ame     -11.264  13.490  66.378  0.00  0.00     0.092 C 
ATOM      8  H11 non d ame     -12.330  13.551  66.595  0.00  0.00     0.088 H 
BRANCH   7   9
ATOM      9  N3  non d ame     -10.566  14.249  67.420  0.00  0.00    -0.346 N 
ATOM     10  C7  non d ame     -11.217  14.507  68.681  0.00  0.00     0.240 C 
ATOM     11  O3  non d ame     -12.302  14.113  68.873  0.00  0.00    -0.271 OA
ATOM     12  H10 non d ame      -9.630  14.597  67.269  0.00  0.00     0.163 HD
BRANCH  10  13
ATOM     13  C6  non d ame     -10.471  15.318  69.786  0.00  0.00     0.086 C 
ATOM     14  H6  non d ame      -9.536  14.850  70.094  0.00  0.00     0.086 H 
BRANCH  13  15
ATOM     15  N2  non d ame     -10.125  16.627  69.257  0.00  0.00    -0.343 N 
ATOM     16  C5  non d ame      -8.801  16.841  68.669  0.00  0.00     0.273 C 
ATOM     17  O2  non d ame      -8.020  15.955  68.629  0.00  0.00    -0.266 OA
ATOM     18  H5  non d ame     -10.798  17.380  69.298  0.00  0.00     0.163 HD
BRANCH  16  19
ATOM     19  C4  non d ame      -8.422  18.219  68.105  0.00  0.00     0.154 A 
ATOM     20  C1  non d ame      -7.152  18.872  68.196  0.00  0.00    -0.017 A 
ATOM     21  C2  non d ame      -7.326  20.102  67.523  0.00  0.00     0.077 A 
ATOM     22  H1  non d ame      -6.243  18.508  68.675  0.00  0.00     0.091 H 
ATOM     23  O1  non d ame      -8.555  20.141  67.099  0.00  0.00    -0.218 OA
ATOM     24  N1  non d ame      -9.215  19.054  67.426  0.00  0.00    -0.123 NA
BRANCH  21  25
ATOM     25  C3  non d ame      -6.270  21.182  67.331  0.00  0.00    -0.029 C 
ATOM     26  H2  non d ame      -5.277  20.742  67.431  0.00  0.00     0.036 H 
ATOM     27  H3  non d ame      -6.374  21.619  66.338  0.00  0.00     0.036 H 
ATOM     28  H4  non d ame      -6.401  21.958  68.085  0.00  0.00     0.036 H 
ENDBRANCH  21  25
ENDBRANCH  16  19
ENDBRANCH  13  15
BRANCH  13  29
ATOM     29  C8  non d ame     -11.362  15.468  70.992  0.00  0.00    -0.049 C 
ATOM     30  H7  non d ame     -11.208  16.450  71.438  0.00  0.00     0.030 H 
ATOM     31  H8  non d ame     -12.404  15.365  70.690  0.00  0.00     0.030 H 
ATOM     32  H9  non d ame     -11.117  14.696  71.722  0.00  0.00     0.030 H 
ENDBRANCH  13  29
ENDBRANCH  10  13
ENDBRANCH   7   9
BRANCH   7  33
ATOM     33  C11 non d ame     -10.915  14.088  64.983  0.00  0.00    -0.033 C 
ATOM     34  H12 non d ame      -9.927  13.719  64.706  0.00  0.00     0.042 H 
BRANCH  33  35
ATOM     35  C12 non d ame     -11.920  13.607  63.891  0.00  0.00    -0.071 C 
ATOM     36  H13 non d ame     -11.901  12.518  63.834  0.00  0.00     0.028 H 
ATOM     37  H14 non d ame     -12.925  13.939  64.151  0.00  0.00     0.028 H 
ATOM     38  H15 non d ame     -11.636  14.027  62.927  0.00  0.00     0.028 H 
ENDBRANCH  33  35
BRANCH  33  39
ATOM     39  C13 non d ame     -10.848  15.648  65.044  0.00  0.00    -0.071 C 
ATOM     40  H16 non d ame     -11.381  16.068  64.192  0.00  0.00     0.028 H 
ATOM     41  H17 non d ame     -11.309  15.996  65.969  0.00  0.00     0.028 H 
ATOM     42  H18 non d ame      -9.806  15.968  65.015  0.00  0.00     0.028 H 
ENDBRANCH  33  39
ENDBRANCH   7  33
ENDBRANCH   4   7
ENDBRANCH   1   3
BRANCH   1  43
ATOM     43  C15 non d ame      -8.993   9.833  67.774  0.00  0.00     0.240 C 
ATOM     44  O5  non d ame      -8.790  10.604  68.656  0.00  0.00    -0.271 OA
ATOM     45  N6  non d ame      -9.311   8.412  68.090  0.00  0.00    -0.355 N 
ATOM     46  H46 non d ame      -9.491   7.749  67.350  0.00  0.00     0.162 HD
BRANCH  45  47
ATOM     47  C20 non d ame      -9.364   7.969  69.500  0.00  0.00     0.013 C 
ATOM     48  H30 non d ame      -8.820   8.697  70.101  0.00  0.00     0.072 H 
BRANCH  47  49
ATOM     49  C21 non d ame      -8.714   6.609  69.622  0.00  0.00    -0.038 C 
ATOM     50  H31 non d ame      -8.017   6.540  68.786  0.00  0.00     0.036 H 
ATOM     51  H32 non d ame      -8.345   6.550  70.646  0.00  0.00     0.036 H 
BRANCH  49  52
ATOM     52  C22 non d ame      -9.717   5.448  69.451  0.00  0.00     0.018 C 
ATOM     53  H33 non d ame      -9.428   4.697  70.188  0.00  0.00     0.048 H 
ATOM     54  H34 non d ame     -10.707   5.903  69.497  0.00  0.00     0.048 H 
BRANCH  52  55
ATOM     55  C23 non d ame      -9.633   4.745  68.068  0.00  0.00     0.259 C 
ATOM     56  O7  non d ame      -9.614   3.559  67.994  0.00  0.00    -0.265 OA
BRANCH  55  57
ATOM     57  O8  non d ame      -9.564   5.536  66.888  0.00  0.00    -0.317 OA
BRANCH  57  58
ATOM     58  C29 non d ame      -9.599   4.778  65.675  0.00  0.00     0.052 C 
ATOM     59  H47 non d ame      -9.486   3.736  65.976  0.00  0.00     0.082 H 
ATOM     60  H48 non d ame     -10.499   5.099  65.152  0.00  0.00     0.082 H 
BRANCH  58  61
ATOM     61  C35 non d ame      -8.366   5.180  64.823  0.00  0.00    -0.034 A 
ATOM     62  C30 non d ame      -7.134   5.390  65.436  0.00  0.00    -0.075 A 
ATOM     63  C31 non d ame      -6.027   5.752  64.670  0.00  0.00    -0.082 A 
ATOM     64  H49 non d ame      -7.037   5.271  66.515  0.00  0.00     0.084 H 
ATOM     65  C32 non d ame      -6.154   5.906  63.287  0.00  0.00    -0.083 A 
ATOM     66  H50 non d ame      -5.063   5.914  65.153  0.00  0.00     0.083 H 
ATOM     67  C33 non d ame      -7.386   5.698  62.681  0.00  0.00    -0.082 A 
ATOM     68  H51 non d ame      -5.293   6.187  62.681  0.00  0.00     0.083 H 
ATOM     69  C34 non d ame      -8.495   5.334  63.442  0.00  0.00    -0.075 A 
ATOM     70  H52 non d ame      -7.482   5.821  61.602  0.00  0.00     0.083 H 
ATOM     71  H53 non d ame      -9.459   5.172  62.958  0.00  0.00     0.084 H 
ENDBRANCH  58  61
ENDBRANCH  57  58
ENDBRANCH  55  57
ENDBRANCH  52  55
ENDBRANCH  49  52
ENDBRANCH  47  49
BRANCH  47  72
ATOM     72  C24 non d ame     -10.818   7.882  69.960  0.00  0.00    -0.039 C 
ATOM     73  H35 non d ame     -11.414   8.164  69.092  0.00  0.00     0.036 H 
ATOM     74  H36 non d ame     -10.926   6.888  70.395  0.00  0.00     0.036 H 
BRANCH  72  75
ATOM     75  C25 non d ame     -11.138   8.942  71.118  0.00  0.00    -0.001 C 
ATOM     76  C26 non d ame     -12.127   8.262  72.242  0.00  0.00    -0.035 C 
ATOM     77  C27 non d ame     -13.185   9.084  72.446  0.00  0.00     0.085 C 
ATOM     78  H38 non d ame     -12.581   7.357  71.841  0.00  0.00     0.036 H 
ATOM     79  H39 non d ame     -11.631   8.240  73.212  0.00  0.00     0.036 H 
ATOM     80  N5  non d ame     -13.176  10.100  71.330  0.00  0.00    -0.049 N 
ATOM     81  H40 non d ame     -14.068   8.452  72.345  0.00  0.00     0.075 H 
ATOM     82  H41 non d ame     -12.982   9.590  73.389  0.00  0.00     0.075 H 
ATOM     83  C28 non d ame     -11.720   9.992  70.642  0.00  0.00     0.193 C 
ATOM     84  H42 non d ame     -13.871   9.798  70.662  0.00  0.00     0.280 HD
ATOM     85  H43 non d ame     -13.258  11.007  71.768  0.00  0.00     0.280 HD
ATOM     86  H44 non d ame     -10.958  10.747  70.837  0.00  0.00     0.129 H 
ATOM     87  H37 non d ame     -10.239   9.438  71.483  0.00  0.00     0.046 H 
BRANCH  83  88
ATOM     88  O6  non d ame     -11.849   9.939  69.220  0.00  0.00    -0.369 OA
ATOM     89  H45 non d ame     -10.978   9.962  68.819  0.00  0.00     0.212 HD
ENDBRANCH  83  88
ENDBRANCH  72  75
ENDBRANCH  47  72
ENDBRANCH  45  47
ENDBRANCH   1  43
BRANCH   1  90
ATOM     90  C16 non d ame      -7.506  10.227  65.785  0.00  0.00    -0.035 C 
ATOM     91  H21 non d ame      -7.278  11.219  65.393  0.00  0.00     0.037 H 
ATOM     92  H22 non d ame      -6.927   9.824  66.616  0.00  0.00     0.037 H 
BRANCH  90  93
ATOM     93  C17 non d ame      -7.326   9.230  64.597  0.00  0.00    -0.059 C 
ATOM     94  H23 non d ame      -7.068   8.258  65.016  0.00  0.00     0.038 H 
BRANCH  93  95
ATOM     95  C18 non d ame      -8.639   9.058  63.768  0.00  0.00    -0.073 C 
ATOM     96  H24 non d ame      -9.146   8.144  64.076  0.00  0.00     0.028 H 
ATOM     97  H25 non d ame      -9.293   9.913  63.942  0.00  0.00     0.028 H 
ATOM     98  H26 non d ame      -8.394   8.999  62.707  0.00  0.00     0.028 H 
ENDBRANCH  93  95
BRANCH  93  99
ATOM     99  C19 non d ame      -6.165   9.659  63.695  0.00  0.00    -0.073 C 
ATOM    100  H27 non d ame      -6.546   9.900  62.702  0.00  0.00     0.028 H 
ATOM    101  H28 non d ame      -5.679  10.537  64.121  0.00  0.00     0.028 H 
ATOM    102  H29 non d ame      -5.444   8.845  63.620  0.00  0.00     0.028 H 
ENDBRANCH  93  99
ENDBRANCH  90  93
ENDBRANCH   1  90
TORSDOF 26
ENDMDL
MODEL 6
REMARK VINA RESULT:      -6.0      3.323      8.063
REMARK  26 active torsions:
REMARK  status: ('A' for Active; 'I' for Inactive)
REMARK    1  A    between atoms: C2_2  and  C3_3 
REMARK    2  A    between atoms: C4_6  and  C5_7 
REMARK       I    between atoms: C5_7  and  N2_9 
REMARK    3  A    between atoms: N2_9  and  C6_10 
REMARK    4  A    between atoms: C6_10  and  C7_11 
REMARK    5  A    between atoms: C6_10  and  C8_13 
REMARK       I    between atoms: C7_11  and  N3_14 
REMARK    6  A    between atoms: N3_14  and  C9_15 
REMARK    7  A    between atoms: C9_15  and  C10_16 
REMARK    8  A    between atoms: C9_15  and  C11_18 
REMARK       I    between atoms: C10_16  and  N4_21 
REMARK    9  A    between atoms: C11_18  and  C12_19 
REMARK   10  A    between atoms: C11_18  and  C13_20 
REMARK   11  A    between atoms: N4_21  and  C14_22 
REMARK   12  A    between atoms: C14_22  and  C15_23 
REMARK   13  A    between atoms: C14_22  and  C16_25 
REMARK       I    between atoms: C15_23  and  N6_40 
REMARK   14  A    between atoms: C16_25  and  C17_26 
REMARK   15  A    between atoms: C17_26  and  C18_27 
REMARK   16  A    between atoms: C17_26  and  C19_28 
REMARK   17  A    between atoms: C20_29  and  C21_30 
REMARK   18  A    between atoms: C20_29  and  C24_33 
REMARK   19  A    between atoms: C20_29  and  N6_40 
REMARK   20  A    between atoms: C21_30  and  C22_31 
REMARK   21  A    between atoms: C22_31  and  C23_32 
REMARK   22  A    between atoms: C23_32  and  O8_43 
REMARK   23  A    between atoms: C24_33  and  C25_34 
REMARK   24  A    between atoms: C28_38  and  O6_39 
REMARK   25  A    between atoms: C29_42  and  O8_43 
REMARK   26  A    between atoms: C29_42  and  C35_49 
ROOT
ATOM      1  C14 non d ame      -8.936   9.806  64.980  0.00  0.00     0.089 C 
ATOM      2  H20 non d ame      -7.936  10.082  65.317  0.00  0.00     0.087 H 
ENDROOT
BRANCH   1   3
ATOM      3  N4  non d ame      -9.043   8.357  65.068  0.00  0.00    -0.346 N 
ATOM      4  C10 non d ame      -7.977   7.555  65.770  0.00  0.00     0.241 C 
ATOM      5  O4  non d ame      -7.039   8.098  66.255  0.00  0.00    -0.271 OA
ATOM      6  H19 non d ame      -9.848   7.915  64.647  0.00  0.00     0.163 HD
BRANCH   4   7
ATOM      7  C9  non d ame      -8.108   6.057  65.856  0.00  0.00     0.092 C 
ATOM      8  H11 non d ame      -7.114   5.610  65.856  0.00  0.00     0.088 H 
BRANCH   7   9
ATOM      9  N3  non d ame      -8.746   5.694  67.125  0.00  0.00    -0.346 N 
ATOM     10  C7  non d ame      -7.942   5.239  68.232  0.00  0.00     0.240 C 
ATOM     11  O3  non d ame      -6.780   5.157  68.119  0.00  0.00    -0.271 OA
ATOM     12  H10 non d ame      -9.748   5.758  67.237  0.00  0.00     0.163 HD
BRANCH  10  13
ATOM     13  C6  non d ame      -8.628   4.851  69.579  0.00  0.00     0.086 C 
ATOM     14  H6  non d ame      -7.939   4.869  70.423  0.00  0.00     0.086 H 
BRANCH  13  15
ATOM     15  N2  non d ame      -9.672   5.818  69.872  0.00  0.00    -0.343 N 
ATOM     16  C5  non d ame      -9.463   6.806  70.932  0.00  0.00     0.273 C 
ATOM     17  O2  non d ame      -8.452   6.812  71.546  0.00  0.00    -0.266 OA
ATOM     18  H5  non d ame     -10.533   5.804  69.344  0.00  0.00     0.163 HD
BRANCH  16  19
ATOM     19  C4  non d ame     -10.558   7.836  71.252  0.00  0.00     0.154 A 
ATOM     20  C1  non d ame     -11.875   7.573  71.744  0.00  0.00    -0.017 A 
ATOM     21  C2  non d ame     -12.477   8.845  71.870  0.00  0.00     0.077 A 
ATOM     22  H1  non d ame     -12.325   6.607  71.975  0.00  0.00     0.091 H 
ATOM     23  O1  non d ame     -11.599   9.727  71.493  0.00  0.00    -0.218 OA
ATOM     24  N1  non d ame     -10.472   9.163  71.127  0.00  0.00    -0.123 NA
BRANCH  21  25
ATOM     25  C3  non d ame     -13.892   9.128  72.358  0.00  0.00    -0.029 C 
ATOM     26  H2  non d ame     -14.606   8.588  71.737  0.00  0.00     0.036 H 
ATOM     27  H3  non d ame     -13.991   8.803  73.393  0.00  0.00     0.036 H 
ATOM     28  H4  non d ame     -14.091  10.198  72.293  0.00  0.00     0.036 H 
ENDBRANCH  21  25
ENDBRANCH  16  19
ENDBRANCH  13  15
BRANCH  13  29
ATOM     29  C8  non d ame      -9.221   3.469  69.464  0.00  0.00    -0.049 C 
ATOM     30  H7  non d ame      -9.028   3.072  68.467  0.00  0.00     0.030 H 
ATOM     31  H8  non d ame      -8.767   2.816  70.210  0.00  0.00     0.030 H 
ATOM     32  H9  non d ame     -10.296   3.521  69.632  0.00  0.00     0.030 H 
ENDBRANCH  13  29
ENDBRANCH  10  13
ENDBRANCH   7   9
BRANCH   7  33
ATOM     33  C11 non d ame      -8.981   5.544  64.674  0.00  0.00    -0.033 C 
ATOM     34  H12 non d ame      -9.733   6.305  64.466  0.00  0.00     0.042 H 
BRANCH  33  35
ATOM     35  C12 non d ame      -8.131   5.360  63.378  0.00  0.00    -0.071 C 
ATOM     36  H13 non d ame      -8.097   6.301  62.828  0.00  0.00     0.028 H 
ATOM     37  H14 non d ame      -7.118   5.062  63.647  0.00  0.00     0.028 H 
ATOM     38  H15 non d ame      -8.583   4.590  62.753  0.00  0.00     0.028 H 
ENDBRANCH  33  35
BRANCH  33  39
ATOM     39  C13 non d ame      -9.721   4.223  65.057  0.00  0.00    -0.071 C 
ATOM     40  H16 non d ame     -10.087   4.296  66.081  0.00  0.00     0.028 H 
ATOM     41  H17 non d ame     -10.562   4.068  64.381  0.00  0.00     0.028 H 
ATOM     42  H18 non d ame      -9.031   3.383  64.977  0.00  0.00     0.028 H 
ENDBRANCH  33  39
ENDBRANCH   7  33
ENDBRANCH   4   7
ENDBRANCH   1   3
BRANCH   1  43
ATOM     43  C15 non d ame     -10.048  10.440  65.863  0.00  0.00     0.240 C 
ATOM     44  O5  non d ame     -10.563   9.795  66.719  0.00  0.00    -0.271 OA
ATOM     45  N6  non d ame     -10.467  11.855  65.648  0.00  0.00    -0.355 N 
ATOM     46  H46 non d ame     -10.033  12.414  64.927  0.00  0.00     0.162 HD
BRANCH  45  47
ATOM     47  C20 non d ame     -11.525  12.443  66.497  0.00  0.00     0.013 C 
ATOM     48  H30 non d ame     -12.196  11.640  66.802  0.00  0.00     0.072 H 
BRANCH  47  49
ATOM     49  C21 non d ame     -12.287  13.478  65.700  0.00  0.00    -0.038 C 
ATOM     50  H31 non d ame     -13.081  12.932  65.191  0.00  0.00     0.036 H 
ATOM     51  H32 non d ame     -12.536  14.269  66.408  0.00  0.00     0.036 H 
BRANCH  49  52
ATOM     52  C22 non d ame     -11.430  14.134  64.596  0.00  0.00     0.018 C 
ATOM     53  H33 non d ame     -10.439  13.689  64.687  0.00  0.00     0.048 H 
ATOM     54  H34 non d ame     -11.997  14.015  63.672  0.00  0.00     0.048 H 
BRANCH  52  55
ATOM     55  C23 non d ame     -11.232  15.664  64.783  0.00  0.00     0.259 C 
ATOM     56  O7  non d ame     -11.491  16.418  63.901  0.00  0.00    -0.265 OA
BRANCH  55  57
ATOM     57  O8  non d ame     -10.724  16.155  66.017  0.00  0.00    -0.317 OA
BRANCH  57  58
ATOM     58  C29 non d ame      -9.297  16.257  66.061  0.00  0.00     0.052 C 
ATOM     59  H47 non d ame      -8.974  15.546  66.821  0.00  0.00     0.082 H 
ATOM     60  H48 non d ame      -8.962  16.144  65.030  0.00  0.00     0.082 H 
BRANCH  58  61
ATOM     61  C35 non d ame      -8.934  17.688  66.540  0.00  0.00    -0.034 A 
ATOM     62  C30 non d ame      -7.706  18.245  66.201  0.00  0.00    -0.075 A 
ATOM     63  C31 non d ame      -7.379  19.530  66.632  0.00  0.00    -0.082 A 
ATOM     64  H49 non d ame      -6.999  17.676  65.597  0.00  0.00     0.084 H 
ATOM     65  C32 non d ame      -8.286  20.258  67.407  0.00  0.00    -0.083 A 
ATOM     66  H50 non d ame      -6.416  19.965  66.362  0.00  0.00     0.083 H 
ATOM     67  C33 non d ame      -9.509  19.696  67.746  0.00  0.00    -0.082 A 
ATOM     68  H51 non d ame      -8.039  21.263  67.748  0.00  0.00     0.083 H 
ATOM     69  C34 non d ame      -9.841  18.413  67.316  0.00  0.00    -0.075 A 
ATOM     70  H52 non d ame     -10.214  20.265  68.353  0.00  0.00     0.083 H 
ATOM     71  H53 non d ame     -10.804  17.979  67.585  0.00  0.00     0.084 H 
ENDBRANCH  58  61
ENDBRANCH  57  58
ENDBRANCH  55  57
ENDBRANCH  52  55
ENDBRANCH  49  52
ENDBRANCH  47  49
BRANCH  47  72
ATOM     72  C24 non d ame     -10.897  13.103  67.722  0.00  0.00    -0.039 C 
ATOM     73  H35 non d ame     -10.398  12.298  68.262  0.00  0.00     0.036 H 
ATOM     74  H36 non d ame     -10.316  13.940  67.335  0.00  0.00     0.036 H 
BRANCH  72  75
ATOM     75  C25 non d ame     -12.008  13.713  68.702  0.00  0.00    -0.001 C 
ATOM     76  C26 non d ame     -11.712  15.310  68.960  0.00  0.00    -0.035 C 
ATOM     77  C27 non d ame     -11.708  15.543  70.294  0.00  0.00     0.085 C 
ATOM     78  H38 non d ame     -10.696  15.556  68.655  0.00  0.00     0.036 H 
ATOM     79  H39 non d ame     -12.549  15.908  68.599  0.00  0.00     0.036 H 
ATOM     80  N5  non d ame     -11.648  14.198  70.977  0.00  0.00    -0.049 N 
ATOM     81  H40 non d ame     -10.783  16.085  70.493  0.00  0.00     0.075 H 
ATOM     82  H41 non d ame     -12.669  16.009  70.511  0.00  0.00     0.075 H 
ATOM     83  C28 non d ame     -12.008  13.107  69.843  0.00  0.00     0.193 C 
ATOM     84  H42 non d ame     -10.688  14.064  71.260  0.00  0.00     0.280 HD
ATOM     85  H43 non d ame     -12.384  14.196  71.670  0.00  0.00     0.280 HD
ATOM     86  H44 non d ame     -12.991  12.638  69.818  0.00  0.00     0.129 H 
ATOM     87  H37 non d ame     -13.019  13.438  68.402  0.00  0.00     0.046 H 
BRANCH  83  88
ATOM     88  O6  non d ame     -11.071  12.030  69.881  0.00  0.00    -0.369 OA
ATOM     89  H45 non d ame     -10.183  12.381  69.984  0.00  0.00     0.212 HD
ENDBRANCH  83  88
ENDBRANCH  72  75
ENDBRANCH  47  72
ENDBRANCH  45  47
ENDBRANCH   1  43
BRANCH   1  90
ATOM     90  C16 non d ame      -9.127  10.231  63.533  0.00  0.00    -0.035 C 
ATOM     91  H21 non d ame      -9.785   9.480  63.096  0.00  0.00     0.037 H 
ATOM     92  H22 non d ame      -9.445  11.273  63.578  0.00  0.00     0.037 H 
BRANCH  90  93
ATOM     93  C17 non d ame      -7.811  10.207  62.693  0.00  0.00    -0.059 C 
ATOM     94  H23 non d ame      -7.826  11.071  62.029  0.00  0.00     0.038 H 
BRANCH  93  95
ATOM     95  C18 non d ame      -6.537  10.318  63.591  0.00  0.00    -0.073 C 
ATOM     96  H24 non d ame      -6.399   9.389  64.143  0.00  0.00     0.028 H 
ATOM     97  H25 non d ame      -5.664  10.501  62.963  0.00  0.00     0.028 H 
ATOM     98  H26 non d ame      -6.658  11.144  64.293  0.00  0.00     0.028 H 
ENDBRANCH  93  95
BRANCH  93  99
ATOM     99  C19 non d ame      -7.748   8.957  61.811  0.00  0.00    -0.073 C 
ATOM    100  H27 non d ame      -7.522   9.248  60.785  0.00  0.00     0.028 H 
ATOM    101  H28 non d ame      -6.967   8.291  62.181  0.00  0.00     0.028 H 
ATOM    102  H29 non d ame      -8.708   8.443  61.841  0.00  0.00     0.028 H 
ENDBRANCH  93  99
ENDBRANCH  90  93
ENDBRANCH   1  90
TORSDOF 26
ENDMDL
MODEL 7
REMARK VINA RESULT:      -5.9      2.250      7.739
REMARK  26 active torsions:
REMARK  status: ('A' for Active; 'I' for Inactive)
REMARK    1  A    between atoms: C2_2  and  C3_3 
REMARK    2  A    between atoms: C4_6  and  C5_7 
REMARK       I    between atoms: C5_7  and  N2_9 
REMARK    3  A    between atoms: N2_9  and  C6_10 
REMARK    4  A    between atoms: C6_10  and  C7_11 
REMARK    5  A    between atoms: C6_10  and  C8_13 
REMARK       I    between atoms: C7_11  and  N3_14 
REMARK    6  A    between atoms: N3_14  and  C9_15 
REMARK    7  A    between atoms: C9_15  and  C10_16 
REMARK    8  A    between atoms: C9_15  and  C11_18 
REMARK       I    between atoms: C10_16  and  N4_21 
REMARK    9  A    between atoms: C11_18  and  C12_19 
REMARK   10  A    between atoms: C11_18  and  C13_20 
REMARK   11  A    between atoms: N4_21  and  C14_22 
REMARK   12  A    between atoms: C14_22  and  C15_23 
REMARK   13  A    between atoms: C14_22  and  C16_25 
REMARK       I    between atoms: C15_23  and  N6_40 
REMARK   14  A    between atoms: C16_25  and  C17_26 
REMARK   15  A    between atoms: C17_26  and  C18_27 
REMARK   16  A    between atoms: C17_26  and  C19_28 
REMARK   17  A    between atoms: C20_29  and  C21_30 
REMARK   18  A    between atoms: C20_29  and  C24_33 
REMARK   19  A    between atoms: C20_29  and  N6_40 
REMARK   20  A    between atoms: C21_30  and  C22_31 
REMARK   21  A    between atoms: C22_31  and  C23_32 
REMARK   22  A    between atoms: C23_32  and  O8_43 
REMARK   23  A    between atoms: C24_33  and  C25_34 
REMARK   24  A    between atoms: C28_38  and  O6_39 
REMARK   25  A    between atoms: C29_42  and  O8_43 
REMARK   26  A    between atoms: C29_42  and  C35_49 
ROOT
ATOM      1  C14 non d ame      -6.426  16.350  67.801  0.00  0.00     0.089 C 
ATOM      2  H20 non d ame      -5.894  16.926  67.043  0.00  0.00     0.087 H 
ENDROOT
BRANCH   1   3
ATOM      3  N4  non d ame      -7.850  16.499  67.545  0.00  0.00    -0.346 N 
ATOM      4  C10 non d ame      -8.331  17.276  66.345  0.00  0.00     0.241 C 
ATOM      5  O4  non d ame      -7.552  17.775  65.601  0.00  0.00    -0.271 OA
ATOM      6  H19 non d ame      -8.497  16.068  68.190  0.00  0.00     0.163 HD
BRANCH   4   7
ATOM      7  C9  non d ame      -9.809  17.415  66.091  0.00  0.00     0.092 C 
ATOM      8  H11 non d ame      -9.964  17.968  65.165  0.00  0.00     0.088 H 
BRANCH   7   9
ATOM      9  N3  non d ame     -10.401  16.086  65.906  0.00  0.00    -0.346 N 
ATOM     10  C7  non d ame     -11.228  15.820  64.755  0.00  0.00     0.240 C 
ATOM     11  O3  non d ame     -11.429  16.663  63.969  0.00  0.00    -0.271 OA
ATOM     12  H10 non d ame     -10.238  15.349  66.577  0.00  0.00     0.163 HD
BRANCH  10  13
ATOM     13  C6  non d ame     -11.857  14.405  64.565  0.00  0.00     0.086 C 
ATOM     14  H6  non d ame     -12.536  14.356  63.714  0.00  0.00     0.086 H 
BRANCH  13  15
ATOM     15  N2  non d ame     -10.795  13.447  64.306  0.00  0.00    -0.343 N 
ATOM     16  C5  non d ame     -11.111  12.182  63.640  0.00  0.00     0.273 C 
ATOM     17  O2  non d ame     -12.223  11.943  63.319  0.00  0.00    -0.266 OA
ATOM     18  H5  non d ame      -9.848  13.659  64.586  0.00  0.00     0.163 HD
BRANCH  16  19
ATOM     19  C4  non d ame      -9.998  11.161  63.358  0.00  0.00     0.154 A 
ATOM     20  C1  non d ame      -9.563  10.098  64.212  0.00  0.00    -0.017 A 
ATOM     21  C2  non d ame      -8.526   9.458  63.497  0.00  0.00     0.077 A 
ATOM     22  H1  non d ame      -9.943   9.831  65.198  0.00  0.00     0.091 H 
ATOM     23  O1  non d ame      -8.390  10.088  62.366  0.00  0.00    -0.218 OA
ATOM     24  N1  non d ame      -9.237  11.085  62.262  0.00  0.00    -0.123 NA
BRANCH  21  25
ATOM     25  C3  non d ame      -7.719   8.254  63.964  0.00  0.00    -0.029 C 
ATOM     26  H2  non d ame      -7.997   7.379  63.376  0.00  0.00     0.036 H 
ATOM     27  H3  non d ame      -6.656   8.457  63.833  0.00  0.00     0.036 H 
ATOM     28  H4  non d ame      -7.925   8.064  65.017  0.00  0.00     0.036 H 
ENDBRANCH  21  25
ENDBRANCH  16  19
ENDBRANCH  13  15
BRANCH  13  29
ATOM     29  C8  non d ame     -12.611  14.016  65.811  0.00  0.00    -0.049 C 
ATOM     30  H7  non d ame     -13.221  14.855  66.144  0.00  0.00     0.030 H 
ATOM     31  H8  non d ame     -13.253  13.162  65.596  0.00  0.00     0.030 H 
ATOM     32  H9  non d ame     -11.903  13.749  66.595  0.00  0.00     0.030 H 
ENDBRANCH  13  29
ENDBRANCH  10  13
ENDBRANCH   7   9
BRANCH   7  33
ATOM     33  C11 non d ame     -10.481  18.113  67.310  0.00  0.00    -0.033 C 
ATOM     34  H12 non d ame     -11.487  18.406  67.008  0.00  0.00     0.042 H 
BRANCH  33  35
ATOM     35  C12 non d ame     -10.620  17.137  68.519  0.00  0.00    -0.071 C 
ATOM     36  H13 non d ame     -11.653  16.797  68.595  0.00  0.00     0.028 H 
ATOM     37  H14 non d ame      -9.965  16.279  68.370  0.00  0.00     0.028 H 
ATOM     38  H15 non d ame     -10.339  17.654  69.437  0.00  0.00     0.028 H 
ENDBRANCH  33  35
BRANCH  33  39
ATOM     39  C13 non d ame      -9.702  19.407  67.712  0.00  0.00    -0.071 C 
ATOM     40  H16 non d ame      -8.706  19.137  68.063  0.00  0.00     0.028 H 
ATOM     41  H17 non d ame      -9.616  20.064  66.846  0.00  0.00     0.028 H 
ATOM     42  H18 non d ame     -10.241  19.922  68.507  0.00  0.00     0.028 H 
ENDBRANCH  33  39
ENDBRANCH   7  33
ENDBRANCH   4   7
ENDBRANCH   1   3
BRANCH   1  43
ATOM     43  C15 non d ame      -6.068  14.837  67.748  0.00  0.00     0.240 C 
ATOM     44  O5  non d ame      -4.972  14.500  67.436  0.00  0.00    -0.271 OA
ATOM     45  N6  non d ame      -7.090  13.809  68.093  0.00  0.00    -0.355 N 
ATOM     46  H46 non d ame      -8.023  14.083  68.364  0.00  0.00     0.162 HD
BRANCH  45  47
ATOM     47  C20 non d ame      -6.734  12.374  68.039  0.00  0.00     0.013 C 
ATOM     48  H30 non d ame      -5.776  12.286  67.527  0.00  0.00     0.072 H 
BRANCH  47  49
ATOM     49  C21 non d ame      -7.800  11.623  67.274  0.00  0.00    -0.038 C 
ATOM     50  H31 non d ame      -7.361  11.395  66.303  0.00  0.00     0.036 H 
ATOM     51  H32 non d ame      -8.120  10.815  67.932  0.00  0.00     0.036 H 
BRANCH  49  52
ATOM     52  C22 non d ame      -9.054  12.481  66.996  0.00  0.00     0.018 C 
ATOM     53  H33 non d ame      -8.816  13.480  67.362  0.00  0.00     0.048 H 
ATOM     54  H34 non d ame      -9.288  12.328  65.942  0.00  0.00     0.048 H 
BRANCH  52  55
ATOM     55  C23 non d ame     -10.313  12.024  67.784  0.00  0.00     0.259 C 
ATOM     56  O7  non d ame     -10.777  12.714  68.632  0.00  0.00    -0.265 OA
BRANCH  55  57
ATOM     57  O8  non d ame     -10.899  10.762  67.490  0.00  0.00    -0.317 OA
BRANCH  57  58
ATOM     58  C29 non d ame     -11.194   9.972  68.646  0.00  0.00     0.052 C 
ATOM     59  H47 non d ame     -11.482  10.682  69.421  0.00  0.00     0.082 H 
ATOM     60  H48 non d ame     -11.901   9.213  68.312  0.00  0.00     0.082 H 
BRANCH  58  61
ATOM     61  C35 non d ame      -9.886   9.264  69.088  0.00  0.00    -0.034 A 
ATOM     62  C30 non d ame      -9.405   9.436  70.382  0.00  0.00    -0.075 A 
ATOM     63  C31 non d ame      -8.229   8.800  70.780  0.00  0.00    -0.082 A 
ATOM     64  H49 non d ame      -9.948  10.067  71.085  0.00  0.00     0.084 H 
ATOM     65  C32 non d ame      -7.533   7.992  69.877  0.00  0.00    -0.083 A 
ATOM     66  H50 non d ame      -7.856   8.934  71.795  0.00  0.00     0.083 H 
ATOM     67  C33 non d ame      -8.015   7.827  68.586  0.00  0.00    -0.082 A 
ATOM     68  H51 non d ame      -6.614   7.491  70.180  0.00  0.00     0.083 H 
ATOM     69  C34 non d ame      -9.191   8.459  68.185  0.00  0.00    -0.075 A 
ATOM     70  H52 non d ame      -7.468   7.198  67.883  0.00  0.00     0.083 H 
ATOM     71  H53 non d ame      -9.564   8.323  67.169  0.00  0.00     0.084 H 
ENDBRANCH  58  61
ENDBRANCH  57  58
ENDBRANCH  55  57
ENDBRANCH  52  55
ENDBRANCH  49  52
ENDBRANCH  47  49
BRANCH  47  72
ATOM     72  C24 non d ame      -6.632  11.813  69.456  0.00  0.00    -0.039 C 
ATOM     73  H35 non d ame      -7.241  12.473  70.074  0.00  0.00     0.036 H 
ATOM     74  H36 non d ame      -6.889  10.758  69.369  0.00  0.00     0.036 H 
BRANCH  72  75
ATOM     75  C25 non d ame      -5.134  11.891  70.017  0.00  0.00    -0.001 C 
ATOM     76  C26 non d ame      -4.685  10.428  70.619  0.00  0.00    -0.035 C 
ATOM     77  C27 non d ame      -4.198  10.602  71.871  0.00  0.00     0.085 C 
ATOM     78  H38 non d ame      -5.563   9.801  70.771  0.00  0.00     0.036 H 
ATOM     79  H39 non d ame      -3.829  10.042  70.065  0.00  0.00     0.036 H 
ATOM     80  N5  non d ame      -4.577  11.998  72.302  0.00  0.00    -0.049 N 
ATOM     81  H40 non d ame      -4.731   9.881  72.493  0.00  0.00     0.075 H 
ATOM     82  H41 non d ame      -3.115  10.541  71.774  0.00  0.00     0.075 H 
ATOM     83  C28 non d ame      -5.032  12.769  70.958  0.00  0.00     0.193 C 
ATOM     84  H42 non d ame      -5.380  11.904  72.906  0.00  0.00     0.280 HD
ATOM     85  H43 non d ame      -3.731  12.429  72.649  0.00  0.00     0.280 HD
ATOM     86  H44 non d ame      -4.369  13.493  70.484  0.00  0.00     0.129 H 
ATOM     87  H37 non d ame      -4.452  12.367  69.312  0.00  0.00     0.046 H 
BRANCH  83  88
ATOM     88  O6  non d ame      -6.260  13.465  71.182  0.00  0.00    -0.369 OA
ATOM     89  H45 non d ame      -6.558  13.306  72.080  0.00  0.00     0.212 HD
ENDBRANCH  83  88
ENDBRANCH  72  75
ENDBRANCH  47  72
ENDBRANCH  45  47
ENDBRANCH   1  43
BRANCH   1  90
ATOM     90  C16 non d ame      -6.110  16.901  69.182  0.00  0.00    -0.035 C 
ATOM     91  H21 non d ame      -7.076  17.011  69.677  0.00  0.00     0.037 H 
ATOM     92  H22 non d ame      -5.359  16.229  69.597  0.00  0.00     0.037 H 
BRANCH  90  93
ATOM     93  C17 non d ame      -5.463  18.323  69.157  0.00  0.00    -0.059 C 
ATOM     94  H23 non d ame      -4.673  18.340  69.908  0.00  0.00     0.038 H 
BRANCH  93  95
ATOM     95  C18 non d ame      -4.814  18.650  67.774  0.00  0.00    -0.073 C 
ATOM     96  H24 non d ame      -4.825  17.758  67.148  0.00  0.00     0.028 H 
ATOM     97  H25 non d ame      -5.379  19.444  67.286  0.00  0.00     0.028 H 
ATOM     98  H26 non d ame      -3.785  18.977  67.924  0.00  0.00     0.028 H 
ENDBRANCH  93  95
BRANCH  93  99
ATOM     99  C19 non d ame      -6.484  19.395  69.547  0.00  0.00    -0.073 C 
ATOM    100  H27 non d ame      -5.967  20.336  69.739  0.00  0.00     0.028 H 
ATOM    101  H28 non d ame      -7.197  19.531  68.733  0.00  0.00     0.028 H 
ATOM    102  H29 non d ame      -7.014  19.082  70.446  0.00  0.00     0.028 H 
ENDBRANCH  93  99
ENDBRANCH  90  93
ENDBRANCH   1  90
TORSDOF 26
ENDMDL
MODEL 8
REMARK VINA RESULT:      -5.9      3.677      7.643
REMARK  26 active torsions:
REMARK  status: ('A' for Active; 'I' for Inactive)
REMARK    1  A    between atoms: C2_2  and  C3_3 
REMARK    2  A    between atoms: C4_6  and  C5_7 
REMARK       I    between atoms: C5_7  and  N2_9 
REMARK    3  A    between atoms: N2_9  and  C6_10 
REMARK    4  A    between atoms: C6_10  and  C7_11 
REMARK    5  A    between atoms: C6_10  and  C8_13 
REMARK       I    between atoms: C7_11  and  N3_14 
REMARK    6  A    between atoms: N3_14  and  C9_15 
REMARK    7  A    between atoms: C9_15  and  C10_16 
REMARK    8  A    between atoms: C9_15  and  C11_18 
REMARK       I    between atoms: C10_16  and  N4_21 
REMARK    9  A    between atoms: C11_18  and  C12_19 
REMARK   10  A    between atoms: C11_18  and  C13_20 
REMARK   11  A    between atoms: N4_21  and  C14_22 
REMARK   12  A    between atoms: C14_22  and  C15_23 
REMARK   13  A    between atoms: C14_22  and  C16_25 
REMARK       I    between atoms: C15_23  and  N6_40 
REMARK   14  A    between atoms: C16_25  and  C17_26 
REMARK   15  A    between atoms: C17_26  and  C18_27 
REMARK   16  A    between atoms: C17_26  and  C19_28 
REMARK   17  A    between atoms: C20_29  and  C21_30 
REMARK   18  A    between atoms: C20_29  and  C24_33 
REMARK   19  A    between atoms: C20_29  and  N6_40 
REMARK   20  A    between atoms: C21_30  and  C22_31 
REMARK   21  A    between atoms: C22_31  and  C23_32 
REMARK   22  A    between atoms: C23_32  and  O8_43 
REMARK   23  A    between atoms: C24_33  and  C25_34 
REMARK   24  A    between atoms: C28_38  and  O6_39 
REMARK   25  A    between atoms: C29_42  and  O8_43 
REMARK   26  A    between atoms: C29_42  and  C35_49 
ROOT
ATOM      1  C14 non d ame     -10.369  10.289  68.017  0.00  0.00     0.089 C 
ATOM      2  H20 non d ame      -9.386  10.394  68.476  0.00  0.00     0.087 H 
ENDROOT
BRANCH   1   3
ATOM      3  N4  non d ame     -11.043   9.178  68.673  0.00  0.00    -0.346 N 
ATOM      4  C10 non d ame     -10.801   8.896  70.134  0.00  0.00     0.241 C 
ATOM      5  O4  non d ame     -10.058   9.576  70.762  0.00  0.00    -0.271 OA
ATOM      6  H19 non d ame     -11.670   8.610  68.121  0.00  0.00     0.163 HD
BRANCH   4   7
ATOM      7  C9  non d ame     -11.511   7.746  70.798  0.00  0.00     0.092 C 
ATOM      8  H11 non d ame     -12.436   7.537  70.261  0.00  0.00     0.088 H 
BRANCH   7   9
ATOM      9  N3  non d ame     -10.679   6.542  70.712  0.00  0.00    -0.346 N 
ATOM     10  C7  non d ame     -10.629   5.787  69.484  0.00  0.00     0.240 C 
ATOM     11  O3  non d ame     -11.254   6.133  68.557  0.00  0.00    -0.271 OA
ATOM     12  H10 non d ame     -10.136   6.231  71.505  0.00  0.00     0.163 HD
BRANCH  10  13
ATOM     13  C6  non d ame      -9.744   4.505  69.400  0.00  0.00     0.086 C 
ATOM     14  H6  non d ame     -10.247   3.678  68.899  0.00  0.00     0.086 H 
BRANCH  13  15
ATOM     15  N2  non d ame      -8.555   4.803  68.619  0.00  0.00    -0.343 N 
ATOM     16  C5  non d ame      -8.342   4.120  67.341  0.00  0.00     0.273 C 
ATOM     17  O2  non d ame      -9.130   3.330  66.952  0.00  0.00    -0.266 OA
ATOM     18  H5  non d ame      -7.885   5.478  68.960  0.00  0.00     0.163 HD
BRANCH  16  19
ATOM     19  C4  non d ame      -7.090   4.427  66.504  0.00  0.00     0.154 A 
ATOM     20  C1  non d ame      -6.945   5.442  65.505  0.00  0.00    -0.017 A 
ATOM     21  C2  non d ame      -5.618   5.308  65.041  0.00  0.00     0.077 A 
ATOM     22  H1  non d ame      -7.689   6.165  65.170  0.00  0.00     0.091 H 
ATOM     23  O1  non d ame      -5.073   4.330  65.702  0.00  0.00    -0.218 OA
ATOM     24  N1  non d ame      -5.912   3.799  66.561  0.00  0.00    -0.123 NA
BRANCH  21  25
ATOM     25  C3  non d ame      -4.949   6.155  63.966  0.00  0.00    -0.029 C 
ATOM     26  H2  non d ame      -5.581   7.012  63.732  0.00  0.00     0.036 H 
ATOM     27  H3  non d ame      -3.982   6.504  64.327  0.00  0.00     0.036 H 
ATOM     28  H4  non d ame      -4.806   5.554  63.067  0.00  0.00     0.036 H 
ENDBRANCH  21  25
ENDBRANCH  16  19
ENDBRANCH  13  15
BRANCH  13  29
ATOM     29  C8  non d ame      -9.353   4.068  70.789  0.00  0.00    -0.049 C 
ATOM     30  H7  non d ame      -8.630   4.773  71.201  0.00  0.00     0.030 H 
ATOM     31  H8  non d ame     -10.238   4.042  71.425  0.00  0.00     0.030 H 
ATOM     32  H9  non d ame      -8.907   3.075  70.745  0.00  0.00     0.030 H 
ENDBRANCH  13  29
ENDBRANCH  10  13
ENDBRANCH   7   9
BRANCH   7  33
ATOM     33  C11 non d ame     -11.769   8.089  72.295  0.00  0.00    -0.033 C 
ATOM     34  H12 non d ame     -11.201   8.990  72.528  0.00  0.00     0.042 H 
BRANCH  33  35
ATOM     35  C12 non d ame     -13.275   8.404  72.555  0.00  0.00    -0.071 C 
ATOM     36  H13 non d ame     -13.883   7.555  72.240  0.00  0.00     0.028 H 
ATOM     37  H14 non d ame     -13.429   8.586  73.618  0.00  0.00     0.028 H 
ATOM     38  H15 non d ame     -13.564   9.288  71.988  0.00  0.00     0.028 H 
ENDBRANCH  33  35
BRANCH  33  39
ATOM     39  C13 non d ame     -11.260   6.943  73.227  0.00  0.00    -0.071 C 
ATOM     40  H16 non d ame     -10.231   7.145  73.523  0.00  0.00     0.028 H 
ATOM     41  H17 non d ame     -11.890   6.891  74.116  0.00  0.00     0.028 H 
ATOM     42  H18 non d ame     -11.306   5.994  72.693  0.00  0.00     0.028 H 
ENDBRANCH  33  39
ENDBRANCH   7  33
ENDBRANCH   4   7
ENDBRANCH   1   3
BRANCH   1  43
ATOM     43  C15 non d ame     -11.238  11.567  68.191  0.00  0.00     0.240 C 
ATOM     44  O5  non d ame     -11.988  11.894  67.329  0.00  0.00    -0.271 OA
ATOM     45  N6  non d ame     -11.141  12.380  69.437  0.00  0.00    -0.355 N 
ATOM     46  H46 non d ame     -10.510  12.110  70.178  0.00  0.00     0.162 HD
BRANCH  45  47
ATOM     47  C20 non d ame     -11.974  13.592  69.588  0.00  0.00     0.013 C 
ATOM     48  H30 non d ame     -12.810  13.514  68.893  0.00  0.00     0.072 H 
BRANCH  47  49
ATOM     49  C21 non d ame     -11.144  14.813  69.263  0.00  0.00    -0.038 C 
ATOM     50  H31 non d ame     -11.235  15.471  70.128  0.00  0.00     0.036 H 
ATOM     51  H32 non d ame     -10.166  14.434  68.966  0.00  0.00     0.036 H 
BRANCH  49  52
ATOM     52  C22 non d ame     -11.690  15.605  68.054  0.00  0.00     0.018 C 
ATOM     53  H33 non d ame     -11.986  14.855  67.320  0.00  0.00     0.048 H 
ATOM     54  H34 non d ame     -12.433  16.291  68.462  0.00  0.00     0.048 H 
BRANCH  52  55
ATOM     55  C23 non d ame     -10.624  16.493  67.354  0.00  0.00     0.259 C 
ATOM     56  O7  non d ame     -10.327  17.550  67.809  0.00  0.00    -0.265 OA
BRANCH  55  57
ATOM     57  O8  non d ame     -10.014  16.035  66.154  0.00  0.00    -0.317 OA
BRANCH  57  58
ATOM     58  C29 non d ame      -9.620  14.660  66.189  0.00  0.00     0.052 C 
ATOM     59  H47 non d ame      -8.573  14.646  65.886  0.00  0.00     0.082 H 
ATOM     60  H48 non d ame      -9.907  14.296  67.175  0.00  0.00     0.082 H 
BRANCH  58  61
ATOM     61  C35 non d ame     -10.450  13.896  65.124  0.00  0.00    -0.034 A 
ATOM     62  C30 non d ame     -11.721  14.344  64.778  0.00  0.00    -0.075 A 
ATOM     63  C31 non d ame     -12.467  13.657  63.821  0.00  0.00    -0.082 A 
ATOM     64  H49 non d ame     -12.132  15.233  65.256  0.00  0.00     0.084 H 
ATOM     65  C32 non d ame     -11.939  12.517  63.211  0.00  0.00    -0.083 A 
ATOM     66  H50 non d ame     -13.462  14.012  63.551  0.00  0.00     0.083 H 
ATOM     67  C33 non d ame     -10.672  12.072  63.561  0.00  0.00    -0.082 A 
ATOM     68  H51 non d ame     -12.515  11.974  62.461  0.00  0.00     0.083 H 
ATOM     69  C34 non d ame      -9.922  12.756  64.516  0.00  0.00    -0.075 A 
ATOM     70  H52 non d ame     -10.263  11.180  63.085  0.00  0.00     0.083 H 
ATOM     71  H53 non d ame      -8.926  12.400  64.785  0.00  0.00     0.084 H 
ENDBRANCH  58  61
ENDBRANCH  57  58
ENDBRANCH  55  57
ENDBRANCH  52  55
ENDBRANCH  49  52
ENDBRANCH  47  49
BRANCH  47  72
ATOM     72  C24 non d ame     -12.486  13.692  71.024  0.00  0.00    -0.039 C 
ATOM     73  H35 non d ame     -13.484  13.252  71.007  0.00  0.00     0.036 H 
ATOM     74  H36 non d ame     -11.706  13.247  71.641  0.00  0.00     0.036 H 
BRANCH  72  75
ATOM     75  C25 non d ame     -12.649  15.215  71.491  0.00  0.00    -0.001 C 
ATOM     76  C26 non d ame     -11.672  15.513  72.780  0.00  0.00    -0.035 C 
ATOM     77  C27 non d ame     -12.410  16.081  73.764  0.00  0.00     0.085 C 
ATOM     78  H38 non d ame     -11.339  14.574  73.221  0.00  0.00     0.036 H 
ATOM     79  H39 non d ame     -10.946  16.285  72.528  0.00  0.00     0.036 H 
ATOM     80  N5  non d ame     -13.861  15.899  73.390  0.00  0.00    -0.049 N 
ATOM     81  H40 non d ame     -12.198  15.498  74.661  0.00  0.00     0.075 H 
ATOM     82  H41 non d ame     -12.166  17.143  73.734  0.00  0.00     0.075 H 
ATOM     83  C28 non d ame     -13.868  15.472  71.833  0.00  0.00     0.193 C 
ATOM     84  H42 non d ame     -14.202  15.122  73.938  0.00  0.00     0.280 HD
ATOM     85  H43 non d ame     -14.295  16.807  73.475  0.00  0.00     0.280 HD
ATOM     86  H44 non d ame     -14.142  16.192  71.062  0.00  0.00     0.129 H 
ATOM     87  H37 non d ame     -12.592  15.912  70.654  0.00  0.00     0.046 H 
BRANCH  83  88
ATOM     88  O6  non d ame     -14.731  14.351  71.633  0.00  0.00    -0.369 OA
ATOM     89  H45 non d ame     -14.535  13.676  72.286  0.00  0.00     0.212 HD
ENDBRANCH  83  88
ENDBRANCH  72  75
ENDBRANCH  47  72
ENDBRANCH  45  47
ENDBRANCH   1  43
BRANCH   1  90
ATOM     90  C16 non d ame     -10.216   9.973  66.538  0.00  0.00    -0.035 C 
ATOM     91  H21 non d ame     -10.900   9.145  66.347  0.00  0.00     0.037 H 
ATOM     92  H22 non d ame     -10.354  10.924  66.024  0.00  0.00     0.037 H 
BRANCH  90  93
ATOM     93  C17 non d ame      -8.791   9.465  66.150  0.00  0.00    -0.059 C 
ATOM     94  H23 non d ame      -8.147  10.337  66.041  0.00  0.00     0.038 H 
BRANCH  93  95
ATOM     95  C18 non d ame      -8.170   8.551  67.255  0.00  0.00    -0.073 C 
ATOM     96  H24 non d ame      -8.926   8.324  68.006  0.00  0.00     0.028 H 
ATOM     97  H25 non d ame      -7.817   7.623  66.803  0.00  0.00     0.028 H 
ATOM     98  H26 non d ame      -7.333   9.067  67.726  0.00  0.00     0.028 H 
ENDBRANCH  93  95
BRANCH  93  99
ATOM     99  C19 non d ame      -8.815   8.746  64.799  0.00  0.00    -0.073 C 
ATOM    100  H27 non d ame      -8.988   7.680  64.957  0.00  0.00     0.028 H 
ATOM    101  H28 non d ame      -9.617   9.156  64.184  0.00  0.00     0.028 H 
ATOM    102  H29 non d ame      -7.860   8.888  64.294  0.00  0.00     0.028 H 
ENDBRANCH  93  99
ENDBRANCH  90  93
ENDBRANCH   1  90
TORSDOF 26
ENDMDL
MODEL 9
REMARK VINA RESULT:      -5.9      3.157      7.813
REMARK  26 active torsions:
REMARK  status: ('A' for Active; 'I' for Inactive)
REMARK    1  A    between atoms: C2_2  and  C3_3 
REMARK    2  A    between atoms: C4_6  and  C5_7 
REMARK       I    between atoms: C5_7  and  N2_9 
REMARK    3  A    between atoms: N2_9  and  C6_10 
REMARK    4  A    between atoms: C6_10  and  C7_11 
REMARK    5  A    between atoms: C6_10  and  C8_13 
REMARK       I    between atoms: C7_11  and  N3_14 
REMARK    6  A    between atoms: N3_14  and  C9_15 
REMARK    7  A    between atoms: C9_15  and  C10_16 
REMARK    8  A    between atoms: C9_15  and  C11_18 
REMARK       I    between atoms: C10_16  and  N4_21 
REMARK    9  A    between atoms: C11_18  and  C12_19 
REMARK   10  A    between atoms: C11_18  and  C13_20 
REMARK   11  A    between atoms: N4_21  and  C14_22 
REMARK   12  A    between atoms: C14_22  and  C15_23 
REMARK   13  A    between atoms: C14_22  and  C16_25 
REMARK       I    between atoms: C15_23  and  N6_40 
REMARK   14  A    between atoms: C16_25  and  C17_26 
REMARK   15  A    between atoms: C17_26  and  C18_27 
REMARK   16  A    between atoms: C17_26  and  C19_28 
REMARK   17  A    between atoms: C20_29  and  C21_30 
REMARK   18  A    between atoms: C20_29  and  C24_33 
REMARK   19  A    between atoms: C20_29  and  N6_40 
REMARK   20  A    between atoms: C21_30  and  C22_31 
REMARK   21  A    between atoms: C22_31  and  C23_32 
REMARK   22  A    between atoms: C23_32  and  O8_43 
REMARK   23  A    between atoms: C24_33  and  C25_34 
REMARK   24  A    between atoms: C28_38  and  O6_39 
REMARK   25  A    between atoms: C29_42  and  O8_43 
REMARK   26  A    between atoms: C29_42  and  C35_49 
ROOT
ATOM      1  C14 non d ame      -9.200   9.311  69.953  0.00  0.00     0.089 C 
ATOM      2  H20 non d ame      -8.991   9.259  71.022  0.00  0.00     0.087 H 
ENDROOT
BRANCH   1   3
ATOM      3  N4  non d ame      -8.365  10.364  69.394  0.00  0.00    -0.346 N 
ATOM      4  C10 non d ame      -7.011  10.660  69.990  0.00  0.00     0.241 C 
ATOM      5  O4  non d ame      -6.617  10.039  70.921  0.00  0.00    -0.271 OA
ATOM      6  H19 non d ame      -8.720  10.882  68.603  0.00  0.00     0.163 HD
BRANCH   4   7
ATOM      7  C9  non d ame      -6.158  11.749  69.395  0.00  0.00     0.092 C 
ATOM      8  H11 non d ame      -6.030  11.562  68.329  0.00  0.00     0.088 H 
BRANCH   7   9
ATOM      9  N3  non d ame      -6.845  13.037  69.530  0.00  0.00    -0.346 N 
ATOM     10  C7  non d ame      -7.000  13.895  68.381  0.00  0.00     0.240 C 
ATOM     11  O3  non d ame      -6.576  13.565  67.341  0.00  0.00    -0.271 OA
ATOM     12  H10 non d ame      -7.214  13.336  70.421  0.00  0.00     0.163 HD
BRANCH  10  13
ATOM     13  C6  non d ame      -7.729  15.266  68.531  0.00  0.00     0.086 C 
ATOM     14  H6  non d ame      -8.221  15.585  67.612  0.00  0.00     0.086 H 
BRANCH  13  15
ATOM     15  N2  non d ame      -8.770  15.138  69.537  0.00  0.00    -0.343 N 
ATOM     16  C5  non d ame     -10.167  15.373  69.164  0.00  0.00     0.273 C 
ATOM     17  O2  non d ame     -10.442  15.668  68.052  0.00  0.00    -0.266 OA
ATOM     18  H5  non d ame      -8.526  14.889  70.485  0.00  0.00     0.163 HD
BRANCH  16  19
ATOM     19  C4  non d ame     -11.278  15.240  70.216  0.00  0.00     0.154 A 
ATOM     20  C1  non d ame     -12.010  14.059  70.556  0.00  0.00    -0.017 A 
ATOM     21  C2  non d ame     -12.905  14.465  71.571  0.00  0.00     0.077 A 
ATOM     22  H1  non d ame     -11.908  13.060  70.132  0.00  0.00     0.091 H 
ATOM     23  O1  non d ame     -12.702  15.732  71.782  0.00  0.00    -0.218 OA
ATOM     24  N1  non d ame     -11.758  16.207  71.004  0.00  0.00    -0.123 NA
BRANCH  21  25
ATOM     25  C3  non d ame     -13.920  13.581  72.285  0.00  0.00    -0.029 C 
ATOM     26  H2  non d ame     -13.530  13.298  73.264  0.00  0.00     0.036 H 
ATOM     27  H3  non d ame     -14.854  14.128  72.410  0.00  0.00     0.036 H 
ATOM     28  H4  non d ame     -14.101  12.683  71.693  0.00  0.00     0.036 H 
ENDBRANCH  21  25
ENDBRANCH  16  19
ENDBRANCH  13  15
BRANCH  13  29
ATOM     29  C8  non d ame      -6.737  16.323  68.946  0.00  0.00    -0.049 C 
ATOM     30  H7  non d ame      -7.268  17.242  69.195  0.00  0.00     0.030 H 
ATOM     31  H8  non d ame      -6.181  15.977  69.817  0.00  0.00     0.030 H 
ATOM     32  H9  non d ame      -6.047  16.514  68.125  0.00  0.00     0.030 H 
ENDBRANCH  13  29
ENDBRANCH  10  13
ENDBRANCH   7   9
BRANCH   7  33
ATOM     33  C11 non d ame      -4.796  11.810  70.147  0.00  0.00    -0.033 C 
ATOM     34  H12 non d ame      -4.697  10.890  70.723  0.00  0.00     0.042 H 
BRANCH  33  35
ATOM     35  C12 non d ame      -3.598  11.869  69.149  0.00  0.00    -0.071 C 
ATOM     36  H13 non d ame      -3.351  12.910  68.939  0.00  0.00     0.028 H 
ATOM     37  H14 non d ame      -2.733  11.373  69.589  0.00  0.00     0.028 H 
ATOM     38  H15 non d ame      -3.873  11.366  68.222  0.00  0.00     0.028 H 
ENDBRANCH  33  35
BRANCH  33  39
ATOM     39  C13 non d ame      -4.761  13.011  71.145  0.00  0.00    -0.071 C 
ATOM     40  H16 non d ame      -5.780  13.292  71.411  0.00  0.00     0.028 H 
ATOM     41  H17 non d ame      -4.218  12.720  72.045  0.00  0.00     0.028 H 
ATOM     42  H18 non d ame      -4.260  13.858  70.677  0.00  0.00     0.028 H 
ENDBRANCH  33  39
ENDBRANCH   7  33
ENDBRANCH   4   7
ENDBRANCH   1   3
BRANCH   1  43
ATOM     43  C15 non d ame      -8.869   7.977  69.225  0.00  0.00     0.240 C 
ATOM     44  O5  non d ame      -8.916   6.951  69.821  0.00  0.00    -0.271 OA
ATOM     45  N6  non d ame      -8.503   7.979  67.780  0.00  0.00    -0.355 N 
ATOM     46  H46 non d ame      -8.465   8.844  67.261  0.00  0.00     0.162 HD
BRANCH  45  47
ATOM     47  C20 non d ame      -8.193   6.702  67.101  0.00  0.00     0.013 C 
ATOM     48  H30 non d ame      -8.159   5.919  67.858  0.00  0.00     0.072 H 
BRANCH  47  49
ATOM     49  C21 non d ame      -6.851   6.815  66.413  0.00  0.00    -0.038 C 
ATOM     50  H31 non d ame      -6.118   6.459  67.138  0.00  0.00     0.036 H 
ATOM     51  H32 non d ame      -6.966   6.303  65.458  0.00  0.00     0.036 H 
BRANCH  49  52
ATOM     52  C22 non d ame      -6.467   8.274  66.084  0.00  0.00     0.018 C 
ATOM     53  H33 non d ame      -7.153   8.897  66.659  0.00  0.00     0.048 H 
ATOM     54  H34 non d ame      -5.392   8.343  66.258  0.00  0.00     0.048 H 
BRANCH  52  55
ATOM     55  C23 non d ame      -6.685   8.658  64.594  0.00  0.00     0.259 C 
ATOM     56  O7  non d ame      -6.125   8.065  63.730  0.00  0.00    -0.265 OA
BRANCH  55  57
ATOM     57  O8  non d ame      -7.554   9.738  64.273  0.00  0.00    -0.317 OA
BRANCH  57  58
ATOM     58  C29 non d ame      -8.865   9.330  63.872  0.00  0.00     0.052 C 
ATOM     59  H47 non d ame      -8.878   9.406  62.785  0.00  0.00     0.082 H 
ATOM     60  H48 non d ame      -9.035   8.367  64.353  0.00  0.00     0.082 H 
BRANCH  58  61
ATOM     61  C35 non d ame      -9.881  10.352  64.448  0.00  0.00    -0.034 A 
ATOM     62  C30 non d ame     -10.624  11.155  63.589  0.00  0.00    -0.075 A 
ATOM     63  C31 non d ame     -11.537  12.074  64.106  0.00  0.00    -0.082 A 
ATOM     64  H49 non d ame     -10.492  11.065  62.511  0.00  0.00     0.084 H 
ATOM     65  C32 non d ame     -11.703  12.189  65.489  0.00  0.00    -0.083 A 
ATOM     66  H50 non d ame     -12.119  12.700  63.431  0.00  0.00     0.083 H 
ATOM     67  C33 non d ame     -10.956  11.388  66.343  0.00  0.00    -0.082 A 
ATOM     68  H51 non d ame     -12.414  12.904  65.902  0.00  0.00     0.083 H 
ATOM     69  C34 non d ame     -10.045  10.468  65.830  0.00  0.00    -0.075 A 
ATOM     70  H52 non d ame     -11.087  11.482  67.421  0.00  0.00     0.083 H 
ATOM     71  H53 non d ame      -9.463   9.841  66.507  0.00  0.00     0.084 H 
ENDBRANCH  58  61
ENDBRANCH  57  58
ENDBRANCH  55  57
ENDBRANCH  52  55
ENDBRANCH  49  52
ENDBRANCH  47  49
BRANCH  47  72
ATOM     72  C24 non d ame      -9.272   6.392  66.065  0.00  0.00    -0.039 C 
ATOM     73  H35 non d ame     -10.182   6.215  66.639  0.00  0.00     0.036 H 
ATOM     74  H36 non d ame      -9.231   7.213  65.349  0.00  0.00     0.036 H 
BRANCH  72  75
ATOM     75  C25 non d ame      -8.951   5.046  65.259  0.00  0.00    -0.001 C 
ATOM     76  C26 non d ame      -8.439   5.411  63.740  0.00  0.00    -0.035 C 
ATOM     77  C27 non d ame      -9.168   4.696  62.850  0.00  0.00     0.085 C 
ATOM     78  H38 non d ame      -8.686   6.445  63.501  0.00  0.00     0.036 H 
ATOM     79  H39 non d ame      -7.423   5.044  63.589  0.00  0.00     0.036 H 
ATOM     80  N5  non d ame     -10.347   4.126  63.602  0.00  0.00    -0.049 N 
ATOM     81  H40 non d ame      -9.530   5.421  62.120  0.00  0.00     0.075 H 
ATOM     82  H41 non d ame      -8.521   3.879  62.533  0.00  0.00     0.075 H 
ATOM     83  C28 non d ame      -9.997   4.294  65.169  0.00  0.00     0.193 C 
ATOM     84  H42 non d ame     -11.137   4.715  63.384  0.00  0.00     0.280 HD
ATOM     85  H43 non d ame     -10.376   3.140  63.384  0.00  0.00     0.280 HD
ATOM     86  H44 non d ame      -9.676   3.436  65.760  0.00  0.00     0.129 H 
ATOM     87  H37 non d ame      -8.336   4.355  65.837  0.00  0.00     0.046 H 
BRANCH  83  88
ATOM     88  O6  non d ame     -11.116   4.842  65.868  0.00  0.00    -0.369 OA
ATOM     89  H45 non d ame     -11.647   5.364  65.262  0.00  0.00     0.212 HD
ENDBRANCH  83  88
ENDBRANCH  72  75
ENDBRANCH  47  72
ENDBRANCH  45  47
ENDBRANCH   1  43
BRANCH   1  90
ATOM     90  C16 non d ame     -10.661   9.667  69.731  0.00  0.00    -0.035 C 
ATOM     91  H21 non d ame     -10.649  10.619  69.201  0.00  0.00     0.037 H 
ATOM     92  H22 non d ame     -11.104   8.788  69.262  0.00  0.00     0.037 H 
BRANCH  90  93
ATOM     93  C17 non d ame     -11.455   9.908  71.054  0.00  0.00    -0.059 C 
ATOM     94  H23 non d ame     -10.971  10.726  71.587  0.00  0.00     0.038 H 
BRANCH  93  95
ATOM     95  C18 non d ame     -12.937  10.325  70.785  0.00  0.00    -0.073 C 
ATOM     96  H24 non d ame     -13.275  10.994  71.576  0.00  0.00     0.028 H 
ATOM     97  H25 non d ame     -13.001  10.836  69.824  0.00  0.00     0.028 H 
ATOM     98  H26 non d ame     -13.567   9.436  70.766  0.00  0.00     0.028 H 
ENDBRANCH  93  95
BRANCH  93  99
ATOM     99  C19 non d ame     -11.393   8.676  71.961  0.00  0.00    -0.073 C 
ATOM    100  H27 non d ame     -11.530   7.776  71.362  0.00  0.00     0.028 H 
ATOM    101  H28 non d ame     -10.423   8.639  72.457  0.00  0.00     0.028 H 
ATOM    102  H29 non d ame     -12.182   8.737  72.711  0.00  0.00     0.028 H 
ENDBRANCH  93  99
ENDBRANCH  90  93
ENDBRANCH   1  90
TORSDOF 26
ENDMDL
MODEL 10
REMARK VINA RESULT:      -5.8      2.759      7.724
REMARK  26 active torsions:
REMARK  status: ('A' for Active; 'I' for Inactive)
REMARK    1  A    between atoms: C2_2  and  C3_3 
REMARK    2  A    between atoms: C4_6  and  C5_7 
REMARK       I    between atoms: C5_7  and  N2_9 
REMARK    3  A    between atoms: N2_9  and  C6_10 
REMARK    4  A    between atoms: C6_10  and  C7_11 
REMARK    5  A    between atoms: C6_10  and  C8_13 
REMARK       I    between atoms: C7_11  and  N3_14 
REMARK    6  A    between atoms: N3_14  and  C9_15 
REMARK    7  A    between atoms: C9_15  and  C10_16 
REMARK    8  A    between atoms: C9_15  and  C11_18 
REMARK       I    between atoms: C10_16  and  N4_21 
REMARK    9  A    between atoms: C11_18  and  C12_19 
REMARK   10  A    between atoms: C11_18  and  C13_20 
REMARK   11  A    between atoms: N4_21  and  C14_22 
REMARK   12  A    between atoms: C14_22  and  C15_23 
REMARK   13  A    between atoms: C14_22  and  C16_25 
REMARK       I    between atoms: C15_23  and  N6_40 
REMARK   14  A    between atoms: C16_25  and  C17_26 
REMARK   15  A    between atoms: C17_26  and  C18_27 
REMARK   16  A    between atoms: C17_26  and  C19_28 
REMARK   17  A    between atoms: C20_29  and  C21_30 
REMARK   18  A    between atoms: C20_29  and  C24_33 
REMARK   19  A    between atoms: C20_29  and  N6_40 
REMARK   20  A    between atoms: C21_30  and  C22_31 
REMARK   21  A    between atoms: C22_31  and  C23_32 
REMARK   22  A    between atoms: C23_32  and  O8_43 
REMARK   23  A    between atoms: C24_33  and  C25_34 
REMARK   24  A    between atoms: C28_38  and  O6_39 
REMARK   25  A    between atoms: C29_42  and  O8_43 
REMARK   26  A    between atoms: C29_42  and  C35_49 
ROOT
ATOM      1  C14 non d ame      -7.816  14.471  67.447  0.00  0.00     0.089 C 
ATOM      2  H20 non d ame      -7.653  14.856  66.439  0.00  0.00     0.087 H 
ENDROOT
BRANCH   1   3
ATOM      3  N4  non d ame      -8.842  15.294  68.069  0.00  0.00    -0.346 N 
ATOM      4  C10 non d ame      -9.640  16.271  67.243  0.00  0.00     0.241 C 
ATOM      5  O4  non d ame      -9.436  16.380  66.079  0.00  0.00    -0.271 OA
ATOM      6  H19 non d ame      -8.999  15.187  69.061  0.00  0.00     0.163 HD
BRANCH   4   7
ATOM      7  C9  non d ame     -10.703  17.110  67.903  0.00  0.00     0.092 C 
ATOM      8  H11 non d ame     -11.582  17.146  67.260  0.00  0.00     0.088 H 
BRANCH   7   9
ATOM      9  N3  non d ame     -11.112  16.480  69.162  0.00  0.00    -0.346 N 
ATOM     10  C7  non d ame     -11.774  15.198  69.144  0.00  0.00     0.240 C 
ATOM     11  O3  non d ame     -11.987  14.661  68.126  0.00  0.00    -0.271 OA
ATOM     12  H10 non d ame     -10.937  16.932  70.048  0.00  0.00     0.163 HD
BRANCH  10  13
ATOM     13  C6  non d ame     -12.210  14.534  70.487  0.00  0.00     0.086 C 
ATOM     14  H6  non d ame     -13.278  14.633  70.679  0.00  0.00     0.086 H 
BRANCH  13  15
ATOM     15  N2  non d ame     -11.930  13.109  70.420  0.00  0.00    -0.343 N 
ATOM     16  C5  non d ame     -12.688  12.185  71.267  0.00  0.00     0.273 C 
ATOM     17  O2  non d ame     -13.518  12.598  72.000  0.00  0.00    -0.266 OA
ATOM     18  H5  non d ame     -11.217  12.765  69.793  0.00  0.00     0.163 HD
BRANCH  16  19
ATOM     19  C4  non d ame     -12.404  10.676  71.206  0.00  0.00     0.154 A 
ATOM     20  C1  non d ame     -13.237   9.619  71.692  0.00  0.00    -0.017 A 
ATOM     21  C2  non d ame     -12.529   8.433  71.396  0.00  0.00     0.077 A 
ATOM     22  H1  non d ame     -14.206   9.700  72.184  0.00  0.00     0.091 H 
ATOM     23  O1  non d ame     -11.422   8.779  70.807  0.00  0.00    -0.218 OA
ATOM     24  N1  non d ame     -11.326  10.083  70.686  0.00  0.00    -0.123 NA
BRANCH  21  25
ATOM     25  C3  non d ame     -12.981   7.012  71.707  0.00  0.00    -0.029 C 
ATOM     26  H2  non d ame     -13.243   6.937  72.762  0.00  0.00     0.036 H 
ATOM     27  H3  non d ame     -13.850   6.766  71.097  0.00  0.00     0.036 H 
ATOM     28  H4  non d ame     -12.172   6.316  71.483  0.00  0.00     0.036 H 
ENDBRANCH  21  25
ENDBRANCH  16  19
ENDBRANCH  13  15
BRANCH  13  29
ATOM     29  C8  non d ame     -11.449  15.157  71.629  0.00  0.00    -0.049 C 
ATOM     30  H7  non d ame     -10.602  14.523  71.891  0.00  0.00     0.030 H 
ATOM     31  H8  non d ame     -11.088  16.141  71.331  0.00  0.00     0.030 H 
ATOM     32  H9  non d ame     -12.108  15.257  72.492  0.00  0.00     0.030 H 
ENDBRANCH  13  29
ENDBRANCH  10  13
ENDBRANCH   7   9
BRANCH   7  33
ATOM     33  C11 non d ame     -10.135  18.529  68.197  0.00  0.00    -0.033 C 
ATOM     34  H12 non d ame     -10.611  18.891  69.108  0.00  0.00     0.042 H 
BRANCH  33  35
ATOM     35  C12 non d ame      -8.597  18.483  68.458  0.00  0.00    -0.071 C 
ATOM     36  H13 non d ame      -8.322  19.280  69.149  0.00  0.00     0.028 H 
ATOM     37  H14 non d ame      -8.331  17.519  68.891  0.00  0.00     0.028 H 
ATOM     38  H15 non d ame      -8.065  18.618  67.517  0.00  0.00     0.028 H 
ENDBRANCH  33  35
BRANCH  33  39
ATOM     39  C13 non d ame     -10.484  19.522  67.042  0.00  0.00    -0.071 C 
ATOM     40  H16 non d ame     -11.449  19.255  66.612  0.00  0.00     0.028 H 
ATOM     41  H17 non d ame     -10.531  20.537  67.437  0.00  0.00     0.028 H 
ATOM     42  H18 non d ame      -9.715  19.467  66.272  0.00  0.00     0.028 H 
ENDBRANCH  33  39
ENDBRANCH   7  33
ENDBRANCH   4   7
ENDBRANCH   1   3
BRANCH   1  43
ATOM     43  C15 non d ame      -8.301  12.993  67.440  0.00  0.00     0.240 C 
ATOM     44  O5  non d ame      -8.798  12.530  68.416  0.00  0.00    -0.271 OA
ATOM     45  N6  non d ame      -8.154  12.158  66.215  0.00  0.00    -0.355 N 
ATOM     46  H46 non d ame      -7.738  12.542  65.379  0.00  0.00     0.162 HD
BRANCH  45  47
ATOM     47  C20 non d ame      -8.622  10.755  66.224  0.00  0.00     0.013 C 
ATOM     48  H30 non d ame      -9.082  10.561  67.193  0.00  0.00     0.072 H 
BRANCH  47  49
ATOM     49  C21 non d ame      -7.441   9.833  66.020  0.00  0.00    -0.038 C 
ATOM     50  H31 non d ame      -7.765   9.096  65.286  0.00  0.00     0.036 H 
ATOM     51  H32 non d ame      -6.594  10.484  65.803  0.00  0.00     0.036 H 
BRANCH  49  52
ATOM     52  C22 non d ame      -7.069   9.044  67.295  0.00  0.00     0.018 C 
ATOM     53  H33 non d ame      -6.279   8.355  66.996  0.00  0.00     0.048 H 
ATOM     54  H34 non d ame      -6.875   9.796  68.061  0.00  0.00     0.048 H 
BRANCH  52  55
ATOM     55  C23 non d ame      -8.223   8.161  67.844  0.00  0.00     0.259 C 
ATOM     56  O7  non d ame      -8.830   8.494  68.810  0.00  0.00    -0.265 OA
BRANCH  55  57
ATOM     57  O8  non d ame      -8.541   6.941  67.186  0.00  0.00    -0.317 OA
BRANCH  57  58
ATOM     58  C29 non d ame      -7.443   6.029  67.089  0.00  0.00     0.052 C 
ATOM     59  H47 non d ame      -6.621   6.498  67.630  0.00  0.00     0.082 H 
ATOM     60  H48 non d ame      -7.831   5.065  67.416  0.00  0.00     0.082 H 
BRANCH  58  61
ATOM     61  C35 non d ame      -7.044   5.916  65.593  0.00  0.00    -0.034 A 
ATOM     62  C30 non d ame      -5.702   5.876  65.231  0.00  0.00    -0.075 A 
ATOM     63  C31 non d ame      -5.344   5.775  63.887  0.00  0.00    -0.082 A 
ATOM     64  H49 non d ame      -4.930   5.923  66.000  0.00  0.00     0.084 H 
ATOM     65  C32 non d ame      -6.335   5.717  62.904  0.00  0.00    -0.083 A 
ATOM     66  H50 non d ame      -4.291   5.742  63.607  0.00  0.00     0.083 H 
ATOM     67  C33 non d ame      -7.673   5.760  63.270  0.00  0.00    -0.082 A 
ATOM     68  H51 non d ame      -6.063   5.637  61.851  0.00  0.00     0.083 H 
ATOM     69  C34 non d ame      -8.035   5.859  64.611  0.00  0.00    -0.075 A 
ATOM     70  H52 non d ame      -8.444   5.717  62.500  0.00  0.00     0.083 H 
ATOM     71  H53 non d ame      -9.089   5.892  64.891  0.00  0.00     0.084 H 
ENDBRANCH  58  61
ENDBRANCH  57  58
ENDBRANCH  55  57
ENDBRANCH  52  55
ENDBRANCH  49  52
ENDBRANCH  47  49
BRANCH  47  72
ATOM     72  C24 non d ame      -9.635  10.540  65.102  0.00  0.00    -0.039 C 
ATOM     73  H35 non d ame      -9.067  10.114  64.275  0.00  0.00     0.036 H 
ATOM     74  H36 non d ame     -10.451   9.974  65.552  0.00  0.00     0.036 H 
BRANCH  72  75
ATOM     75  C25 non d ame     -10.251  11.927  64.587  0.00  0.00    -0.001 C 
ATOM     76  C26 non d ame     -11.602  12.295  65.450  0.00  0.00    -0.035 C 
ATOM     77  C27 non d ame     -12.609  12.569  64.587  0.00  0.00     0.085 C 
ATOM     78  H38 non d ame     -11.956  11.413  65.983  0.00  0.00     0.036 H 
ATOM     79  H39 non d ame     -11.460  13.235  65.984  0.00  0.00     0.036 H 
ATOM     80  N5  non d ame     -12.161  12.105  63.223  0.00  0.00    -0.049 N 
ATOM     81  H40 non d ame     -13.449  11.954  64.914  0.00  0.00     0.075 H 
ATOM     82  H41 non d ame     -12.699  13.655  64.581  0.00  0.00     0.075 H 
ATOM     83  C28 non d ame     -10.569  11.861  63.337  0.00  0.00     0.193 C 
ATOM     84  H42 non d ame     -12.612  11.216  63.060  0.00  0.00     0.280 HD
ATOM     85  H43 non d ame     -12.323  12.876  62.590  0.00  0.00     0.280 HD
ATOM     86  H44 non d ame      -9.867  12.581  62.916  0.00  0.00     0.129 H 
ATOM     87  H37 non d ame      -9.494  12.706  64.495  0.00  0.00     0.046 H 
BRANCH  83  88
ATOM     88  O6  non d ame     -10.220  10.603  62.757  0.00  0.00    -0.369 OA
ATOM     89  H45 non d ame      -9.346  10.663  62.365  0.00  0.00     0.212 HD
ENDBRANCH  83  88
ENDBRANCH  72  75
ENDBRANCH  47  72
ENDBRANCH  45  47
ENDBRANCH   1  43
BRANCH   1  90
ATOM     90  C16 non d ame      -6.532  14.585  68.254  0.00  0.00    -0.035 C 
ATOM     91  H21 non d ame      -6.821  14.380  69.285  0.00  0.00     0.037 H 
ATOM     92  H22 non d ame      -5.816  13.936  67.749  0.00  0.00     0.037 H 
BRANCH  90  93
ATOM     93  C17 non d ame      -5.912  16.018  68.246  0.00  0.00    -0.059 C 
ATOM     94  H23 non d ame      -6.566  16.665  68.830  0.00  0.00     0.038 H 
BRANCH  93  95
ATOM     95  C18 non d ame      -4.497  16.051  68.907  0.00  0.00    -0.073 C 
ATOM     96  H24 non d ame      -3.845  15.337  68.404  0.00  0.00     0.028 H 
ATOM     97  H25 non d ame      -4.077  17.053  68.817  0.00  0.00     0.028 H 
ATOM     98  H26 non d ame      -4.582  15.787  69.961  0.00  0.00     0.028 H 
ENDBRANCH  93  95
BRANCH  93  99
ATOM     99  C19 non d ame      -5.863  16.585  66.825  0.00  0.00    -0.073 C 
ATOM    100  H27 non d ame      -5.036  16.129  66.280  0.00  0.00     0.028 H 
ATOM    101  H28 non d ame      -6.800  16.365  66.314  0.00  0.00     0.028 H 
ATOM    102  H29 non d ame      -5.718  17.664  66.869  0.00  0.00     0.028 H 
ENDBRANCH  93  99
ENDBRANCH  90  93
ENDBRANCH   1  90
TORSDOF 26
ENDMDL
