MODEL 1
REMARK VINA RESULT:      -7.2      0.000      0.000
REMARK  26 active torsions:
REMARK  status: ('A' for Active; 'I' for Inactive)
REMARK    1  A    between atoms: C2_2  and  C3_3 
REMARK    2  A    between atoms: C4_6  and  C5_7 
REMARK       I    between atoms: C5_7  and  N2_9 
REMARK    3  A    between atoms: N2_9  and  C6_10 
REMARK    4  A    between atoms: C6_10  and  C7_11 
REMARK    5  A    between atoms: C6_10  and  C8_13 
REMARK       I    between atoms: C7_11  and  N3_14 
REMARK    6  A    between atoms: N3_14  and  C9_15 
REMARK    7  A    between atoms: C9_15  and  C10_16 
REMARK    8  A    between atoms: C9_15  and  C11_18 
REMARK       I    between atoms: C10_16  and  N4_21 
REMARK    9  A    between atoms: C11_18  and  C12_19 
REMARK   10  A    between atoms: C11_18  and  C13_20 
REMARK   11  A    between atoms: N4_21  and  C14_22 
REMARK   12  A    between atoms: C14_22  and  C15_23 
REMARK   13  A    between atoms: C14_22  and  C16_25 
REMARK       I    between atoms: C15_23  and  N6_40 
REMARK   14  A    between atoms: C16_25  and  C17_26 
REMARK   15  A    between atoms: C17_26  and  C18_27 
REMARK   16  A    between atoms: C17_26  and  C19_28 
REMARK   17  A    between atoms: C20_29  and  C21_30 
REMARK   18  A    between atoms: C20_29  and  C24_33 
REMARK   19  A    between atoms: C20_29  and  N6_40 
REMARK   20  A    between atoms: C21_30  and  C22_31 
REMARK   21  A    between atoms: C22_31  and  C23_32 
REMARK   22  A    between atoms: C23_32  and  O8_43 
REMARK   23  A    between atoms: C24_33  and  C25_34 
REMARK   24  A    between atoms: C28_38  and  O6_39 
REMARK   25  A    between atoms: C29_42  and  O8_43 
REMARK   26  A    between atoms: C29_42  and  C35_49 
ROOT
ATOM      1  C14 non d ame     -10.129  10.375  68.398  0.00  0.00     0.089 C 
ATOM      2  H20 non d ame      -9.360  10.458  69.167  0.00  0.00     0.087 H 
ENDROOT
BRANCH   1   3
ATOM      3  N4  non d ame     -10.688   9.034  68.480  0.00  0.00    -0.346 N 
ATOM      4  C10 non d ame      -9.983   7.961  69.272  0.00  0.00     0.241 C 
ATOM      5  O4  non d ame      -8.964   8.201  69.832  0.00  0.00    -0.271 OA
ATOM      6  H19 non d ame     -11.554   8.850  67.994  0.00  0.00     0.163 HD
BRANCH   4   7
ATOM      7  C9  non d ame     -10.579   6.580  69.350  0.00  0.00     0.092 C 
ATOM      8  H11 non d ame     -11.636   6.631  69.089  0.00  0.00     0.088 H 
BRANCH   7   9
ATOM      9  N3  non d ame      -9.930   5.710  68.365  0.00  0.00    -0.346 N 
ATOM     10  C7  non d ame     -10.332   5.764  66.981  0.00  0.00     0.240 C 
ATOM     11  O3  non d ame     -11.177   6.500  66.643  0.00  0.00    -0.271 OA
ATOM     12  H10 non d ame      -9.200   5.069  68.642  0.00  0.00     0.163 HD
BRANCH  10  13
ATOM     13  C6  non d ame      -9.640   4.833  65.937  0.00  0.00     0.086 C 
ATOM     14  H6  non d ame     -10.247   4.673  65.047  0.00  0.00     0.086 H 
BRANCH  13  15
ATOM     15  N2  non d ame      -8.406   5.460  65.492  0.00  0.00    -0.343 N 
ATOM     16  C5  non d ame      -8.100   5.514  64.061  0.00  0.00     0.273 C 
ATOM     17  O2  non d ame      -8.851   5.048  63.276  0.00  0.00    -0.266 OA
ATOM     18  H5  non d ame      -7.769   5.853  66.170  0.00  0.00     0.163 HD
BRANCH  16  19
ATOM     19  C4  non d ame      -6.801   6.175  63.576  0.00  0.00     0.154 A 
ATOM     20  C1  non d ame      -6.527   7.576  63.479  0.00  0.00    -0.017 A 
ATOM     21  C2  non d ame      -5.206   7.655  62.984  0.00  0.00     0.077 A 
ATOM     22  H1  non d ame      -7.186   8.408  63.729  0.00  0.00     0.091 H 
ATOM     23  O1  non d ame      -4.780   6.437  62.821  0.00  0.00    -0.218 OA
ATOM     24  N1  non d ame      -5.692   5.556  63.160  0.00  0.00    -0.123 NA
BRANCH  21  25
ATOM     25  C3  non d ame      -4.426   8.931  62.696  0.00  0.00    -0.029 C 
ATOM     26  H2  non d ame      -4.914   9.774  63.187  0.00  0.00     0.036 H 
ATOM     27  H3  non d ame      -3.409   8.829  63.076  0.00  0.00     0.036 H 
ATOM     28  H4  non d ame      -4.396   9.104  61.620  0.00  0.00     0.036 H 
ENDBRANCH  21  25
ENDBRANCH  16  19
ENDBRANCH  13  15
BRANCH  13  29
ATOM     29  C8  non d ame      -9.342   3.498  66.570  0.00  0.00    -0.049 C 
ATOM     30  H7  non d ame      -8.373   3.139  66.223  0.00  0.00     0.030 H 
ATOM     31  H8  non d ame      -9.321   3.606  67.655  0.00  0.00     0.030 H 
ATOM     32  H9  non d ame     -10.115   2.783  66.290  0.00  0.00     0.030 H 
ENDBRANCH  13  29
ENDBRANCH  10  13
ENDBRANCH   7   9
BRANCH   7  33
ATOM     33  C11 non d ame     -10.356   6.000  70.778  0.00  0.00    -0.033 C 
ATOM     34  H12 non d ame      -9.483   6.497  71.202  0.00  0.00     0.042 H 
BRANCH  33  35
ATOM     35  C12 non d ame     -11.569   6.304  71.711  0.00  0.00    -0.071 C 
ATOM     36  H13 non d ame     -11.352   7.187  72.313  0.00  0.00     0.028 H 
ATOM     37  H14 non d ame     -12.456   6.487  71.105  0.00  0.00     0.028 H 
ATOM     38  H15 non d ame     -11.745   5.451  72.366  0.00  0.00     0.028 H 
ENDBRANCH  33  35
BRANCH  33  39
ATOM     39  C13 non d ame     -10.057   4.467  70.718  0.00  0.00    -0.071 C 
ATOM     40  H16 non d ame     -10.996   3.915  70.694  0.00  0.00     0.028 H 
ATOM     41  H17 non d ame      -9.481   4.244  69.819  0.00  0.00     0.028 H 
ATOM     42  H18 non d ame      -9.485   4.174  71.598  0.00  0.00     0.028 H 
ENDBRANCH  33  39
ENDBRANCH   7  33
ENDBRANCH   4   7
ENDBRANCH   1   3
BRANCH   1  43
ATOM     43  C15 non d ame     -11.277  11.404  68.602  0.00  0.00     0.240 C 
ATOM     44  O5  non d ame     -12.335  11.218  68.093  0.00  0.00    -0.271 OA
ATOM     45  N6  non d ame     -11.061  12.618  69.439  0.00  0.00    -0.355 N 
ATOM     46  H46 non d ame     -10.168  12.785  69.881  0.00  0.00     0.162 HD
BRANCH  45  47
ATOM     47  C20 non d ame     -12.163  13.586  69.624  0.00  0.00     0.013 C 
ATOM     48  H30 non d ame     -13.032  13.213  69.082  0.00  0.00     0.072 H 
BRANCH  47  49
ATOM     49  C21 non d ame     -11.747  14.930  69.069  0.00  0.00    -0.038 C 
ATOM     50  H31 non d ame     -12.111  14.950  68.042  0.00  0.00     0.036 H 
ATOM     51  H32 non d ame     -12.102  15.668  69.789  0.00  0.00     0.036 H 
BRANCH  49  52
ATOM     52  C22 non d ame     -10.214  15.097  68.993  0.00  0.00     0.018 C 
ATOM     53  H33 non d ame      -9.920  15.558  69.936  0.00  0.00     0.048 H 
ATOM     54  H34 non d ame      -9.823  14.117  68.720  0.00  0.00     0.048 H 
BRANCH  52  55
ATOM     55  C23 non d ame      -9.745  16.071  67.876  0.00  0.00     0.259 C 
ATOM     56  O7  non d ame      -8.968  16.937  68.118  0.00  0.00    -0.265 OA
BRANCH  55  57
ATOM     57  O8  non d ame     -10.266  15.925  66.561  0.00  0.00    -0.317 OA
BRANCH  57  58
ATOM     58  C29 non d ame      -9.521  15.024  65.736  0.00  0.00     0.052 C 
ATOM     59  H47 non d ame      -9.148  15.624  64.906  0.00  0.00     0.082 H 
ATOM     60  H48 non d ame      -8.821  14.523  66.405  0.00  0.00     0.082 H 
BRANCH  58  61
ATOM     61  C35 non d ame     -10.506  13.965  65.173  0.00  0.00    -0.034 A 
ATOM     62  C30 non d ame     -11.826  13.938  65.612  0.00  0.00    -0.075 A 
ATOM     63  C31 non d ame     -12.711  12.987  65.107  0.00  0.00    -0.082 A 
ATOM     64  H49 non d ame     -12.167  14.662  66.352  0.00  0.00     0.084 H 
ATOM     65  C32 non d ame     -12.271  12.058  64.160  0.00  0.00    -0.083 A 
ATOM     66  H50 non d ame     -13.745  12.970  65.451  0.00  0.00     0.083 H 
ATOM     67  C33 non d ame     -10.952  12.087  63.727  0.00  0.00    -0.082 A 
ATOM     68  H51 non d ame     -12.956  11.311  63.759  0.00  0.00     0.083 H 
ATOM     69  C34 non d ame     -10.065  13.037  64.228  0.00  0.00    -0.075 A 
ATOM     70  H52 non d ame     -10.611  11.359  62.990  0.00  0.00     0.083 H 
ATOM     71  H53 non d ame      -9.031  13.054  63.883  0.00  0.00     0.084 H 
ENDBRANCH  58  61
ENDBRANCH  57  58
ENDBRANCH  55  57
ENDBRANCH  52  55
ENDBRANCH  49  52
ENDBRANCH  47  49
BRANCH  47  72
ATOM     72  C24 non d ame     -12.484  13.726  71.111  0.00  0.00    -0.039 C 
ATOM     73  H35 non d ame     -13.328  13.059  71.289  0.00  0.00     0.036 H 
ATOM     74  H36 non d ame     -11.540  13.559  71.628  0.00  0.00     0.036 H 
BRANCH  72  75
ATOM     75  C25 non d ame     -12.969  15.208  71.476  0.00  0.00    -0.001 C 
ATOM     76  C26 non d ame     -11.792  15.990  72.318  0.00  0.00    -0.035 C 
ATOM     77  C27 non d ame     -12.335  16.510  73.445  0.00  0.00     0.085 C 
ATOM     78  H38 non d ame     -11.063  15.273  72.694  0.00  0.00     0.036 H 
ATOM     79  H39 non d ame     -11.459  16.870  71.767  0.00  0.00     0.036 H 
ATOM     80  N5  non d ame     -13.696  15.879  73.612  0.00  0.00    -0.049 N 
ATOM     81  H40 non d ame     -11.688  16.181  74.259  0.00  0.00     0.075 H 
ATOM     82  H41 non d ame     -12.459  17.574  73.244  0.00  0.00     0.075 H 
ATOM     83  C28 non d ame     -14.041  15.186  72.195  0.00  0.00     0.193 C 
ATOM     84  H42 non d ame     -13.591  15.153  74.308  0.00  0.00     0.280 HD
ATOM     85  H43 non d ame     -14.346  16.636  73.766  0.00  0.00     0.280 HD
ATOM     86  H44 non d ame     -14.749  15.652  71.510  0.00  0.00     0.129 H 
ATOM     87  H37 non d ame     -13.392  15.728  70.616  0.00  0.00     0.046 H 
BRANCH  83  88
ATOM     88  O6  non d ame     -14.525  13.858  72.401  0.00  0.00    -0.369 OA
ATOM     89  H45 non d ame     -15.481  13.874  72.478  0.00  0.00     0.212 HD
ENDBRANCH  83  88
ENDBRANCH  72  75
ENDBRANCH  47  72
ENDBRANCH  45  47
ENDBRANCH   1  43
BRANCH   1  90
ATOM     90  C16 non d ame      -9.505  10.569  67.025  0.00  0.00    -0.035 C 
ATOM     91  H21 non d ame      -9.613   9.608  66.521  0.00  0.00     0.037 H 
ATOM     92  H22 non d ame      -9.985  11.457  66.613  0.00  0.00     0.037 H 
BRANCH  90  93
ATOM     93  C17 non d ame      -7.974  10.875  67.070  0.00  0.00    -0.059 C 
ATOM     94  H23 non d ame      -7.540  10.275  67.869  0.00  0.00     0.038 H 
BRANCH  93  95
ATOM     95  C18 non d ame      -7.257  10.486  65.738  0.00  0.00    -0.073 C 
ATOM     96  H24 non d ame      -7.647   9.533  65.380  0.00  0.00     0.028 H 
ATOM     97  H25 non d ame      -7.438  11.257  64.989  0.00  0.00     0.028 H 
ATOM     98  H26 non d ame      -6.185  10.397  65.915  0.00  0.00     0.028 H 
ENDBRANCH  93  95
BRANCH  93  99
ATOM     99  C19 non d ame      -7.721  12.345  67.416  0.00  0.00    -0.073 C 
ATOM    100  H27 non d ame      -8.169  12.573  68.383  0.00  0.00     0.028 H 
ATOM    101  H28 non d ame      -6.647  12.527  67.461  0.00  0.00     0.028 H 
ATOM    102  H29 non d ame      -8.165  12.980  66.650  0.00  0.00     0.028 H 
ENDBRANCH  93  99
ENDBRANCH  90  93
ENDBRANCH   1  90
TORSDOF 26
ENDMDL
MODEL 2
REMARK VINA RESULT:      -6.8      2.968      6.342
REMARK  26 active torsions:
REMARK  status: ('A' for Active; 'I' for Inactive)
REMARK    1  A    between atoms: C2_2  and  C3_3 
REMARK    2  A    between atoms: C4_6  and  C5_7 
REMARK       I    between atoms: C5_7  and  N2_9 
REMARK    3  A    between atoms: N2_9  and  C6_10 
REMARK    4  A    between atoms: C6_10  and  C7_11 
REMARK    5  A    between atoms: C6_10  and  C8_13 
REMARK       I    between atoms: C7_11  and  N3_14 
REMARK    6  A    between atoms: N3_14  and  C9_15 
REMARK    7  A    between atoms: C9_15  and  C10_16 
REMARK    8  A    between atoms: C9_15  and  C11_18 
REMARK       I    between atoms: C10_16  and  N4_21 
REMARK    9  A    between atoms: C11_18  and  C12_19 
REMARK   10  A    between atoms: C11_18  and  C13_20 
REMARK   11  A    between atoms: N4_21  and  C14_22 
REMARK   12  A    between atoms: C14_22  and  C15_23 
REMARK   13  A    between atoms: C14_22  and  C16_25 
REMARK       I    between atoms: C15_23  and  N6_40 
REMARK   14  A    between atoms: C16_25  and  C17_26 
REMARK   15  A    between atoms: C17_26  and  C18_27 
REMARK   16  A    between atoms: C17_26  and  C19_28 
REMARK   17  A    between atoms: C20_29  and  C21_30 
REMARK   18  A    between atoms: C20_29  and  C24_33 
REMARK   19  A    between atoms: C20_29  and  N6_40 
REMARK   20  A    between atoms: C21_30  and  C22_31 
REMARK   21  A    between atoms: C22_31  and  C23_32 
REMARK   22  A    between atoms: C23_32  and  O8_43 
REMARK   23  A    between atoms: C24_33  and  C25_34 
REMARK   24  A    between atoms: C28_38  and  O6_39 
REMARK   25  A    between atoms: C29_42  and  O8_43 
REMARK   26  A    between atoms: C29_42  and  C35_49 
ROOT
ATOM      1  C14 non d ame     -10.587   9.604  69.653  0.00  0.00     0.089 C 
ATOM      2  H20 non d ame     -10.937   8.727  69.108  0.00  0.00     0.087 H 
ENDROOT
BRANCH   1   3
ATOM      3  N4  non d ame      -9.302   9.988  69.088  0.00  0.00    -0.346 N 
ATOM      4  C10 non d ame      -8.419   8.955  68.434  0.00  0.00     0.241 C 
ATOM      5  O4  non d ame      -8.763   7.821  68.376  0.00  0.00    -0.271 OA
ATOM      6  H19 non d ame      -9.026  10.958  69.150  0.00  0.00     0.163 HD
BRANCH   4   7
ATOM      7  C9  non d ame      -7.094   9.371  67.850  0.00  0.00     0.092 C 
ATOM      8  H11 non d ame      -7.207   9.523  66.777  0.00  0.00     0.088 H 
BRANCH   7   9
ATOM      9  N3  non d ame      -6.685  10.654  68.429  0.00  0.00    -0.346 N 
ATOM     10  C7  non d ame      -6.450  11.789  67.570  0.00  0.00     0.240 C 
ATOM     11  O3  non d ame      -6.583  11.687  66.412  0.00  0.00    -0.271 OA
ATOM     12  H10 non d ame      -6.565  10.757  69.426  0.00  0.00     0.163 HD
BRANCH  10  13
ATOM     13  C6  non d ame      -6.012  13.152  68.192  0.00  0.00     0.086 C 
ATOM     14  H6  non d ame      -5.077  13.525  67.774  0.00  0.00     0.086 H 
BRANCH  13  15
ATOM     15  N2  non d ame      -7.026  14.151  67.898  0.00  0.00    -0.343 N 
ATOM     16  C5  non d ame      -6.619  15.465  67.394  0.00  0.00     0.273 C 
ATOM     17  O2  non d ame      -5.474  15.709  67.232  0.00  0.00    -0.266 OA
ATOM     18  H5  non d ame      -8.002  13.935  68.043  0.00  0.00     0.163 HD
BRANCH  16  19
ATOM     19  C4  non d ame      -7.681  16.530  67.078  0.00  0.00     0.154 A 
ATOM     20  C1  non d ame      -8.484  17.255  68.015  0.00  0.00    -0.017 A 
ATOM     21  C2  non d ame      -9.290  18.103  67.223  0.00  0.00     0.077 A 
ATOM     22  H1  non d ame      -8.484  17.177  69.102  0.00  0.00     0.091 H 
ATOM     23  O1  non d ame      -8.976  17.885  65.980  0.00  0.00    -0.218 OA
ATOM     24  N1  non d ame      -8.040  16.971  65.870  0.00  0.00    -0.123 NA
BRANCH  21  25
ATOM     25  C3  non d ame     -10.331  19.091  67.732  0.00  0.00    -0.029 C 
ATOM     26  H2  non d ame     -10.702  18.761  68.703  0.00  0.00     0.036 H 
ATOM     27  H3  non d ame      -9.878  20.077  67.832  0.00  0.00     0.036 H 
ATOM     28  H4  non d ame     -11.160  19.142  67.026  0.00  0.00     0.036 H 
ENDBRANCH  21  25
ENDBRANCH  16  19
ENDBRANCH  13  15
BRANCH  13  29
ATOM     29  C8  non d ame      -5.854  12.999  69.683  0.00  0.00    -0.049 C 
ATOM     30  H7  non d ame      -6.660  12.378  70.073  0.00  0.00     0.030 H 
ATOM     31  H8  non d ame      -4.895  12.529  69.901  0.00  0.00     0.030 H 
ATOM     32  H9  non d ame      -5.893  13.981  70.155  0.00  0.00     0.030 H 
ENDBRANCH  13  29
ENDBRANCH  10  13
ENDBRANCH   7   9
BRANCH   7  33
ATOM     33  C11 non d ame      -6.021   8.292  68.179  0.00  0.00    -0.033 C 
ATOM     34  H12 non d ame      -6.547   7.371  68.432  0.00  0.00     0.042 H 
BRANCH  33  35
ATOM     35  C12 non d ame      -5.120   7.991  66.941  0.00  0.00    -0.071 C 
ATOM     36  H13 non d ame      -5.363   8.686  66.136  0.00  0.00     0.028 H 
ATOM     37  H14 non d ame      -4.072   8.109  67.217  0.00  0.00     0.028 H 
ATOM     38  H15 non d ame      -5.295   6.969  66.604  0.00  0.00     0.028 H 
ENDBRANCH  33  35
BRANCH  33  39
ATOM     39  C13 non d ame      -5.163   8.714  69.414  0.00  0.00    -0.071 C 
ATOM     40  H16 non d ame      -5.822   9.027  70.224  0.00  0.00     0.028 H 
ATOM     41  H17 non d ame      -4.559   7.868  69.743  0.00  0.00     0.028 H 
ATOM     42  H18 non d ame      -4.510   9.541  69.137  0.00  0.00     0.028 H 
ENDBRANCH  33  39
ENDBRANCH   7  33
ENDBRANCH   4   7
ENDBRANCH   1   3
BRANCH   1  43
ATOM     43  C15 non d ame     -11.565  10.807  69.519  0.00  0.00     0.240 C 
ATOM     44  O5  non d ame     -12.654  10.636  69.074  0.00  0.00    -0.271 OA
ATOM     45  N6  non d ame     -11.147  12.170  69.954  0.00  0.00    -0.355 N 
ATOM     46  H46 non d ame     -10.226  12.326  70.338  0.00  0.00     0.162 HD
BRANCH  45  47
ATOM     47  C20 non d ame     -12.089  13.302  69.822  0.00  0.00     0.013 C 
ATOM     48  H30 non d ame     -12.824  13.040  69.060  0.00  0.00     0.072 H 
BRANCH  47  49
ATOM     49  C21 non d ame     -11.328  14.539  69.401  0.00  0.00    -0.038 C 
ATOM     50  H31 non d ame     -11.620  15.318  70.106  0.00  0.00     0.036 H 
ATOM     51  H32 non d ame     -10.284  14.232  69.330  0.00  0.00     0.036 H 
BRANCH  49  52
ATOM     52  C22 non d ame     -11.732  15.044  67.999  0.00  0.00     0.018 C 
ATOM     53  H33 non d ame     -12.769  14.736  67.862  0.00  0.00     0.048 H 
ATOM     54  H34 non d ame     -11.471  16.103  67.980  0.00  0.00     0.048 H 
BRANCH  52  55
ATOM     55  C23 non d ame     -10.932  14.385  66.842  0.00  0.00     0.259 C 
ATOM     56  O7  non d ame      -9.810  14.032  67.008  0.00  0.00    -0.265 OA
BRANCH  55  57
ATOM     57  O8  non d ame     -11.553  14.218  65.573  0.00  0.00    -0.317 OA
BRANCH  57  58
ATOM     58  C29 non d ame     -12.243  12.974  65.421  0.00  0.00     0.052 C 
ATOM     59  H47 non d ame     -12.555  12.686  66.425  0.00  0.00     0.082 H 
ATOM     60  H48 non d ame     -12.991  13.144  64.647  0.00  0.00     0.082 H 
BRANCH  58  61
ATOM     61  C35 non d ame     -11.228  11.923  64.901  0.00  0.00    -0.034 A 
ATOM     62  C30 non d ame     -10.786  10.906  65.742  0.00  0.00    -0.075 A 
ATOM     63  C31 non d ame      -9.873   9.961  65.275  0.00  0.00    -0.082 A 
ATOM     64  H49 non d ame     -11.155  10.849  66.766  0.00  0.00     0.084 H 
ATOM     65  C32 non d ame      -9.400  10.037  63.962  0.00  0.00    -0.083 A 
ATOM     66  H50 non d ame      -9.531   9.164  65.935  0.00  0.00     0.083 H 
ATOM     67  C33 non d ame      -9.841  11.056  63.128  0.00  0.00    -0.082 A 
ATOM     68  H51 non d ame      -8.687   9.302  63.588  0.00  0.00     0.083 H 
ATOM     69  C34 non d ame     -10.755  12.001  63.590  0.00  0.00    -0.075 A 
ATOM     70  H52 non d ame      -9.469  11.114  62.105  0.00  0.00     0.083 H 
ATOM     71  H53 non d ame     -11.098  12.797  62.928  0.00  0.00     0.084 H 
ENDBRANCH  58  61
ENDBRANCH  57  58
ENDBRANCH  55  57
ENDBRANCH  52  55
ENDBRANCH  49  52
ENDBRANCH  47  49
BRANCH  47  72
ATOM     72  C24 non d ame     -12.780  13.559  71.160  0.00  0.00    -0.039 C 
ATOM     73  H35 non d ame     -13.814  13.245  71.017  0.00  0.00     0.036 H 
ATOM     74  H36 non d ame     -12.159  13.063  71.906  0.00  0.00     0.036 H 
BRANCH  72  75
ATOM     75  C25 non d ame     -12.805  15.118  71.525  0.00  0.00    -0.001 C 
ATOM     76  C26 non d ame     -11.811  15.410  72.801  0.00  0.00    -0.035 C 
ATOM     77  C27 non d ame     -12.497  16.107  73.739  0.00  0.00     0.085 C 
ATOM     78  H38 non d ame     -11.566  14.476  73.306  0.00  0.00     0.036 H 
ATOM     79  H39 non d ame     -11.015  16.095  72.507  0.00  0.00     0.036 H 
ATOM     80  N5  non d ame     -13.957  16.033  73.362  0.00  0.00    -0.049 N 
ATOM     81  H40 non d ame     -12.344  15.567  74.674  0.00  0.00     0.075 H 
ATOM     82  H41 non d ame     -12.158  17.138  73.642  0.00  0.00     0.075 H 
ATOM     83  C28 non d ame     -13.996  15.506  71.836  0.00  0.00     0.193 C 
ATOM     84  H42 non d ame     -14.371  15.328  73.956  0.00  0.00     0.280 HD
ATOM     85  H43 non d ame     -14.307  16.980  73.384  0.00  0.00     0.280 HD
ATOM     86  H44 non d ame     -14.200  16.196  71.018  0.00  0.00     0.129 H 
ATOM     87  H37 non d ame     -12.681  15.750  70.645  0.00  0.00     0.046 H 
BRANCH  83  88
ATOM     88  O6  non d ame     -14.957  14.458  71.701  0.00  0.00    -0.369 OA
ATOM     89  H45 non d ame     -15.413  14.332  72.536  0.00  0.00     0.212 HD
ENDBRANCH  83  88
ENDBRANCH  72  75
ENDBRANCH  47  72
ENDBRANCH  45  47
ENDBRANCH   1  43
BRANCH   1  90
ATOM     90  C16 non d ame     -10.401   9.258  71.121  0.00  0.00    -0.035 C 
ATOM     91  H21 non d ame      -9.370   8.913  71.208  0.00  0.00     0.037 H 
ATOM     92  H22 non d ame     -10.728  10.141  71.670  0.00  0.00     0.037 H 
BRANCH  90  93
ATOM     93  C17 non d ame     -11.302   8.078  71.606  0.00  0.00    -0.059 C 
ATOM     94  H23 non d ame     -10.773   7.566  72.409  0.00  0.00     0.038 H 
BRANCH  93  95
ATOM     95  C18 non d ame     -12.668   8.577  72.178  0.00  0.00    -0.073 C 
ATOM     96  H24 non d ame     -13.310   7.721  72.383  0.00  0.00     0.028 H 
ATOM     97  H25 non d ame     -12.494   9.131  73.101  0.00  0.00     0.028 H 
ATOM     98  H26 non d ame     -13.151   9.228  71.450  0.00  0.00     0.028 H 
ENDBRANCH  93  95
BRANCH  93  99
ATOM     99  C19 non d ame     -11.521   7.061  70.484  0.00  0.00    -0.073 C 
ATOM    100  H27 non d ame     -10.994   7.389  69.587  0.00  0.00     0.028 H 
ATOM    101  H28 non d ame     -11.138   6.088  70.795  0.00  0.00     0.028 H 
ATOM    102  H29 non d ame     -12.587   6.979  70.270  0.00  0.00     0.028 H 
ENDBRANCH  93  99
ENDBRANCH  90  93
ENDBRANCH   1  90
TORSDOF 26
ENDMDL
MODEL 3
REMARK VINA RESULT:      -6.7      2.038     10.544
REMARK  26 active torsions:
REMARK  status: ('A' for Active; 'I' for Inactive)
REMARK    1  A    between atoms: C2_2  and  C3_3 
REMARK    2  A    between atoms: C4_6  and  C5_7 
REMARK       I    between atoms: C5_7  and  N2_9 
REMARK    3  A    between atoms: N2_9  and  C6_10 
REMARK    4  A    between atoms: C6_10  and  C7_11 
REMARK    5  A    between atoms: C6_10  and  C8_13 
REMARK       I    between atoms: C7_11  and  N3_14 
REMARK    6  A    between atoms: N3_14  and  C9_15 
REMARK    7  A    between atoms: C9_15  and  C10_16 
REMARK    8  A    between atoms: C9_15  and  C11_18 
REMARK       I    between atoms: C10_16  and  N4_21 
REMARK    9  A    between atoms: C11_18  and  C12_19 
REMARK   10  A    between atoms: C11_18  and  C13_20 
REMARK   11  A    between atoms: N4_21  and  C14_22 
REMARK   12  A    between atoms: C14_22  and  C15_23 
REMARK   13  A    between atoms: C14_22  and  C16_25 
REMARK       I    between atoms: C15_23  and  N6_40 
REMARK   14  A    between atoms: C16_25  and  C17_26 
REMARK   15  A    between atoms: C17_26  and  C18_27 
REMARK   16  A    between atoms: C17_26  and  C19_28 
REMARK   17  A    between atoms: C20_29  and  C21_30 
REMARK   18  A    between atoms: C20_29  and  C24_33 
REMARK   19  A    between atoms: C20_29  and  N6_40 
REMARK   20  A    between atoms: C21_30  and  C22_31 
REMARK   21  A    between atoms: C22_31  and  C23_32 
REMARK   22  A    between atoms: C23_32  and  O8_43 
REMARK   23  A    between atoms: C24_33  and  C25_34 
REMARK   24  A    between atoms: C28_38  and  O6_39 
REMARK   25  A    between atoms: C29_42  and  O8_43 
REMARK   26  A    between atoms: C29_42  and  C35_49 
ROOT
ATOM      1  C14 non d ame     -10.002  10.416  64.545  0.00  0.00     0.089 C 
ATOM      2  H20 non d ame     -11.069  10.222  64.656  0.00  0.00     0.087 H 
ENDROOT
BRANCH   1   3
ATOM      3  N4  non d ame      -9.470  10.709  65.868  0.00  0.00    -0.346 N 
ATOM      4  C10 non d ame     -10.398  10.843  67.049  0.00  0.00     0.241 C 
ATOM      5  O4  non d ame     -11.569  10.714  66.910  0.00  0.00    -0.271 OA
ATOM      6  H19 non d ame      -8.470  10.818  65.965  0.00  0.00     0.163 HD
BRANCH   4   7
ATOM      7  C9  non d ame      -9.829  11.140  68.412  0.00  0.00     0.092 C 
ATOM      8  H11 non d ame      -8.746  11.018  68.383  0.00  0.00     0.088 H 
BRANCH   7   9
ATOM      9  N3  non d ame     -10.099  12.539  68.760  0.00  0.00    -0.346 N 
ATOM     10  C7  non d ame      -9.341  13.595  68.136  0.00  0.00     0.240 C 
ATOM     11  O3  non d ame      -8.509  13.338  67.354  0.00  0.00    -0.271 OA
ATOM     12  H10 non d ame     -10.812  12.776  69.434  0.00  0.00     0.163 HD
BRANCH  10  13
ATOM     13  C6  non d ame      -9.630  15.082  68.513  0.00  0.00     0.086 C 
ATOM     14  H6  non d ame     -10.317  15.566  67.819  0.00  0.00     0.086 H 
BRANCH  13  15
ATOM     15  N2  non d ame     -10.263  15.122  69.821  0.00  0.00    -0.343 N 
ATOM     16  C5  non d ame     -11.624  15.646  69.948  0.00  0.00     0.273 C 
ATOM     17  O2  non d ame     -12.201  16.035  68.993  0.00  0.00    -0.266 OA
ATOM     18  H5  non d ame      -9.761  14.789  70.633  0.00  0.00     0.163 HD
BRANCH  16  19
ATOM     19  C4  non d ame     -12.306  15.693  71.325  0.00  0.00     0.154 A 
ATOM     20  C1  non d ame     -11.670  15.827  72.600  0.00  0.00    -0.017 A 
ATOM     21  C2  non d ame     -12.728  15.817  73.536  0.00  0.00     0.077 A 
ATOM     22  H1  non d ame     -10.605  15.918  72.813  0.00  0.00     0.091 H 
ATOM     23  O1  non d ame     -13.837  15.693  72.866  0.00  0.00    -0.218 OA
ATOM     24  N1  non d ame     -13.616  15.618  71.574  0.00  0.00    -0.123 NA
BRANCH  21  25
ATOM     25  C3  non d ame     -12.595  15.932  75.049  0.00  0.00    -0.029 C 
ATOM     26  H2  non d ame     -12.561  16.984  75.332  0.00  0.00     0.036 H 
ATOM     27  H3  non d ame     -13.450  15.454  75.526  0.00  0.00     0.036 H 
ATOM     28  H4  non d ame     -11.677  15.440  75.371  0.00  0.00     0.036 H 
ENDBRANCH  21  25
ENDBRANCH  16  19
ENDBRANCH  13  15
BRANCH  13  29
ATOM     29  C8  non d ame      -8.338  15.857  68.540  0.00  0.00    -0.049 C 
ATOM     30  H7  non d ame      -8.322  16.507  69.415  0.00  0.00     0.030 H 
ATOM     31  H8  non d ame      -7.498  15.163  68.587  0.00  0.00     0.030 H 
ATOM     32  H9  non d ame      -8.259  16.463  67.637  0.00  0.00     0.030 H 
ENDBRANCH  13  29
ENDBRANCH  10  13
ENDBRANCH   7   9
BRANCH   7  33
ATOM     33  C11 non d ame     -10.496  10.209  69.466  0.00  0.00    -0.033 C 
ATOM     34  H12 non d ame     -11.011   9.415  68.925  0.00  0.00     0.042 H 
BRANCH  33  35
ATOM     35  C12 non d ame      -9.429   9.534  70.384  0.00  0.00    -0.071 C 
ATOM     36  H13 non d ame      -9.536   8.451  70.331  0.00  0.00     0.028 H 
ATOM     37  H14 non d ame      -8.431   9.817  70.049  0.00  0.00     0.028 H 
ATOM     38  H15 non d ame      -9.574   9.864  71.412  0.00  0.00     0.028 H 
ENDBRANCH  33  35
BRANCH  33  39
ATOM     39  C13 non d ame     -11.557  10.986  70.309  0.00  0.00    -0.071 C 
ATOM     40  H16 non d ame     -11.054  11.561  71.086  0.00  0.00     0.028 H 
ATOM     41  H17 non d ame     -12.112  11.664  69.659  0.00  0.00     0.028 H 
ATOM     42  H18 non d ame     -12.246  10.278  70.768  0.00  0.00     0.028 H 
ENDBRANCH  33  39
ENDBRANCH   7  33
ENDBRANCH   4   7
ENDBRANCH   1   3
BRANCH   1  43
ATOM     43  C15 non d ame      -9.239   9.192  63.964  0.00  0.00     0.240 C 
ATOM     44  O5  non d ame      -8.983   9.151  62.804  0.00  0.00    -0.271 OA
ATOM     45  N6  non d ame      -8.819   8.073  64.856  0.00  0.00    -0.355 N 
ATOM     46  H46 non d ame      -9.027   8.099  65.844  0.00  0.00     0.162 HD
BRANCH  45  47
ATOM     47  C20 non d ame      -8.093   6.917  64.288  0.00  0.00     0.013 C 
ATOM     48  H30 non d ame      -8.304   6.880  63.220  0.00  0.00     0.072 H 
BRANCH  47  49
ATOM     49  C21 non d ame      -8.575   5.648  64.955  0.00  0.00    -0.038 C 
ATOM     50  H31 non d ame      -9.249   5.177  64.239  0.00  0.00     0.036 H 
ATOM     51  H32 non d ame      -7.675   5.127  65.281  0.00  0.00     0.036 H 
BRANCH  49  52
ATOM     52  C22 non d ame      -9.409   5.918  66.226  0.00  0.00     0.018 C 
ATOM     53  H33 non d ame      -9.287   6.981  66.439  0.00  0.00     0.048 H 
ATOM     54  H34 non d ame     -10.400   5.514  66.020  0.00  0.00     0.048 H 
BRANCH  52  55
ATOM     55  C23 non d ame      -8.893   5.167  67.485  0.00  0.00     0.259 C 
ATOM     56  O7  non d ame      -8.259   4.168  67.373  0.00  0.00    -0.265 OA
BRANCH  55  57
ATOM     57  O8  non d ame      -9.198   5.680  68.776  0.00  0.00    -0.317 OA
BRANCH  57  58
ATOM     58  C29 non d ame     -10.452   5.233  69.299  0.00  0.00     0.052 C 
ATOM     59  H47 non d ame     -11.195   5.489  68.544  0.00  0.00     0.082 H 
ATOM     60  H48 non d ame     -10.299   4.191  69.581  0.00  0.00     0.082 H 
BRANCH  58  61
ATOM     61  C35 non d ame     -10.754   6.050  70.584  0.00  0.00    -0.034 A 
ATOM     62  C30 non d ame      -9.848   6.047  71.640  0.00  0.00    -0.075 A 
ATOM     63  C31 non d ame     -10.120   6.781  72.794  0.00  0.00    -0.082 A 
ATOM     64  H49 non d ame      -8.926   5.471  71.564  0.00  0.00     0.084 H 
ATOM     65  C32 non d ame     -11.303   7.517  72.890  0.00  0.00    -0.083 A 
ATOM     66  H50 non d ame      -9.407   6.779  73.619  0.00  0.00     0.083 H 
ATOM     67  C33 non d ame     -12.205   7.514  71.835  0.00  0.00    -0.082 A 
ATOM     68  H51 non d ame     -11.523   8.094  73.789  0.00  0.00     0.083 H 
ATOM     69  C34 non d ame     -11.937   6.784  70.679  0.00  0.00    -0.075 A 
ATOM     70  H52 non d ame     -13.129   8.088  71.914  0.00  0.00     0.083 H 
ATOM     71  H53 non d ame     -12.650   6.787  69.854  0.00  0.00     0.084 H 
ENDBRANCH  58  61
ENDBRANCH  57  58
ENDBRANCH  55  57
ENDBRANCH  52  55
ENDBRANCH  49  52
ENDBRANCH  47  49
BRANCH  47  72
ATOM     72  C24 non d ame      -6.593   7.080  64.528  0.00  0.00    -0.039 C 
ATOM     73  H35 non d ame      -6.158   7.245  63.541  0.00  0.00     0.036 H 
ATOM     74  H36 non d ame      -6.504   7.847  65.297  0.00  0.00     0.036 H 
BRANCH  72  75
ATOM     75  C25 non d ame      -5.937   5.742  65.115  0.00  0.00    -0.001 C 
ATOM     76  C26 non d ame      -5.289   6.040  66.597  0.00  0.00    -0.035 C 
ATOM     77  C27 non d ame      -4.010   5.593  66.611  0.00  0.00     0.085 C 
ATOM     78  H38 non d ame      -5.185   7.114  66.750  0.00  0.00     0.036 H 
ATOM     79  H39 non d ame      -5.782   5.427  67.351  0.00  0.00     0.036 H 
ATOM     80  N5  non d ame      -3.623   5.316  65.179  0.00  0.00    -0.049 N 
ATOM     81  H40 non d ame      -3.414   6.427  66.986  0.00  0.00     0.075 H 
ATOM     82  H41 non d ame      -4.037   4.653  67.161  0.00  0.00     0.075 H 
ATOM     83  C28 non d ame      -5.003   5.300  64.341  0.00  0.00     0.193 C 
ATOM     84  H42 non d ame      -3.071   6.104  64.874  0.00  0.00     0.280 HD
ATOM     85  H43 non d ame      -3.228   4.386  65.164  0.00  0.00     0.280 HD
ATOM     86  H44 non d ame      -5.444   4.357  64.017  0.00  0.00     0.129 H 
ATOM     87  H37 non d ame      -6.604   4.884  65.029  0.00  0.00     0.046 H 
BRANCH  83  88
ATOM     88  O6  non d ame      -4.869   6.086  63.156  0.00  0.00    -0.369 OA
ATOM     89  H45 non d ame      -5.431   6.862  63.221  0.00  0.00     0.212 HD
ENDBRANCH  83  88
ENDBRANCH  72  75
ENDBRANCH  47  72
ENDBRANCH  45  47
ENDBRANCH   1  43
BRANCH   1  90
ATOM     90  C16 non d ame      -9.790  11.624  63.647  0.00  0.00    -0.035 C 
ATOM     91  H21 non d ame      -8.988  12.196  64.116  0.00  0.00     0.037 H 
ATOM     92  H22 non d ame      -9.654  11.218  62.644  0.00  0.00     0.037 H 
BRANCH  90  93
ATOM     93  C17 non d ame     -11.026  12.576  63.574  0.00  0.00    -0.059 C 
ATOM     94  H23 non d ame     -10.970  13.120  62.631  0.00  0.00     0.038 H 
BRANCH  93  95
ATOM     95  C18 non d ame     -12.376  11.791  63.592  0.00  0.00    -0.073 C 
ATOM     96  H24 non d ame     -12.920  12.024  64.507  0.00  0.00     0.028 H 
ATOM     97  H25 non d ame     -12.976  12.080  62.729  0.00  0.00     0.028 H 
ATOM     98  H26 non d ame     -12.174  10.720  63.551  0.00  0.00     0.028 H 
ENDBRANCH  93  95
BRANCH  93  99
ATOM     99  C19 non d ame     -10.985  13.613  64.700  0.00  0.00    -0.073 C 
ATOM    100  H27 non d ame     -11.043  14.615  64.274  0.00  0.00     0.028 H 
ATOM    101  H28 non d ame     -11.829  13.454  65.371  0.00  0.00     0.028 H 
ATOM    102  H29 non d ame     -10.053  13.508  65.256  0.00  0.00     0.028 H 
ENDBRANCH  93  99
ENDBRANCH  90  93
ENDBRANCH   1  90
TORSDOF 26
ENDMDL
MODEL 4
REMARK VINA RESULT:      -6.6      3.760      8.395
REMARK  26 active torsions:
REMARK  status: ('A' for Active; 'I' for Inactive)
REMARK    1  A    between atoms: C2_2  and  C3_3 
REMARK    2  A    between atoms: C4_6  and  C5_7 
REMARK       I    between atoms: C5_7  and  N2_9 
REMARK    3  A    between atoms: N2_9  and  C6_10 
REMARK    4  A    between atoms: C6_10  and  C7_11 
REMARK    5  A    between atoms: C6_10  and  C8_13 
REMARK       I    between atoms: C7_11  and  N3_14 
REMARK    6  A    between atoms: N3_14  and  C9_15 
REMARK    7  A    between atoms: C9_15  and  C10_16 
REMARK    8  A    between atoms: C9_15  and  C11_18 
REMARK       I    between atoms: C10_16  and  N4_21 
REMARK    9  A    between atoms: C11_18  and  C12_19 
REMARK   10  A    between atoms: C11_18  and  C13_20 
REMARK   11  A    between atoms: N4_21  and  C14_22 
REMARK   12  A    between atoms: C14_22  and  C15_23 
REMARK   13  A    between atoms: C14_22  and  C16_25 
REMARK       I    between atoms: C15_23  and  N6_40 
REMARK   14  A    between atoms: C16_25  and  C17_26 
REMARK   15  A    between atoms: C17_26  and  C18_27 
REMARK   16  A    between atoms: C17_26  and  C19_28 
REMARK   17  A    between atoms: C20_29  and  C21_30 
REMARK   18  A    between atoms: C20_29  and  C24_33 
REMARK   19  A    between atoms: C20_29  and  N6_40 
REMARK   20  A    between atoms: C21_30  and  C22_31 
REMARK   21  A    between atoms: C22_31  and  C23_32 
REMARK   22  A    between atoms: C23_32  and  O8_43 
REMARK   23  A    between atoms: C24_33  and  C25_34 
REMARK   24  A    between atoms: C28_38  and  O6_39 
REMARK   25  A    between atoms: C29_42  and  O8_43 
REMARK   26  A    between atoms: C29_42  and  C35_49 
ROOT
ATOM      1  C14 non d ame      -6.599  15.836  67.567  0.00  0.00     0.089 C 
ATOM      2  H20 non d ame      -5.992  16.276  66.775  0.00  0.00     0.087 H 
ENDROOT
BRANCH   1   3
ATOM      3  N4  non d ame      -7.996  16.030  67.210  0.00  0.00    -0.346 N 
ATOM      4  C10 non d ame      -8.411  17.216  66.376  0.00  0.00     0.241 C 
ATOM      5  O4  non d ame      -7.603  18.003  66.008  0.00  0.00    -0.271 OA
ATOM      6  H19 non d ame      -8.668  15.350  67.535  0.00  0.00     0.163 HD
BRANCH   4   7
ATOM      7  C9  non d ame      -9.861  17.398  66.011  0.00  0.00     0.092 C 
ATOM      8  H11 non d ame      -9.926  17.907  65.049  0.00  0.00     0.088 H 
BRANCH   7   9
ATOM      9  N3  non d ame     -10.494  16.086  65.851  0.00  0.00    -0.346 N 
ATOM     10  C7  non d ame     -11.321  15.820  64.700  0.00  0.00     0.240 C 
ATOM     11  O3  non d ame     -11.489  16.651  63.893  0.00  0.00    -0.271 OA
ATOM     12  H10 non d ame     -10.359  15.359  66.540  0.00  0.00     0.163 HD
BRANCH  10  13
ATOM     13  C6  non d ame     -11.995  14.422  64.538  0.00  0.00     0.086 C 
ATOM     14  H6  non d ame     -12.648  14.367  63.668  0.00  0.00     0.086 H 
BRANCH  13  15
ATOM     15  N2  non d ame     -10.960  13.419  64.344  0.00  0.00    -0.343 N 
ATOM     16  C5  non d ame     -11.288  12.166  63.661  0.00  0.00     0.273 C 
ATOM     17  O2  non d ame     -12.388  11.973  63.274  0.00  0.00    -0.266 OA
ATOM     18  H5  non d ame     -10.023  13.592  64.681  0.00  0.00     0.163 HD
BRANCH  16  19
ATOM     19  C4  non d ame     -10.204  11.099  63.448  0.00  0.00     0.154 A 
ATOM     20  C1  non d ame      -9.804  10.077  64.366  0.00  0.00    -0.017 A 
ATOM     21  C2  non d ame      -8.783   9.366  63.697  0.00  0.00     0.077 A 
ATOM     22  H1  non d ame     -10.195   9.881  65.365  0.00  0.00     0.091 H 
ATOM     23  O1  non d ame      -8.624   9.921  62.532  0.00  0.00    -0.218 OA
ATOM     24  N1  non d ame      -9.441  10.935  62.363  0.00  0.00    -0.123 NA
BRANCH  21  25
ATOM     25  C3  non d ame      -8.013   8.169  64.240  0.00  0.00    -0.029 C 
ATOM     26  H2  non d ame      -8.005   7.373  63.496  0.00  0.00     0.036 H 
ATOM     27  H3  non d ame      -6.988   8.468  64.463  0.00  0.00     0.036 H 
ATOM     28  H4  non d ame      -8.493   7.811  65.151  0.00  0.00     0.036 H 
ENDBRANCH  21  25
ENDBRANCH  16  19
ENDBRANCH  13  15
BRANCH  13  29
ATOM     29  C8  non d ame     -12.799  14.102  65.772  0.00  0.00    -0.049 C 
ATOM     30  H7  non d ame     -13.786  14.556  65.691  0.00  0.00     0.030 H 
ATOM     31  H8  non d ame     -12.902  13.021  65.869  0.00  0.00     0.030 H 
ATOM     32  H9  non d ame     -12.289  14.498  66.650  0.00  0.00     0.030 H 
ENDBRANCH  13  29
ENDBRANCH  10  13
ENDBRANCH   7   9
BRANCH   7  33
ATOM     33  C11 non d ame     -10.585  18.187  67.140  0.00  0.00    -0.033 C 
ATOM     34  H12 non d ame     -11.636  17.899  67.120  0.00  0.00     0.042 H 
BRANCH  33  35
ATOM     35  C12 non d ame     -10.023  17.811  68.547  0.00  0.00    -0.071 C 
ATOM     36  H13 non d ame     -10.849  17.697  69.249  0.00  0.00     0.028 H 
ATOM     37  H14 non d ame      -9.473  16.872  68.479  0.00  0.00     0.028 H 
ATOM     38  H15 non d ame      -9.357  18.599  68.894  0.00  0.00     0.028 H 
ENDBRANCH  33  35
BRANCH  33  39
ATOM     39  C13 non d ame     -10.501  19.727  66.890  0.00  0.00    -0.071 C 
ATOM     40  H16 non d ame      -9.501  20.081  67.138  0.00  0.00     0.028 H 
ATOM     41  H17 non d ame     -10.711  19.937  65.841  0.00  0.00     0.028 H 
ATOM     42  H18 non d ame     -11.233  20.237  67.516  0.00  0.00     0.028 H 
ENDBRANCH  33  39
ENDBRANCH   7  33
ENDBRANCH   4   7
ENDBRANCH   1   3
BRANCH   1  43
ATOM     43  C15 non d ame      -6.336  14.311  67.730  0.00  0.00     0.240 C 
ATOM     44  O5  non d ame      -5.293  13.852  67.393  0.00  0.00    -0.271 OA
ATOM     45  N6  non d ame      -7.382  13.424  68.313  0.00  0.00    -0.355 N 
ATOM     46  H46 non d ame      -8.271  13.804  68.608  0.00  0.00     0.162 HD
BRANCH  45  47
ATOM     47  C20 non d ame      -7.117  11.977  68.462  0.00  0.00     0.013 C 
ATOM     48  H30 non d ame      -6.413  11.683  67.684  0.00  0.00     0.072 H 
BRANCH  47  49
ATOM     49  C21 non d ame      -8.412  11.213  68.304  0.00  0.00    -0.038 C 
ATOM     50  H31 non d ame      -8.234  10.494  67.504  0.00  0.00     0.036 H 
ATOM     51  H32 non d ame      -8.671  10.863  69.304  0.00  0.00     0.036 H 
BRANCH  49  52
ATOM     52  C22 non d ame      -9.582  12.106  67.837  0.00  0.00     0.018 C 
ATOM     53  H33 non d ame      -9.432  13.069  68.325  0.00  0.00     0.048 H 
ATOM     54  H34 non d ame      -9.586  12.041  66.749  0.00  0.00     0.048 H 
BRANCH  52  55
ATOM     55  C23 non d ame     -10.977  11.603  68.301  0.00  0.00     0.259 C 
ATOM     56  O7  non d ame     -11.285  10.464  68.161  0.00  0.00    -0.265 OA
BRANCH  55  57
ATOM     57  O8  non d ame     -11.890  12.524  68.885  0.00  0.00    -0.317 OA
BRANCH  57  58
ATOM     58  C29 non d ame     -11.311  13.791  69.211  0.00  0.00     0.052 C 
ATOM     59  H47 non d ame     -10.247  13.601  69.353  0.00  0.00     0.082 H 
ATOM     60  H48 non d ame     -11.643  14.476  68.432  0.00  0.00     0.082 H 
BRANCH  58  61
ATOM     61  C35 non d ame     -11.911  14.257  70.565  0.00  0.00    -0.034 A 
ATOM     62  C30 non d ame     -11.519  15.471  71.119  0.00  0.00    -0.075 A 
ATOM     63  C31 non d ame     -12.057  15.890  72.335  0.00  0.00    -0.082 A 
ATOM     64  H49 non d ame     -10.789  16.094  70.601  0.00  0.00     0.084 H 
ATOM     65  C32 non d ame     -12.991  15.089  72.998  0.00  0.00    -0.083 A 
ATOM     66  H50 non d ame     -11.750  16.843  72.766  0.00  0.00     0.083 H 
ATOM     67  C33 non d ame     -13.377  13.877  72.442  0.00  0.00    -0.082 A 
ATOM     68  H51 non d ame     -13.418  15.409  73.948  0.00  0.00     0.083 H 
ATOM     69  C34 non d ame     -12.843  13.455  71.226  0.00  0.00    -0.075 A 
ATOM     70  H52 non d ame     -14.104  13.252  72.963  0.00  0.00     0.083 H 
ATOM     71  H53 non d ame     -13.152  12.502  70.796  0.00  0.00     0.084 H 
ENDBRANCH  58  61
ENDBRANCH  57  58
ENDBRANCH  55  57
ENDBRANCH  52  55
ENDBRANCH  49  52
ENDBRANCH  47  49
BRANCH  47  72
ATOM     72  C24 non d ame      -6.526  11.700  69.843  0.00  0.00    -0.039 C 
ATOM     73  H35 non d ame      -6.552  12.656  70.367  0.00  0.00     0.036 H 
ATOM     74  H36 non d ame      -7.086  10.850  70.233  0.00  0.00     0.036 H 
BRANCH  72  75
ATOM     75  C25 non d ame      -4.991  11.252  69.752  0.00  0.00    -0.001 C 
ATOM     76  C26 non d ame      -4.725  10.448  68.342  0.00  0.00    -0.035 C 
ATOM     77  C27 non d ame      -4.110   9.273  68.619  0.00  0.00     0.085 C 
ATOM     78  H38 non d ame      -5.673  10.142  67.902  0.00  0.00     0.036 H 
ATOM     79  H39 non d ame      -3.992  10.984  67.739  0.00  0.00     0.036 H 
ATOM     80  N5  non d ame      -4.226   9.054  70.108  0.00  0.00    -0.049 N 
ATOM     81  H40 non d ame      -4.692   8.510  68.101  0.00  0.00     0.075 H 
ATOM     82  H41 non d ame      -3.062   9.426  68.364  0.00  0.00     0.075 H 
ATOM     83  C28 non d ame      -4.671  10.475  70.733  0.00  0.00     0.193 C 
ATOM     84  H42 non d ame      -4.978   8.394  70.243  0.00  0.00     0.280 HD
ATOM     85  H43 non d ame      -3.297   8.835  70.439  0.00  0.00     0.280 HD
ATOM     86  H44 non d ame      -3.948  11.102  71.254  0.00  0.00     0.129 H 
ATOM     87  H37 non d ame      -4.308  12.066  69.995  0.00  0.00     0.046 H 
BRANCH  83  88
ATOM     88  O6  non d ame      -5.751  10.293  71.650  0.00  0.00    -0.369 OA
ATOM     89  H45 non d ame      -6.509   9.933  71.185  0.00  0.00     0.212 HD
ENDBRANCH  83  88
ENDBRANCH  72  75
ENDBRANCH  47  72
ENDBRANCH  45  47
ENDBRANCH   1  43
BRANCH   1  90
ATOM     90  C16 non d ame      -6.320  16.545  68.883  0.00  0.00    -0.035 C 
ATOM     91  H21 non d ame      -7.087  17.317  68.963  0.00  0.00     0.037 H 
ATOM     92  H22 non d ame      -6.263  15.754  69.631  0.00  0.00     0.037 H 
BRANCH  90  93
ATOM     93  C17 non d ame      -4.945  17.285  68.917  0.00  0.00    -0.059 C 
ATOM     94  H23 non d ame      -4.244  16.655  69.465  0.00  0.00     0.038 H 
BRANCH  93  95
ATOM     95  C18 non d ame      -4.362  17.512  67.485  0.00  0.00    -0.073 C 
ATOM     96  H24 non d ame      -4.408  16.580  66.923  0.00  0.00     0.028 H 
ATOM     97  H25 non d ame      -4.947  18.276  66.972  0.00  0.00     0.028 H 
ATOM     98  H26 non d ame      -3.325  17.840  67.563  0.00  0.00     0.028 H 
ENDBRANCH  93  95
BRANCH  93  99
ATOM     99  C19 non d ame      -5.055  18.609  69.677  0.00  0.00    -0.073 C 
ATOM    100  H27 non d ame      -6.030  18.671  70.161  0.00  0.00     0.028 H 
ATOM    101  H28 non d ame      -4.270  18.661  70.432  0.00  0.00     0.028 H 
ATOM    102  H29 non d ame      -4.942  19.439  68.979  0.00  0.00     0.028 H 
ENDBRANCH  93  99
ENDBRANCH  90  93
ENDBRANCH   1  90
TORSDOF 26
ENDMDL
MODEL 5
REMARK VINA RESULT:      -6.6      3.055      9.340
REMARK  26 active torsions:
REMARK  status: ('A' for Active; 'I' for Inactive)
REMARK    1  A    between atoms: C2_2  and  C3_3 
REMARK    2  A    between atoms: C4_6  and  C5_7 
REMARK       I    between atoms: C5_7  and  N2_9 
REMARK    3  A    between atoms: N2_9  and  C6_10 
REMARK    4  A    between atoms: C6_10  and  C7_11 
REMARK    5  A    between atoms: C6_10  and  C8_13 
REMARK       I    between atoms: C7_11  and  N3_14 
REMARK    6  A    between atoms: N3_14  and  C9_15 
REMARK    7  A    between atoms: C9_15  and  C10_16 
REMARK    8  A    between atoms: C9_15  and  C11_18 
REMARK       I    between atoms: C10_16  and  N4_21 
REMARK    9  A    between atoms: C11_18  and  C12_19 
REMARK   10  A    between atoms: C11_18  and  C13_20 
REMARK   11  A    between atoms: N4_21  and  C14_22 
REMARK   12  A    between atoms: C14_22  and  C15_23 
REMARK   13  A    between atoms: C14_22  and  C16_25 
REMARK       I    between atoms: C15_23  and  N6_40 
REMARK   14  A    between atoms: C16_25  and  C17_26 
REMARK   15  A    between atoms: C17_26  and  C18_27 
REMARK   16  A    between atoms: C17_26  and  C19_28 
REMARK   17  A    between atoms: C20_29  and  C21_30 
REMARK   18  A    between atoms: C20_29  and  C24_33 
REMARK   19  A    between atoms: C20_29  and  N6_40 
REMARK   20  A    between atoms: C21_30  and  C22_31 
REMARK   21  A    between atoms: C22_31  and  C23_32 
REMARK   22  A    between atoms: C23_32  and  O8_43 
REMARK   23  A    between atoms: C24_33  and  C25_34 
REMARK   24  A    between atoms: C28_38  and  O6_39 
REMARK   25  A    between atoms: C29_42  and  O8_43 
REMARK   26  A    between atoms: C29_42  and  C35_49 
ROOT
ATOM      1  C14 non d ame      -8.655   6.412  65.152  0.00  0.00     0.089 C 
ATOM      2  H20 non d ame      -9.101   6.404  64.157  0.00  0.00     0.087 H 
ENDROOT
BRANCH   1   3
ATOM      3  N4  non d ame      -8.493   7.803  65.549  0.00  0.00    -0.346 N 
ATOM      4  C10 non d ame      -8.401   8.887  64.504  0.00  0.00     0.241 C 
ATOM      5  O4  non d ame      -8.456   8.615  63.350  0.00  0.00    -0.271 OA
ATOM      6  H19 non d ame      -8.447   8.014  66.536  0.00  0.00     0.163 HD
BRANCH   4   7
ATOM      7  C9  non d ame      -8.240  10.322  64.933  0.00  0.00     0.092 C 
ATOM      8  H11 non d ame      -7.753  10.882  64.134  0.00  0.00     0.088 H 
BRANCH   7   9
ATOM      9  N3  non d ame      -9.562  10.922  65.139  0.00  0.00    -0.346 N 
ATOM     10  C7  non d ame     -10.209  11.627  64.060  0.00  0.00     0.240 C 
ATOM     11  O3  non d ame      -9.681  11.722  63.020  0.00  0.00    -0.271 OA
ATOM     12  H10 non d ame     -10.029  10.850  66.032  0.00  0.00     0.163 HD
BRANCH  10  13
ATOM     13  C6  non d ame     -11.615  12.266  64.287  0.00  0.00     0.086 C 
ATOM     14  H6  non d ame     -12.047  12.003  65.252  0.00  0.00     0.086 H 
BRANCH  13  15
ATOM     15  N2  non d ame     -11.482  13.713  64.272  0.00  0.00    -0.343 N 
ATOM     16  C5  non d ame     -10.973  14.404  65.459  0.00  0.00     0.273 C 
ATOM     17  O2  non d ame     -10.675  13.786  66.422  0.00  0.00    -0.266 OA
ATOM     18  H5  non d ame     -11.742  14.234  63.446  0.00  0.00     0.163 HD
BRANCH  16  19
ATOM     19  C4  non d ame     -10.826  15.933  65.456  0.00  0.00     0.154 A 
ATOM     20  C1  non d ame     -10.228  16.747  66.471  0.00  0.00    -0.017 A 
ATOM     21  C2  non d ame     -10.345  18.070  65.991  0.00  0.00     0.077 A 
ATOM     22  H1  non d ame      -9.779  16.426  67.410  0.00  0.00     0.091 H 
ATOM     23  O1  non d ame     -10.940  18.013  64.836  0.00  0.00    -0.218 OA
ATOM     24  N1  non d ame     -11.231  16.777  64.502  0.00  0.00    -0.123 NA
BRANCH  21  25
ATOM     25  C3  non d ame      -9.862  19.331  66.697  0.00  0.00    -0.029 C 
ATOM     26  H2  non d ame      -9.091  19.069  67.421  0.00  0.00     0.036 H 
ATOM     27  H3  non d ame      -9.452  20.023  65.962  0.00  0.00     0.036 H 
ATOM     28  H4  non d ame     -10.700  19.802  67.212  0.00  0.00     0.036 H 
ENDBRANCH  21  25
ENDBRANCH  16  19
ENDBRANCH  13  15
BRANCH  13  29
ATOM     29  C8  non d ame     -12.554  11.822  63.195  0.00  0.00    -0.049 C 
ATOM     30  H7  non d ame     -13.253  12.626  62.967  0.00  0.00     0.030 H 
ATOM     31  H8  non d ame     -11.981  11.574  62.302  0.00  0.00     0.030 H 
ATOM     32  H9  non d ame     -13.108  10.944  63.528  0.00  0.00     0.030 H 
ENDBRANCH  13  29
ENDBRANCH  10  13
ENDBRANCH   7   9
BRANCH   7  33
ATOM     33  C11 non d ame      -7.434  10.379  66.264  0.00  0.00    -0.033 C 
ATOM     34  H12 non d ame      -7.797   9.573  66.902  0.00  0.00     0.042 H 
BRANCH  33  35
ATOM     35  C12 non d ame      -5.913  10.133  66.018  0.00  0.00    -0.071 C 
ATOM     36  H13 non d ame      -5.381  11.084  66.050  0.00  0.00     0.028 H 
ATOM     37  H14 non d ame      -5.522   9.473  66.792  0.00  0.00     0.028 H 
ATOM     38  H15 non d ame      -5.773   9.671  65.041  0.00  0.00     0.028 H 
ENDBRANCH  33  35
BRANCH  33  39
ATOM     39  C13 non d ame      -7.676  11.732  67.007  0.00  0.00    -0.071 C 
ATOM     40  H16 non d ame      -8.628  12.156  66.689  0.00  0.00     0.028 H 
ATOM     41  H17 non d ame      -7.698  11.556  68.083  0.00  0.00     0.028 H 
ATOM     42  H18 non d ame      -6.871  12.426  66.768  0.00  0.00     0.028 H 
ENDBRANCH  33  39
ENDBRANCH   7  33
ENDBRANCH   4   7
ENDBRANCH   1   3
BRANCH   1  43
ATOM     43  C15 non d ame      -9.551   5.698  66.204  0.00  0.00     0.240 C 
ATOM     44  O5  non d ame     -10.390   4.937  65.846  0.00  0.00    -0.271 OA
ATOM     45  N6  non d ame      -9.357   5.957  67.659  0.00  0.00    -0.355 N 
ATOM     46  H46 non d ame      -8.645   6.599  67.976  0.00  0.00     0.162 HD
BRANCH  45  47
ATOM     47  C20 non d ame     -10.217   5.269  68.647  0.00  0.00     0.013 C 
ATOM     48  H30 non d ame     -10.846   4.561  68.108  0.00  0.00     0.072 H 
BRANCH  47  49
ATOM     49  C21 non d ame     -11.078   6.290  69.356  0.00  0.00    -0.038 C 
ATOM     50  H31 non d ame     -10.546   7.237  69.268  0.00  0.00     0.036 H 
ATOM     51  H32 non d ame     -12.075   6.182  68.928  0.00  0.00     0.036 H 
BRANCH  49  52
ATOM     52  C22 non d ame     -11.220   6.007  70.868  0.00  0.00     0.018 C 
ATOM     53  H33 non d ame     -11.654   5.009  70.942  0.00  0.00     0.048 H 
ATOM     54  H34 non d ame     -10.239   6.208  71.299  0.00  0.00     0.048 H 
BRANCH  52  55
ATOM     55  C23 non d ame     -12.210   6.960  71.593  0.00  0.00     0.259 C 
ATOM     56  O7  non d ame     -13.370   6.935  71.334  0.00  0.00    -0.265 OA
BRANCH  55  57
ATOM     57  O8  non d ame     -11.714   7.875  72.562  0.00  0.00    -0.317 OA
BRANCH  57  58
ATOM     58  C29 non d ame     -10.523   8.559  72.161  0.00  0.00     0.052 C 
ATOM     59  H47 non d ame     -10.181   9.098  73.045  0.00  0.00     0.082 H 
ATOM     60  H48 non d ame      -9.887   7.801  71.705  0.00  0.00     0.082 H 
BRANCH  58  61
ATOM     61  C35 non d ame     -10.910   9.595  71.073  0.00  0.00    -0.034 A 
ATOM     62  C30 non d ame     -12.061  10.363  71.219  0.00  0.00    -0.075 A 
ATOM     63  C31 non d ame     -12.409  11.293  70.241  0.00  0.00    -0.082 A 
ATOM     64  H49 non d ame     -12.690  10.235  72.100  0.00  0.00     0.084 H 
ATOM     65  C32 non d ame     -11.601  11.453  69.112  0.00  0.00    -0.083 A 
ATOM     66  H50 non d ame     -13.310  11.895  70.360  0.00  0.00     0.083 H 
ATOM     67  C33 non d ame     -10.456  10.682  68.968  0.00  0.00    -0.082 A 
ATOM     68  H51 non d ame     -11.866  12.179  68.343  0.00  0.00     0.083 H 
ATOM     69  C34 non d ame     -10.103   9.753  69.944  0.00  0.00    -0.075 A 
ATOM     70  H52 non d ame      -9.829  10.808  68.085  0.00  0.00     0.083 H 
ATOM     71  H53 non d ame      -9.201   9.152  69.825  0.00  0.00     0.084 H 
ENDBRANCH  58  61
ENDBRANCH  57  58
ENDBRANCH  55  57
ENDBRANCH  52  55
ENDBRANCH  49  52
ENDBRANCH  47  49
BRANCH  47  72
ATOM     72  C24 non d ame      -9.348   4.538  69.667  0.00  0.00    -0.039 C 
ATOM     73  H35 non d ame      -8.339   4.926  69.521  0.00  0.00     0.036 H 
ATOM     74  H36 non d ame      -9.849   4.673  70.625  0.00  0.00     0.036 H 
BRANCH  72  75
ATOM     75  C25 non d ame      -9.294   2.963  69.379  0.00  0.00    -0.001 C 
ATOM     76  C26 non d ame      -9.443   2.130  70.790  0.00  0.00    -0.035 C 
ATOM     77  C27 non d ame      -8.433   1.231  70.875  0.00  0.00     0.085 C 
ATOM     78  H38 non d ame      -9.265   2.794  71.636  0.00  0.00     0.036 H 
ATOM     79  H39 non d ame     -10.337   1.507  70.764  0.00  0.00     0.036 H 
ATOM     80  N5  non d ame      -7.426   1.597  69.811  0.00  0.00    -0.049 N 
ATOM     81  H40 non d ame      -7.986   1.387  71.857  0.00  0.00     0.075 H 
ATOM     82  H41 non d ame      -8.879   0.269  70.625  0.00  0.00     0.075 H 
ATOM     83  C28 non d ame      -8.179   2.627  68.822  0.00  0.00     0.193 C 
ATOM     84  H42 non d ame      -6.680   2.090  70.281  0.00  0.00     0.280 HD
ATOM     85  H43 non d ame      -7.227   0.749  69.301  0.00  0.00     0.280 HD
ATOM     86  H44 non d ame      -8.537   2.296  67.847  0.00  0.00     0.129 H 
ATOM     87  H37 non d ame      -9.950   2.670  68.559  0.00  0.00     0.046 H 
BRANCH  83  88
ATOM     88  O6  non d ame      -7.346   3.757  68.560  0.00  0.00    -0.369 OA
ATOM     89  H45 non d ame      -7.453   4.029  67.646  0.00  0.00     0.212 HD
ENDBRANCH  83  88
ENDBRANCH  72  75
ENDBRANCH  47  72
ENDBRANCH  45  47
ENDBRANCH   1  43
BRANCH   1  90
ATOM     90  C16 non d ame      -7.288   5.747  65.109  0.00  0.00    -0.035 C 
ATOM     91  H21 non d ame      -6.600   6.474  65.542  0.00  0.00     0.037 H 
ATOM     92  H22 non d ame      -7.425   4.776  65.585  0.00  0.00     0.037 H 
BRANCH  90  93
ATOM     93  C17 non d ame      -6.776   5.461  63.662  0.00  0.00    -0.059 C 
ATOM     94  H23 non d ame      -6.323   4.470  63.661  0.00  0.00     0.038 H 
BRANCH  93  95
ATOM     95  C18 non d ame      -7.937   5.456  62.616  0.00  0.00    -0.073 C 
ATOM     96  H24 non d ame      -8.083   4.443  62.242  0.00  0.00     0.028 H 
ATOM     97  H25 non d ame      -8.854   5.805  63.090  0.00  0.00     0.028 H 
ATOM     98  H26 non d ame      -7.682   6.117  61.787  0.00  0.00     0.028 H 
ENDBRANCH  93  95
BRANCH  93  99
ATOM     99  C19 non d ame      -5.686   6.459  63.261  0.00  0.00    -0.073 C 
ATOM    100  H27 non d ame      -6.139   7.429  63.055  0.00  0.00     0.028 H 
ATOM    101  H28 non d ame      -4.967   6.558  64.075  0.00  0.00     0.028 H 
ATOM    102  H29 non d ame      -5.175   6.099  62.368  0.00  0.00     0.028 H 
ENDBRANCH  93  99
ENDBRANCH  90  93
ENDBRANCH   1  90
TORSDOF 26
ENDMDL
MODEL 6
REMARK VINA RESULT:      -6.5      2.302      5.363
REMARK  26 active torsions:
REMARK  status: ('A' for Active; 'I' for Inactive)
REMARK    1  A    between atoms: C2_2  and  C3_3 
REMARK    2  A    between atoms: C4_6  and  C5_7 
REMARK       I    between atoms: C5_7  and  N2_9 
REMARK    3  A    between atoms: N2_9  and  C6_10 
REMARK    4  A    between atoms: C6_10  and  C7_11 
REMARK    5  A    between atoms: C6_10  and  C8_13 
REMARK       I    between atoms: C7_11  and  N3_14 
REMARK    6  A    between atoms: N3_14  and  C9_15 
REMARK    7  A    between atoms: C9_15  and  C10_16 
REMARK    8  A    between atoms: C9_15  and  C11_18 
REMARK       I    between atoms: C10_16  and  N4_21 
REMARK    9  A    between atoms: C11_18  and  C12_19 
REMARK   10  A    between atoms: C11_18  and  C13_20 
REMARK   11  A    between atoms: N4_21  and  C14_22 
REMARK   12  A    between atoms: C14_22  and  C15_23 
REMARK   13  A    between atoms: C14_22  and  C16_25 
REMARK       I    between atoms: C15_23  and  N6_40 
REMARK   14  A    between atoms: C16_25  and  C17_26 
REMARK   15  A    between atoms: C17_26  and  C18_27 
REMARK   16  A    between atoms: C17_26  and  C19_28 
REMARK   17  A    between atoms: C20_29  and  C21_30 
REMARK   18  A    between atoms: C20_29  and  C24_33 
REMARK   19  A    between atoms: C20_29  and  N6_40 
REMARK   20  A    between atoms: C21_30  and  C22_31 
REMARK   21  A    between atoms: C22_31  and  C23_32 
REMARK   22  A    between atoms: C23_32  and  O8_43 
REMARK   23  A    between atoms: C24_33  and  C25_34 
REMARK   24  A    between atoms: C28_38  and  O6_39 
REMARK   25  A    between atoms: C29_42  and  O8_43 
REMARK   26  A    between atoms: C29_42  and  C35_49 
ROOT
ATOM      1  C14 non d ame     -10.788   8.547  69.948  0.00  0.00     0.089 C 
ATOM      2  H20 non d ame     -11.758   8.072  69.798  0.00  0.00     0.087 H 
ENDROOT
BRANCH   1   3
ATOM      3  N4  non d ame      -9.791   7.491  70.036  0.00  0.00    -0.346 N 
ATOM      4  C10 non d ame     -10.158   6.067  69.703  0.00  0.00     0.241 C 
ATOM      5  O4  non d ame     -11.264   5.795  69.369  0.00  0.00    -0.271 OA
ATOM      6  H19 non d ame      -8.856   7.743  70.324  0.00  0.00     0.163 HD
BRANCH   4   7
ATOM      7  C9  non d ame      -9.112   4.987  69.794  0.00  0.00     0.092 C 
ATOM      8  H11 non d ame      -9.597   4.013  69.735  0.00  0.00     0.088 H 
BRANCH   7   9
ATOM      9  N3  non d ame      -8.203   5.089  68.648  0.00  0.00    -0.346 N 
ATOM     10  C7  non d ame      -8.481   4.353  67.440  0.00  0.00     0.240 C 
ATOM     11  O3  non d ame      -9.431   3.672  67.373  0.00  0.00    -0.271 OA
ATOM     12  H10 non d ame      -7.378   5.671  68.692  0.00  0.00     0.163 HD
BRANCH  10  13
ATOM     13  C6  non d ame      -7.508   4.463  66.225  0.00  0.00     0.086 C 
ATOM     14  H6  non d ame      -7.838   3.880  65.366  0.00  0.00     0.086 H 
BRANCH  13  15
ATOM     15  N2  non d ame      -7.452   5.849  65.790  0.00  0.00    -0.343 N 
ATOM     16  C5  non d ame      -7.840   6.191  64.420  0.00  0.00     0.273 C 
ATOM     17  O2  non d ame      -8.193   5.344  63.675  0.00  0.00    -0.266 OA
ATOM     18  H5  non d ame      -7.147   6.566  66.433  0.00  0.00     0.163 HD
BRANCH  16  19
ATOM     19  C4  non d ame      -7.788   7.652  63.947  0.00  0.00     0.154 A 
ATOM     20  C1  non d ame      -7.911   8.132  62.605  0.00  0.00    -0.017 A 
ATOM     21  C2  non d ame      -7.795   9.536  62.708  0.00  0.00     0.077 A 
ATOM     22  H1  non d ame      -8.062   7.550  61.695  0.00  0.00     0.091 H 
ATOM     23  O1  non d ame      -7.626   9.819  63.966  0.00  0.00    -0.218 OA
ATOM     24  N1  non d ame      -7.618   8.737  64.709  0.00  0.00    -0.123 NA
BRANCH  21  25
ATOM     25  C3  non d ame      -7.858  10.533  61.558  0.00  0.00    -0.029 C 
ATOM     26  H2  non d ame      -8.084  10.005  60.631  0.00  0.00     0.036 H 
ATOM     27  H3  non d ame      -8.637  11.268  61.757  0.00  0.00     0.036 H 
ATOM     28  H4  non d ame      -6.896  11.039  61.463  0.00  0.00     0.036 H 
ENDBRANCH  21  25
ENDBRANCH  16  19
ENDBRANCH  13  15
BRANCH  13  29
ATOM     29  C8  non d ame      -6.134   3.995  66.634  0.00  0.00    -0.049 C 
ATOM     30  H7  non d ame      -5.504   3.900  65.749  0.00  0.00     0.030 H 
ATOM     31  H8  non d ame      -5.693   4.718  67.319  0.00  0.00     0.030 H 
ATOM     32  H9  non d ame      -6.213   3.026  67.127  0.00  0.00     0.030 H 
ENDBRANCH  13  29
ENDBRANCH  10  13
ENDBRANCH   7   9
BRANCH   7  33
ATOM     33  C11 non d ame      -8.302   5.160  71.112  0.00  0.00    -0.033 C 
ATOM     34  H12 non d ame      -8.845   5.866  71.741  0.00  0.00     0.042 H 
BRANCH  33  35
ATOM     35  C12 non d ame      -8.201   3.815  71.897  0.00  0.00    -0.071 C 
ATOM     36  H13 non d ame      -7.930   3.013  71.210  0.00  0.00     0.028 H 
ATOM     37  H14 non d ame      -7.439   3.902  72.671  0.00  0.00     0.028 H 
ATOM     38  H15 non d ame      -9.163   3.590  72.357  0.00  0.00     0.028 H 
ENDBRANCH  33  35
BRANCH  33  39
ATOM     39  C13 non d ame      -6.887   5.756  70.826  0.00  0.00    -0.071 C 
ATOM     40  H16 non d ame      -6.946   6.443  69.981  0.00  0.00     0.028 H 
ATOM     41  H17 non d ame      -6.534   6.293  71.706  0.00  0.00     0.028 H 
ATOM     42  H18 non d ame      -6.194   4.949  70.590  0.00  0.00     0.028 H 
ENDBRANCH  33  39
ENDBRANCH   7  33
ENDBRANCH   4   7
ENDBRANCH   1   3
BRANCH   1  43
ATOM     43  C15 non d ame     -10.409   9.490  68.770  0.00  0.00     0.240 C 
ATOM     44  O5  non d ame      -9.927   9.037  67.782  0.00  0.00    -0.271 OA
ATOM     45  N6  non d ame     -10.654  10.957  68.870  0.00  0.00    -0.355 N 
ATOM     46  H46 non d ame     -11.067  11.352  69.702  0.00  0.00     0.162 HD
BRANCH  45  47
ATOM     47  C20 non d ame     -10.289  11.839  67.741  0.00  0.00     0.013 C 
ATOM     48  H30 non d ame      -9.318  11.519  67.365  0.00  0.00     0.072 H 
BRANCH  47  49
ATOM     49  C21 non d ame     -10.208  13.268  68.229  0.00  0.00    -0.038 C 
ATOM     50  H31 non d ame     -10.213  13.208  69.317  0.00  0.00     0.036 H 
ATOM     51  H32 non d ame      -9.356  13.708  67.710  0.00  0.00     0.036 H 
BRANCH  49  52
ATOM     52  C22 non d ame     -11.442  14.108  67.832  0.00  0.00     0.018 C 
ATOM     53  H33 non d ame     -11.694  13.802  66.817  0.00  0.00     0.048 H 
ATOM     54  H34 non d ame     -12.165  13.969  68.638  0.00  0.00     0.048 H 
BRANCH  52  55
ATOM     55  C23 non d ame     -11.165  15.635  67.764  0.00  0.00     0.259 C 
ATOM     56  O7  non d ame     -10.502  16.089  66.888  0.00  0.00    -0.265 OA
BRANCH  55  57
ATOM     57  O8  non d ame     -11.702  16.486  68.769  0.00  0.00    -0.317 OA
BRANCH  57  58
ATOM     58  C29 non d ame     -11.020  16.408  70.024  0.00  0.00     0.052 C 
ATOM     59  H47 non d ame     -10.215  15.688  69.877  0.00  0.00     0.082 H 
ATOM     60  H48 non d ame     -10.788  17.437  70.298  0.00  0.00     0.082 H 
BRANCH  58  61
ATOM     61  C35 non d ame     -12.009  15.832  71.071  0.00  0.00    -0.034 A 
ATOM     62  C30 non d ame     -13.190  15.225  70.655  0.00  0.00    -0.075 A 
ATOM     63  C31 non d ame     -14.079  14.708  71.596  0.00  0.00    -0.082 A 
ATOM     64  H49 non d ame     -13.419  15.155  69.591  0.00  0.00     0.084 H 
ATOM     65  C32 non d ame     -13.785  14.800  72.959  0.00  0.00    -0.083 A 
ATOM     66  H50 non d ame     -15.002  14.231  71.266  0.00  0.00     0.083 H 
ATOM     67  C33 non d ame     -12.607  15.410  73.370  0.00  0.00    -0.082 A 
ATOM     68  H51 non d ame     -14.474  14.398  73.701  0.00  0.00     0.083 H 
ATOM     69  C34 non d ame     -11.715  15.926  72.433  0.00  0.00    -0.075 A 
ATOM     70  H52 non d ame     -12.382  15.483  74.434  0.00  0.00     0.083 H 
ATOM     71  H53 non d ame     -10.791  16.402  72.764  0.00  0.00     0.084 H 
ENDBRANCH  58  61
ENDBRANCH  57  58
ENDBRANCH  55  57
ENDBRANCH  52  55
ENDBRANCH  49  52
ENDBRANCH  47  49
BRANCH  47  72
ATOM     72  C24 non d ame     -11.344  11.735  66.641  0.00  0.00    -0.039 C 
ATOM     73  H35 non d ame     -11.518  10.667  66.506  0.00  0.00     0.036 H 
ATOM     74  H36 non d ame     -12.160  12.383  66.960  0.00  0.00     0.036 H 
BRANCH  72  75
ATOM     75  C25 non d ame     -10.804  12.306  65.245  0.00  0.00    -0.001 C 
ATOM     76  C26 non d ame     -12.023  13.063  64.441  0.00  0.00    -0.035 C 
ATOM     77  C27 non d ame     -12.085  12.571  63.180  0.00  0.00     0.085 C 
ATOM     78  H38 non d ame     -12.984  12.784  64.871  0.00  0.00     0.036 H 
ATOM     79  H39 non d ame     -11.777  14.114  64.292  0.00  0.00     0.036 H 
ATOM     80  N5  non d ame     -11.238  11.321  63.152  0.00  0.00    -0.049 N 
ATOM     81  H40 non d ame     -13.129  12.296  63.026  0.00  0.00     0.075 H 
ATOM     82  H41 non d ame     -11.621  13.328  62.549  0.00  0.00     0.075 H 
ATOM     83  C28 non d ame     -10.347  11.358  64.498  0.00  0.00     0.193 C 
ATOM     84  H42 non d ame     -11.877  10.541  63.210  0.00  0.00     0.280 HD
ATOM     85  H43 non d ame     -10.622  11.411  62.356  0.00  0.00     0.280 HD
ATOM     86  H44 non d ame      -9.292  11.629  64.456  0.00  0.00     0.129 H 
ATOM     87  H37 non d ame      -9.869  12.854  65.358  0.00  0.00     0.046 H 
BRANCH  83  88
ATOM     88  O6  non d ame     -10.390  10.088  65.151  0.00  0.00    -0.369 OA
ATOM     89  H45 non d ame     -11.211   9.643  64.932  0.00  0.00     0.212 HD
ENDBRANCH  83  88
ENDBRANCH  72  75
ENDBRANCH  47  72
ENDBRANCH  45  47
ENDBRANCH   1  43
BRANCH   1  90
ATOM     90  C16 non d ame     -10.795   9.333  71.249  0.00  0.00    -0.035 C 
ATOM     91  H21 non d ame     -10.123   8.792  71.917  0.00  0.00     0.037 H 
ATOM     92  H22 non d ame     -10.569  10.361  70.967  0.00  0.00     0.037 H 
BRANCH  90  93
ATOM     93  C17 non d ame     -12.188   9.364  71.955  0.00  0.00    -0.059 C 
ATOM     94  H23 non d ame     -12.014   9.334  73.031  0.00  0.00     0.038 H 
BRANCH  93  95
ATOM     95  C18 non d ame     -12.980  10.672  71.637  0.00  0.00    -0.073 C 
ATOM     96  H24 non d ame     -13.195  10.716  70.570  0.00  0.00     0.028 H 
ATOM     97  H25 non d ame     -13.916  10.675  72.197  0.00  0.00     0.028 H 
ATOM     98  H26 non d ame     -12.383  11.538  71.924  0.00  0.00     0.028 H 
ENDBRANCH  93  95
BRANCH  93  99
ATOM     99  C19 non d ame     -13.012   8.126  71.593  0.00  0.00    -0.073 C 
ATOM    100  H27 non d ame     -13.880   8.427  71.005  0.00  0.00     0.028 H 
ATOM    101  H28 non d ame     -12.398   7.439  71.009  0.00  0.00     0.028 H 
ATOM    102  H29 non d ame     -13.344   7.631  72.505  0.00  0.00     0.028 H 
ENDBRANCH  93  99
ENDBRANCH  90  93
ENDBRANCH   1  90
TORSDOF 26
ENDMDL
MODEL 7
REMARK VINA RESULT:      -6.5      3.232      8.577
REMARK  26 active torsions:
REMARK  status: ('A' for Active; 'I' for Inactive)
REMARK    1  A    between atoms: C2_2  and  C3_3 
REMARK    2  A    between atoms: C4_6  and  C5_7 
REMARK       I    between atoms: C5_7  and  N2_9 
REMARK    3  A    between atoms: N2_9  and  C6_10 
REMARK    4  A    between atoms: C6_10  and  C7_11 
REMARK    5  A    between atoms: C6_10  and  C8_13 
REMARK       I    between atoms: C7_11  and  N3_14 
REMARK    6  A    between atoms: N3_14  and  C9_15 
REMARK    7  A    between atoms: C9_15  and  C10_16 
REMARK    8  A    between atoms: C9_15  and  C11_18 
REMARK       I    between atoms: C10_16  and  N4_21 
REMARK    9  A    between atoms: C11_18  and  C12_19 
REMARK   10  A    between atoms: C11_18  and  C13_20 
REMARK   11  A    between atoms: N4_21  and  C14_22 
REMARK   12  A    between atoms: C14_22  and  C15_23 
REMARK   13  A    between atoms: C14_22  and  C16_25 
REMARK       I    between atoms: C15_23  and  N6_40 
REMARK   14  A    between atoms: C16_25  and  C17_26 
REMARK   15  A    between atoms: C17_26  and  C18_27 
REMARK   16  A    between atoms: C17_26  and  C19_28 
REMARK   17  A    between atoms: C20_29  and  C21_30 
REMARK   18  A    between atoms: C20_29  and  C24_33 
REMARK   19  A    between atoms: C20_29  and  N6_40 
REMARK   20  A    between atoms: C21_30  and  C22_31 
REMARK   21  A    between atoms: C22_31  and  C23_32 
REMARK   22  A    between atoms: C23_32  and  O8_43 
REMARK   23  A    between atoms: C24_33  and  C25_34 
REMARK   24  A    between atoms: C28_38  and  O6_39 
REMARK   25  A    between atoms: C29_42  and  O8_43 
REMARK   26  A    between atoms: C29_42  and  C35_49 
ROOT
ATOM      1  C14 non d ame      -6.227  11.729  69.650  0.00  0.00     0.089 C 
ATOM      2  H20 non d ame      -5.598  11.565  68.775  0.00  0.00     0.087 H 
ENDROOT
BRANCH   1   3
ATOM      3  N4  non d ame      -7.106  12.850  69.354  0.00  0.00    -0.346 N 
ATOM      4  C10 non d ame      -6.937  13.634  68.077  0.00  0.00     0.241 C 
ATOM      5  O4  non d ame      -6.084  13.346  67.304  0.00  0.00    -0.271 OA
ATOM      6  H19 non d ame      -7.825  13.081  70.026  0.00  0.00     0.163 HD
BRANCH   4   7
ATOM      7  C9  non d ame      -7.860  14.788  67.784  0.00  0.00     0.092 C 
ATOM      8  H11 non d ame      -7.752  15.077  66.738  0.00  0.00     0.088 H 
BRANCH   7   9
ATOM      9  N3  non d ame      -9.250  14.363  67.975  0.00  0.00    -0.346 N 
ATOM     10  C7  non d ame     -10.187  14.450  66.882  0.00  0.00     0.240 C 
ATOM     11  O3  non d ame      -9.840  14.860  65.842  0.00  0.00    -0.271 OA
ATOM     12  H10 non d ame      -9.565  14.009  68.867  0.00  0.00     0.163 HD
BRANCH  10  13
ATOM     13  C6  non d ame     -11.666  13.999  67.093  0.00  0.00     0.086 C 
ATOM     14  H6  non d ame     -11.760  12.926  67.258  0.00  0.00     0.086 H 
BRANCH  13  15
ATOM     15  N2  non d ame     -12.193  14.651  68.280  0.00  0.00    -0.343 N 
ATOM     16  C5  non d ame     -12.093  13.977  69.577  0.00  0.00     0.273 C 
ATOM     17  O2  non d ame     -11.590  12.910  69.653  0.00  0.00    -0.266 OA
ATOM     18  H5  non d ame     -12.623  15.562  68.205  0.00  0.00     0.163 HD
BRANCH  16  19
ATOM     19  C4  non d ame     -12.644  14.655  70.841  0.00  0.00     0.154 A 
ATOM     20  C1  non d ame     -11.899  15.097  71.980  0.00  0.00    -0.017 A 
ATOM     21  C2  non d ame     -12.863  15.646  72.854  0.00  0.00     0.077 A 
ATOM     22  H1  non d ame     -10.824  15.029  72.147  0.00  0.00     0.091 H 
ATOM     23  O1  non d ame     -14.022  15.530  72.275  0.00  0.00    -0.218 OA
ATOM     24  N1  non d ame     -13.920  14.955  71.099  0.00  0.00    -0.123 NA
BRANCH  21  25
ATOM     25  C3  non d ame     -12.594  16.261  74.221  0.00  0.00    -0.029 C 
ATOM     26  H2  non d ame     -13.497  16.203  74.830  0.00  0.00     0.036 H 
ATOM     27  H3  non d ame     -11.789  15.715  74.713  0.00  0.00     0.036 H 
ATOM     28  H4  non d ame     -12.304  17.305  74.100  0.00  0.00     0.036 H 
ENDBRANCH  21  25
ENDBRANCH  16  19
ENDBRANCH  13  15
BRANCH  13  29
ATOM     29  C8  non d ame     -12.487  14.380  65.887  0.00  0.00    -0.049 C 
ATOM     30  H7  non d ame     -13.213  13.595  65.678  0.00  0.00     0.030 H 
ATOM     31  H8  non d ame     -13.010  15.316  66.085  0.00  0.00     0.030 H 
ATOM     32  H9  non d ame     -11.831  14.505  65.026  0.00  0.00     0.030 H 
ENDBRANCH  13  29
ENDBRANCH  10  13
ENDBRANCH   7   9
BRANCH   7  33
ATOM     33  C11 non d ame      -7.542  15.965  68.752  0.00  0.00    -0.033 C 
ATOM     34  H12 non d ame      -7.730  15.615  69.767  0.00  0.00     0.042 H 
BRANCH  33  35
ATOM     35  C12 non d ame      -6.040  16.380  68.668  0.00  0.00    -0.071 C 
ATOM     36  H13 non d ame      -5.553  16.174  69.621  0.00  0.00     0.028 H 
ATOM     37  H14 non d ame      -5.550  15.810  67.879  0.00  0.00     0.028 H 
ATOM     38  H15 non d ame      -5.970  17.444  68.446  0.00  0.00     0.028 H 
ENDBRANCH  33  35
BRANCH  33  39
ATOM     39  C13 non d ame      -8.482  17.183  68.479  0.00  0.00    -0.071 C 
ATOM     40  H16 non d ame      -8.146  18.040  69.062  0.00  0.00     0.028 H 
ATOM     41  H17 non d ame      -8.456  17.432  67.418  0.00  0.00     0.028 H 
ATOM     42  H18 non d ame      -9.502  16.926  68.766  0.00  0.00     0.028 H 
ENDBRANCH  33  39
ENDBRANCH   7  33
ENDBRANCH   4   7
ENDBRANCH   1   3
BRANCH   1  43
ATOM     43  C15 non d ame      -7.103  10.488  69.986  0.00  0.00     0.240 C 
ATOM     44  O5  non d ame      -6.641   9.592  70.616  0.00  0.00    -0.271 OA
ATOM     45  N6  non d ame      -8.520  10.420  69.529  0.00  0.00    -0.355 N 
ATOM     46  H46 non d ame      -8.925  11.177  68.998  0.00  0.00     0.162 HD
BRANCH  45  47
ATOM     47  C20 non d ame      -9.340   9.234  69.858  0.00  0.00     0.013 C 
ATOM     48  H30 non d ame      -8.663   8.405  70.065  0.00  0.00     0.072 H 
BRANCH  47  49
ATOM     49  C21 non d ame     -10.225   8.896  68.679  0.00  0.00    -0.038 C 
ATOM     50  H31 non d ame     -10.235   7.808  68.621  0.00  0.00     0.036 H 
ATOM     51  H32 non d ame     -11.154   9.442  68.843  0.00  0.00     0.036 H 
BRANCH  49  52
ATOM     52  C22 non d ame      -9.653   9.401  67.337  0.00  0.00     0.018 C 
ATOM     53  H33 non d ame      -8.683   9.837  67.574  0.00  0.00     0.048 H 
ATOM     54  H34 non d ame      -9.717   8.554  66.652  0.00  0.00     0.048 H 
BRANCH  52  55
ATOM     55  C23 non d ame     -10.488  10.540  66.689  0.00  0.00     0.259 C 
ATOM     56  O7  non d ame     -11.590  10.771  67.069  0.00  0.00    -0.265 OA
BRANCH  55  57
ATOM     57  O8  non d ame      -9.925  11.298  65.625  0.00  0.00    -0.317 OA
BRANCH  57  58
ATOM     58  C29 non d ame     -10.507  11.029  64.347  0.00  0.00     0.052 C 
ATOM     59  H47 non d ame     -11.268  10.268  64.523  0.00  0.00     0.082 H 
ATOM     60  H48 non d ame     -10.792  12.000  63.942  0.00  0.00     0.082 H 
BRANCH  58  61
ATOM     61  C35 non d ame      -9.406  10.421  63.437  0.00  0.00    -0.034 A 
ATOM     62  C30 non d ame      -8.975   9.115  63.644  0.00  0.00    -0.075 A 
ATOM     63  C31 non d ame      -7.985   8.569  62.827  0.00  0.00    -0.082 A 
ATOM     64  H49 non d ame      -9.412   8.519  64.445  0.00  0.00     0.084 H 
ATOM     65  C32 non d ame      -7.425   9.336  61.802  0.00  0.00    -0.083 A 
ATOM     66  H50 non d ame      -7.651   7.544  62.990  0.00  0.00     0.083 H 
ATOM     67  C33 non d ame      -7.857  10.640  61.602  0.00  0.00    -0.082 A 
ATOM     68  H51 non d ame      -6.652   8.917  61.159  0.00  0.00     0.083 H 
ATOM     69  C34 non d ame      -8.847  11.189  62.414  0.00  0.00    -0.075 A 
ATOM     70  H52 non d ame      -7.416  11.236  60.802  0.00  0.00     0.083 H 
ATOM     71  H53 non d ame      -9.181  12.214  62.250  0.00  0.00     0.084 H 
ENDBRANCH  58  61
ENDBRANCH  57  58
ENDBRANCH  55  57
ENDBRANCH  52  55
ENDBRANCH  49  52
ENDBRANCH  47  49
BRANCH  47  72
ATOM     72  C24 non d ame     -10.208   9.528  71.080  0.00  0.00    -0.039 C 
ATOM     73  H35 non d ame      -9.668   9.106  71.928  0.00  0.00     0.036 H 
ATOM     74  H36 non d ame     -10.410  10.599  71.041  0.00  0.00     0.036 H 
BRANCH  72  75
ATOM     75  C25 non d ame     -11.621   8.777  70.998  0.00  0.00    -0.001 C 
ATOM     76  C26 non d ame     -12.842   9.879  71.010  0.00  0.00    -0.035 C 
ATOM     77  C27 non d ame     -13.735   9.529  71.967  0.00  0.00     0.085 C 
ATOM     78  H38 non d ame     -12.470  10.845  71.349  0.00  0.00     0.036 H 
ATOM     79  H39 non d ame     -13.418   9.809  70.087  0.00  0.00     0.036 H 
ATOM     80  N5  non d ame     -13.073   8.479  72.826  0.00  0.00    -0.049 N 
ATOM     81  H40 non d ame     -13.891  10.430  72.562  0.00  0.00     0.075 H 
ATOM     82  H41 non d ame     -14.570   9.077  71.434  0.00  0.00     0.075 H 
ATOM     83  C28 non d ame     -11.783   7.976  71.997  0.00  0.00     0.193 C 
ATOM     84  H42 non d ame     -12.755   8.951  73.661  0.00  0.00     0.280 HD
ATOM     85  H43 non d ame     -13.728   7.713  72.897  0.00  0.00     0.280 HD
ATOM     86  H44 non d ame     -11.796   7.016  71.481  0.00  0.00     0.129 H 
ATOM     87  H37 non d ame     -11.642   8.022  70.212  0.00  0.00     0.046 H 
BRANCH  83  88
ATOM     88  O6  non d ame     -10.635   7.936  72.847  0.00  0.00    -0.369 OA
ATOM     89  H45 non d ame     -10.737   8.579  73.552  0.00  0.00     0.212 HD
ENDBRANCH  83  88
ENDBRANCH  72  75
ENDBRANCH  47  72
ENDBRANCH  45  47
ENDBRANCH   1  43
BRANCH   1  90
ATOM     90  C16 non d ame      -5.360  12.082  70.848  0.00  0.00    -0.035 C 
ATOM     91  H21 non d ame      -6.058  12.290  71.659  0.00  0.00     0.037 H 
ATOM     92  H22 non d ame      -4.647  11.262  70.939  0.00  0.00     0.037 H 
BRANCH  90  93
ATOM     93  C17 non d ame      -4.515  13.381  70.649  0.00  0.00    -0.059 C 
ATOM     94  H23 non d ame      -4.774  13.798  69.676  0.00  0.00     0.038 H 
BRANCH  93  95
ATOM     95  C18 non d ame      -4.834  14.462  71.731  0.00  0.00    -0.073 C 
ATOM     96  H24 non d ame      -5.890  14.726  71.680  0.00  0.00     0.028 H 
ATOM     97  H25 non d ame      -4.605  14.064  72.720  0.00  0.00     0.028 H 
ATOM     98  H26 non d ame      -4.227  15.349  71.547  0.00  0.00     0.028 H 
ENDBRANCH  93  95
BRANCH  93  99
ATOM     99  C19 non d ame      -3.019  13.061  70.622  0.00  0.00    -0.073 C 
ATOM    100  H27 non d ame      -2.796  12.298  71.369  0.00  0.00     0.028 H 
ATOM    101  H28 non d ame      -2.743  12.693  69.634  0.00  0.00     0.028 H 
ATOM    102  H29 non d ame      -2.450  13.964  70.845  0.00  0.00     0.028 H 
ENDBRANCH  93  99
ENDBRANCH  90  93
ENDBRANCH   1  90
TORSDOF 26
ENDMDL
MODEL 8
REMARK VINA RESULT:      -6.5      2.705      5.600
REMARK  26 active torsions:
REMARK  status: ('A' for Active; 'I' for Inactive)
REMARK    1  A    between atoms: C2_2  and  C3_3 
REMARK    2  A    between atoms: C4_6  and  C5_7 
REMARK       I    between atoms: C5_7  and  N2_9 
REMARK    3  A    between atoms: N2_9  and  C6_10 
REMARK    4  A    between atoms: C6_10  and  C7_11 
REMARK    5  A    between atoms: C6_10  and  C8_13 
REMARK       I    between atoms: C7_11  and  N3_14 
REMARK    6  A    between atoms: N3_14  and  C9_15 
REMARK    7  A    between atoms: C9_15  and  C10_16 
REMARK    8  A    between atoms: C9_15  and  C11_18 
REMARK       I    between atoms: C10_16  and  N4_21 
REMARK    9  A    between atoms: C11_18  and  C12_19 
REMARK   10  A    between atoms: C11_18  and  C13_20 
REMARK   11  A    between atoms: N4_21  and  C14_22 
REMARK   12  A    between atoms: C14_22  and  C15_23 
REMARK   13  A    between atoms: C14_22  and  C16_25 
REMARK       I    between atoms: C15_23  and  N6_40 
REMARK   14  A    between atoms: C16_25  and  C17_26 
REMARK   15  A    between atoms: C17_26  and  C18_27 
REMARK   16  A    between atoms: C17_26  and  C19_28 
REMARK   17  A    between atoms: C20_29  and  C21_30 
REMARK   18  A    between atoms: C20_29  and  C24_33 
REMARK   19  A    between atoms: C20_29  and  N6_40 
REMARK   20  A    between atoms: C21_30  and  C22_31 
REMARK   21  A    between atoms: C22_31  and  C23_32 
REMARK   22  A    between atoms: C23_32  and  O8_43 
REMARK   23  A    between atoms: C24_33  and  C25_34 
REMARK   24  A    between atoms: C28_38  and  O6_39 
REMARK   25  A    between atoms: C29_42  and  O8_43 
REMARK   26  A    between atoms: C29_42  and  C35_49 
ROOT
ATOM      1  C14 non d ame     -11.087   8.949  70.833  0.00  0.00     0.089 C 
ATOM      2  H20 non d ame     -11.348   8.123  70.170  0.00  0.00     0.087 H 
ENDROOT
BRANCH   1   3
ATOM      3  N4  non d ame      -9.762   9.415  70.450  0.00  0.00    -0.346 N 
ATOM      4  C10 non d ame      -8.981   8.695  69.380  0.00  0.00     0.241 C 
ATOM      5  O4  non d ame      -9.438   7.740  68.843  0.00  0.00    -0.271 OA
ATOM      6  H19 non d ame      -9.390  10.228  70.920  0.00  0.00     0.163 HD
BRANCH   4   7
ATOM      7  C9  non d ame      -7.614   9.195  68.992  0.00  0.00     0.092 C 
ATOM      8  H11 non d ame      -6.939   8.346  68.885  0.00  0.00     0.088 H 
BRANCH   7   9
ATOM      9  N3  non d ame      -7.688   9.857  67.686  0.00  0.00    -0.346 N 
ATOM     10  C7  non d ame      -7.247   9.163  66.501  0.00  0.00     0.240 C 
ATOM     11  O3  non d ame      -6.830   8.073  66.580  0.00  0.00    -0.271 OA
ATOM     12  H10 non d ame      -8.044  10.798  67.602  0.00  0.00     0.163 HD
BRANCH  10  13
ATOM     13  C6  non d ame      -7.325   9.874  65.114  0.00  0.00     0.086 C 
ATOM     14  H6  non d ame      -7.743   9.236  64.336  0.00  0.00     0.086 H 
BRANCH  13  15
ATOM     15  N2  non d ame      -8.205  11.026  65.224  0.00  0.00    -0.343 N 
ATOM     16  C5  non d ame      -9.636  10.870  64.955  0.00  0.00     0.273 C 
ATOM     17  O2  non d ame     -10.069   9.813  64.648  0.00  0.00    -0.266 OA
ATOM     18  H5  non d ame      -7.825  11.926  65.484  0.00  0.00     0.163 HD
BRANCH  16  19
ATOM     19  C4  non d ame     -10.577  12.079  65.069  0.00  0.00     0.154 A 
ATOM     20  C1  non d ame     -10.316  13.421  64.647  0.00  0.00    -0.017 A 
ATOM     21  C2  non d ame     -11.489  14.139  64.971  0.00  0.00     0.077 A 
ATOM     22  H1  non d ame      -9.414  13.814  64.178  0.00  0.00     0.091 H 
ATOM     23  O1  non d ame     -12.320  13.298  65.513  0.00  0.00    -0.218 OA
ATOM     24  N1  non d ame     -11.811  12.090  65.581  0.00  0.00    -0.123 NA
BRANCH  21  25
ATOM     25  C3  non d ame     -11.734  15.622  64.729  0.00  0.00    -0.029 C 
ATOM     26  H2  non d ame     -11.348  15.900  63.748  0.00  0.00     0.036 H 
ATOM     27  H3  non d ame     -12.804  15.825  64.769  0.00  0.00     0.036 H 
ATOM     28  H4  non d ame     -11.225  16.205  65.498  0.00  0.00     0.036 H 
ENDBRANCH  21  25
ENDBRANCH  16  19
ENDBRANCH  13  15
BRANCH  13  29
ATOM     29  C8  non d ame      -5.946  10.315  64.694  0.00  0.00    -0.049 C 
ATOM     30  H7  non d ame      -5.588   9.672  63.890  0.00  0.00     0.030 H 
ATOM     31  H8  non d ame      -5.985  11.347  64.344  0.00  0.00     0.030 H 
ATOM     32  H9  non d ame      -5.268  10.245  65.544  0.00  0.00     0.030 H 
ENDBRANCH  13  29
ENDBRANCH  10  13
ENDBRANCH   7   9
BRANCH   7  33
ATOM     33  C11 non d ame      -7.112  10.212  70.058  0.00  0.00    -0.033 C 
ATOM     34  H12 non d ame      -7.954  10.449  70.709  0.00  0.00     0.042 H 
BRANCH  33  35
ATOM     35  C12 non d ame      -5.990   9.594  70.950  0.00  0.00    -0.071 C 
ATOM     36  H13 non d ame      -5.477  10.389  71.491  0.00  0.00     0.028 H 
ATOM     37  H14 non d ame      -6.434   8.898  71.662  0.00  0.00     0.028 H 
ATOM     38  H15 non d ame      -5.277   9.064  70.319  0.00  0.00     0.028 H 
ENDBRANCH  33  35
BRANCH  33  39
ATOM     39  C13 non d ame      -6.634  11.539  69.385  0.00  0.00    -0.071 C 
ATOM     40  H16 non d ame      -7.380  11.868  68.661  0.00  0.00     0.028 H 
ATOM     41  H17 non d ame      -6.504  12.307  70.148  0.00  0.00     0.028 H 
ATOM     42  H18 non d ame      -5.685  11.366  68.877  0.00  0.00     0.028 H 
ENDBRANCH  33  39
ENDBRANCH   7  33
ENDBRANCH   4   7
ENDBRANCH   1   3
BRANCH   1  43
ATOM     43  C15 non d ame     -12.084  10.137  70.713  0.00  0.00     0.240 C 
ATOM     44  O5  non d ame     -13.231   9.974  70.979  0.00  0.00    -0.271 OA
ATOM     45  N6  non d ame     -11.607  11.479  70.275  0.00  0.00    -0.355 N 
ATOM     46  H46 non d ame     -10.634  11.631  70.051  0.00  0.00     0.162 HD
BRANCH  45  47
ATOM     47  C20 non d ame     -12.567  12.599  70.168  0.00  0.00     0.013 C 
ATOM     48  H30 non d ame     -13.496  12.206  69.753  0.00  0.00     0.072 H 
BRANCH  47  49
ATOM     49  C21 non d ame     -11.999  13.658  69.251  0.00  0.00    -0.038 C 
ATOM     50  H31 non d ame     -12.664  13.688  68.387  0.00  0.00     0.036 H 
ATOM     51  H32 non d ame     -11.871  14.546  69.871  0.00  0.00     0.036 H 
BRANCH  49  52
ATOM     52  C22 non d ame     -10.599  13.295  68.711  0.00  0.00     0.018 C 
ATOM     53  H33 non d ame     -10.097  12.768  69.523  0.00  0.00     0.048 H 
ATOM     54  H34 non d ame     -10.771  12.793  67.759  0.00  0.00     0.048 H 
BRANCH  52  55
ATOM     55  C23 non d ame      -9.712  14.531  68.389  0.00  0.00     0.259 C 
ATOM     56  O7  non d ame      -8.531  14.470  68.498  0.00  0.00    -0.265 OA
BRANCH  55  57
ATOM     57  O8  non d ame     -10.330  15.743  67.974  0.00  0.00    -0.317 OA
BRANCH  57  58
ATOM     58  C29 non d ame     -10.321  16.771  68.968  0.00  0.00     0.052 C 
ATOM     59  H47 non d ame     -11.368  16.956  69.211  0.00  0.00     0.082 H 
ATOM     60  H48 non d ame      -9.634  16.428  69.741  0.00  0.00     0.082 H 
BRANCH  58  61
ATOM     61  C35 non d ame      -9.733  18.055  68.323  0.00  0.00    -0.034 A 
ATOM     62  C30 non d ame     -10.530  18.853  67.508  0.00  0.00    -0.075 A 
ATOM     63  C31 non d ame     -10.002  20.005  66.929  0.00  0.00    -0.082 A 
ATOM     64  H49 non d ame     -11.568  18.575  67.324  0.00  0.00     0.084 H 
ATOM     65  C32 non d ame      -8.670  20.358  67.165  0.00  0.00    -0.083 A 
ATOM     66  H50 non d ame     -10.629  20.630  66.293  0.00  0.00     0.083 H 
ATOM     67  C33 non d ame      -7.878  19.557  67.976  0.00  0.00    -0.082 A 
ATOM     68  H51 non d ame      -8.250  21.258  66.717  0.00  0.00     0.083 H 
ATOM     69  C34 non d ame      -8.403  18.405  68.559  0.00  0.00    -0.075 A 
ATOM     70  H52 non d ame      -6.839  19.834  68.157  0.00  0.00     0.083 H 
ATOM     71  H53 non d ame      -7.774  17.782  69.196  0.00  0.00     0.084 H 
ENDBRANCH  58  61
ENDBRANCH  57  58
ENDBRANCH  55  57
ENDBRANCH  52  55
ENDBRANCH  49  52
ENDBRANCH  47  49
BRANCH  47  72
ATOM     72  C24 non d ame     -12.816  13.200  71.550  0.00  0.00    -0.039 C 
ATOM     73  H35 non d ame     -13.791  12.823  71.859  0.00  0.00     0.036 H 
ATOM     74  H36 non d ame     -11.928  12.960  72.135  0.00  0.00     0.036 H 
BRANCH  72  75
ATOM     75  C25 non d ame     -12.925  14.798  71.490  0.00  0.00    -0.001 C 
ATOM     76  C26 non d ame     -11.787  15.473  72.467  0.00  0.00    -0.035 C 
ATOM     77  C27 non d ame     -12.391  16.368  73.285  0.00  0.00     0.085 C 
ATOM     78  H38 non d ame     -11.393  14.725  73.154  0.00  0.00     0.036 H 
ATOM     79  H39 non d ame     -11.105  16.087  71.878  0.00  0.00     0.036 H 
ATOM     80  N5  non d ame     -13.878  16.127  73.182  0.00  0.00    -0.049 N 
ATOM     81  H40 non d ame     -12.059  16.112  74.292  0.00  0.00     0.075 H 
ATOM     82  H41 non d ame     -12.160  17.347  72.867  0.00  0.00     0.075 H 
ATOM     83  C28 non d ame     -14.089  15.202  71.876  0.00  0.00     0.193 C 
ATOM     84  H42 non d ame     -14.139  15.594  74.000  0.00  0.00     0.280 HD
ATOM     85  H43 non d ame     -14.302  17.027  73.010  0.00  0.00     0.280 HD
ATOM     86  H44 non d ame     -14.467  15.631  70.949  0.00  0.00     0.129 H 
ATOM     87  H37 non d ame     -12.984  15.169  70.467  0.00  0.00     0.046 H 
BRANCH  83  88
ATOM     88  O6  non d ame     -14.964  14.114  72.179  0.00  0.00    -0.369 OA
ATOM     89  H45 non d ame     -15.839  14.301  71.832  0.00  0.00     0.212 HD
ENDBRANCH  83  88
ENDBRANCH  72  75
ENDBRANCH  47  72
ENDBRANCH  45  47
ENDBRANCH   1  43
BRANCH   1  90
ATOM     90  C16 non d ame     -11.044   8.460  72.272  0.00  0.00    -0.035 C 
ATOM     91  H21 non d ame     -10.472   9.213  72.815  0.00  0.00     0.037 H 
ATOM     92  H22 non d ame     -12.082   8.265  72.541  0.00  0.00     0.037 H 
BRANCH  90  93
ATOM     93  C17 non d ame     -10.280   7.110  72.452  0.00  0.00    -0.059 C 
ATOM     94  H23 non d ame      -9.264   7.252  72.083  0.00  0.00     0.038 H 
BRANCH  93  95
ATOM     95  C18 non d ame     -10.185   6.682  73.952  0.00  0.00    -0.073 C 
ATOM     96  H24 non d ame      -9.150   6.751  74.285  0.00  0.00     0.028 H 
ATOM     97  H25 non d ame     -10.806   7.343  74.558  0.00  0.00     0.028 H 
ATOM     98  H26 non d ame     -10.535   5.655  74.060  0.00  0.00     0.028 H 
ENDBRANCH  93  95
BRANCH  93  99
ATOM     99  C19 non d ame     -10.919   6.003  71.610  0.00  0.00    -0.073 C 
ATOM    100  H27 non d ame     -10.401   5.061  71.794  0.00  0.00     0.028 H 
ATOM    101  H28 non d ame     -11.970   5.900  71.883  0.00  0.00     0.028 H 
ATOM    102  H29 non d ame     -10.842   6.260  70.554  0.00  0.00     0.028 H 
ENDBRANCH  93  99
ENDBRANCH  90  93
ENDBRANCH   1  90
TORSDOF 26
ENDMDL
MODEL 9
REMARK VINA RESULT:      -6.5      3.456      9.020
REMARK  26 active torsions:
REMARK  status: ('A' for Active; 'I' for Inactive)
REMARK    1  A    between atoms: C2_2  and  C3_3 
REMARK    2  A    between atoms: C4_6  and  C5_7 
REMARK       I    between atoms: C5_7  and  N2_9 
REMARK    3  A    between atoms: N2_9  and  C6_10 
REMARK    4  A    between atoms: C6_10  and  C7_11 
REMARK    5  A    between atoms: C6_10  and  C8_13 
REMARK       I    between atoms: C7_11  and  N3_14 
REMARK    6  A    between atoms: N3_14  and  C9_15 
REMARK    7  A    between atoms: C9_15  and  C10_16 
REMARK    8  A    between atoms: C9_15  and  C11_18 
REMARK       I    between atoms: C10_16  and  N4_21 
REMARK    9  A    between atoms: C11_18  and  C12_19 
REMARK   10  A    between atoms: C11_18  and  C13_20 
REMARK   11  A    between atoms: N4_21  and  C14_22 
REMARK   12  A    between atoms: C14_22  and  C15_23 
REMARK   13  A    between atoms: C14_22  and  C16_25 
REMARK       I    between atoms: C15_23  and  N6_40 
REMARK   14  A    between atoms: C16_25  and  C17_26 
REMARK   15  A    between atoms: C17_26  and  C18_27 
REMARK   16  A    between atoms: C17_26  and  C19_28 
REMARK   17  A    between atoms: C20_29  and  C21_30 
REMARK   18  A    between atoms: C20_29  and  C24_33 
REMARK   19  A    between atoms: C20_29  and  N6_40 
REMARK   20  A    between atoms: C21_30  and  C22_31 
REMARK   21  A    between atoms: C22_31  and  C23_32 
REMARK   22  A    between atoms: C23_32  and  O8_43 
REMARK   23  A    between atoms: C24_33  and  C25_34 
REMARK   24  A    between atoms: C28_38  and  O6_39 
REMARK   25  A    between atoms: C29_42  and  O8_43 
REMARK   26  A    between atoms: C29_42  and  C35_49 
ROOT
ATOM      1  C14 non d ame      -6.939   6.897  66.349  0.00  0.00     0.089 C 
ATOM      2  H20 non d ame      -7.589   6.533  65.553  0.00  0.00     0.087 H 
ENDROOT
BRANCH   1   3
ATOM      3  N4  non d ame      -6.767   8.329  66.155  0.00  0.00    -0.346 N 
ATOM      4  C10 non d ame      -7.942   9.191  65.767  0.00  0.00     0.241 C 
ATOM      5  O4  non d ame      -9.016   8.709  65.614  0.00  0.00    -0.271 OA
ATOM      6  H19 non d ame      -5.845   8.719  66.287  0.00  0.00     0.163 HD
BRANCH   4   7
ATOM      7  C9  non d ame      -7.747  10.672  65.575  0.00  0.00     0.092 C 
ATOM      8  H11 non d ame      -7.317  10.853  64.590  0.00  0.00     0.088 H 
BRANCH   7   9
ATOM      9  N3  non d ame      -9.049  11.345  65.610  0.00  0.00    -0.346 N 
ATOM     10  C7  non d ame      -9.773  11.577  64.383  0.00  0.00     0.240 C 
ATOM     11  O3  non d ame      -9.321  11.230  63.361  0.00  0.00    -0.271 OA
ATOM     12  H10 non d ame      -9.450  11.652  66.484  0.00  0.00     0.163 HD
BRANCH  10  13
ATOM     13  C6  non d ame     -11.156  12.296  64.426  0.00  0.00     0.086 C 
ATOM     14  H6  non d ame     -11.707  12.098  65.345  0.00  0.00     0.086 H 
BRANCH  13  15
ATOM     15  N2  non d ame     -10.943  13.733  64.371  0.00  0.00    -0.343 N 
ATOM     16  C5  non d ame     -11.141  14.538  65.578  0.00  0.00     0.273 C 
ATOM     17  O2  non d ame     -11.475  14.021  66.587  0.00  0.00    -0.266 OA
ATOM     18  H5  non d ame     -10.660  14.167  63.504  0.00  0.00     0.163 HD
BRANCH  16  19
ATOM     19  C4  non d ame     -10.917  16.058  65.536  0.00  0.00     0.154 A 
ATOM     20  C1  non d ame     -10.288  16.868  66.534  0.00  0.00    -0.017 A 
ATOM     21  C2  non d ame     -10.333  18.182  66.017  0.00  0.00     0.077 A 
ATOM     22  H1  non d ame      -9.865  16.551  67.487  0.00  0.00     0.091 H 
ATOM     23  O1  non d ame     -10.920  18.122  64.857  0.00  0.00    -0.218 OA
ATOM     24  N1  non d ame     -11.270  16.894  64.555  0.00  0.00    -0.123 NA
BRANCH  21  25
ATOM     25  C3  non d ame      -9.794  19.435  66.693  0.00  0.00    -0.029 C 
ATOM     26  H2  non d ame      -9.860  19.322  67.776  0.00  0.00     0.036 H 
ATOM     27  H3  non d ame      -8.753  19.584  66.406  0.00  0.00     0.036 H 
ATOM     28  H4  non d ame     -10.383  20.299  66.382  0.00  0.00     0.036 H 
ENDBRANCH  21  25
ENDBRANCH  16  19
ENDBRANCH  13  15
BRANCH  13  29
ATOM     29  C8  non d ame     -11.992  11.854  63.252  0.00  0.00    -0.049 C 
ATOM     30  H7  non d ame     -13.048  11.994  63.484  0.00  0.00     0.030 H 
ATOM     31  H8  non d ame     -11.731  12.446  62.375  0.00  0.00     0.030 H 
ATOM     32  H9  non d ame     -11.803  10.800  63.049  0.00  0.00     0.030 H 
ENDBRANCH  13  29
ENDBRANCH  10  13
ENDBRANCH   7   9
BRANCH   7  33
ATOM     33  C11 non d ame      -6.848  11.229  66.718  0.00  0.00    -0.033 C 
ATOM     34  H12 non d ame      -6.852  10.497  67.526  0.00  0.00     0.042 H 
BRANCH  33  35
ATOM     35  C12 non d ame      -5.371  11.400  66.247  0.00  0.00    -0.071 C 
ATOM     36  H13 non d ame      -5.137  10.642  65.499  0.00  0.00     0.028 H 
ATOM     37  H14 non d ame      -5.241  12.391  65.811  0.00  0.00     0.028 H 
ATOM     38  H15 non d ame      -4.702  11.288  67.100  0.00  0.00     0.028 H 
ENDBRANCH  33  35
BRANCH  33  39
ATOM     39  C13 non d ame      -7.423  12.570  67.279  0.00  0.00    -0.071 C 
ATOM     40  H16 non d ame      -6.601  13.231  67.552  0.00  0.00     0.028 H 
ATOM     41  H17 non d ame      -8.037  13.049  66.516  0.00  0.00     0.028 H 
ATOM     42  H18 non d ame      -8.032  12.364  68.159  0.00  0.00     0.028 H 
ENDBRANCH  33  39
ENDBRANCH   7  33
ENDBRANCH   4   7
ENDBRANCH   1   3
BRANCH   1  43
ATOM     43  C15 non d ame      -7.549   6.658  67.760  0.00  0.00     0.240 C 
ATOM     44  O5  non d ame      -6.833   6.457  68.687  0.00  0.00    -0.271 OA
ATOM     45  N6  non d ame      -9.027   6.689  67.957  0.00  0.00    -0.355 N 
ATOM     46  H46 non d ame      -9.644   6.863  67.178  0.00  0.00     0.162 HD
BRANCH  45  47
ATOM     47  C20 non d ame      -9.591   6.461  69.305  0.00  0.00     0.013 C 
ATOM     48  H30 non d ame      -8.769   6.481  70.020  0.00  0.00     0.072 H 
BRANCH  47  49
ATOM     49  C21 non d ame     -10.274   5.113  69.339  0.00  0.00    -0.038 C 
ATOM     50  H31 non d ame     -10.702   5.025  70.338  0.00  0.00     0.036 H 
ATOM     51  H32 non d ame     -10.923   5.089  68.463  0.00  0.00     0.036 H 
BRANCH  49  52
ATOM     52  C22 non d ame      -9.286   3.936  69.183  0.00  0.00     0.018 C 
ATOM     53  H33 non d ame      -8.291   4.382  69.201  0.00  0.00     0.048 H 
ATOM     54  H34 non d ame      -9.571   3.209  69.944  0.00  0.00     0.048 H 
BRANCH  52  55
ATOM     55  C23 non d ame      -9.401   3.199  67.820  0.00  0.00     0.259 C 
ATOM     56  O7  non d ame      -9.690   2.047  67.780  0.00  0.00    -0.265 OA
BRANCH  55  57
ATOM     57  O8  non d ame      -9.144   3.913  66.617  0.00  0.00    -0.317 OA
BRANCH  57  58
ATOM     58  C29 non d ame     -10.322   4.274  65.891  0.00  0.00     0.052 C 
ATOM     59  H47 non d ame     -11.070   3.526  66.152  0.00  0.00     0.082 H 
ATOM     60  H48 non d ame     -10.499   5.325  66.119  0.00  0.00     0.082 H 
BRANCH  58  61
ATOM     61  C35 non d ame     -10.008   4.147  64.376  0.00  0.00    -0.034 A 
ATOM     62  C30 non d ame      -8.972   4.886  63.815  0.00  0.00    -0.075 A 
ATOM     63  C31 non d ame      -8.691   4.773  62.454  0.00  0.00    -0.082 A 
ATOM     64  H49 non d ame      -8.381   5.555  64.441  0.00  0.00     0.084 H 
ATOM     65  C32 non d ame      -9.452   3.917  61.653  0.00  0.00    -0.083 A 
ATOM     66  H50 non d ame      -7.877   5.352  62.018  0.00  0.00     0.083 H 
ATOM     67  C33 non d ame     -10.487   3.184  62.218  0.00  0.00    -0.082 A 
ATOM     68  H51 non d ame      -9.238   3.822  60.589  0.00  0.00     0.083 H 
ATOM     69  C34 non d ame     -10.770   3.293  63.577  0.00  0.00    -0.075 A 
ATOM     70  H52 non d ame     -11.080   2.519  61.589  0.00  0.00     0.083 H 
ATOM     71  H53 non d ame     -11.584   2.712  64.013  0.00  0.00     0.084 H 
ENDBRANCH  58  61
ENDBRANCH  57  58
ENDBRANCH  55  57
ENDBRANCH  52  55
ENDBRANCH  49  52
ENDBRANCH  47  49
BRANCH  47  72
ATOM     72  C24 non d ame     -10.605   7.555  69.631  0.00  0.00    -0.039 C 
ATOM     73  H35 non d ame     -10.442   8.334  68.886  0.00  0.00     0.036 H 
ATOM     74  H36 non d ame     -11.569   7.050  69.688  0.00  0.00     0.036 H 
BRANCH  72  75
ATOM     75  C25 non d ame     -10.330   8.210  71.067  0.00  0.00    -0.001 C 
ATOM     76  C26 non d ame      -9.532   7.139  72.027  0.00  0.00    -0.035 C 
ATOM     77  C27 non d ame     -10.190   7.036  73.206  0.00  0.00     0.085 C 
ATOM     78  H38 non d ame      -9.603   6.136  71.607  0.00  0.00     0.036 H 
ATOM     79  H39 non d ame      -8.561   7.543  72.311  0.00  0.00     0.036 H 
ATOM     80  N5  non d ame     -11.539   7.687  73.018  0.00  0.00    -0.049 N 
ATOM     81  H40 non d ame     -10.331   5.967  73.369  0.00  0.00     0.075 H 
ATOM     82  H41 non d ame      -9.608   7.623  73.916  0.00  0.00     0.075 H 
ATOM     83  C28 non d ame     -11.434   8.539  71.651  0.00  0.00     0.193 C 
ATOM     84  H42 non d ame     -12.202   6.937  72.880  0.00  0.00     0.280 HD
ATOM     85  H43 non d ame     -11.657   8.329  73.788  0.00  0.00     0.280 HD
ATOM     86  H44 non d ame     -11.326   9.623  71.681  0.00  0.00     0.129 H 
ATOM     87  H37 non d ame      -9.912   9.214  70.990  0.00  0.00     0.046 H 
BRANCH  83  88
ATOM     88  O6  non d ame     -12.574   8.290  70.826  0.00  0.00    -0.369 OA
ATOM     89  H45 non d ame     -13.187   7.717  71.292  0.00  0.00     0.212 HD
ENDBRANCH  83  88
ENDBRANCH  72  75
ENDBRANCH  47  72
ENDBRANCH  45  47
ENDBRANCH   1  43
BRANCH   1  90
ATOM     90  C16 non d ame      -5.582   6.217  66.257  0.00  0.00    -0.035 C 
ATOM     91  H21 non d ame      -4.864   7.025  66.108  0.00  0.00     0.037 H 
ATOM     92  H22 non d ame      -5.515   5.586  67.144  0.00  0.00     0.037 H 
BRANCH  90  93
ATOM     93  C17 non d ame      -5.439   5.267  65.026  0.00  0.00    -0.059 C 
ATOM     94  H23 non d ame      -6.306   4.606  65.016  0.00  0.00     0.038 H 
BRANCH  93  95
ATOM     95  C18 non d ame      -5.421   6.051  63.675  0.00  0.00    -0.073 C 
ATOM     96  H24 non d ame      -4.964   7.028  63.829  0.00  0.00     0.028 H 
ATOM     97  H25 non d ame      -4.845   5.492  62.938  0.00  0.00     0.028 H 
ATOM     98  H26 non d ame      -6.443   6.180  63.317  0.00  0.00     0.028 H 
ENDBRANCH  93  95
BRANCH  93  99
ATOM     99  C19 non d ame      -4.196   4.383  65.159  0.00  0.00    -0.073 C 
ATOM    100  H27 non d ame      -3.606   4.712  66.016  0.00  0.00     0.028 H 
ATOM    101  H28 non d ame      -4.501   3.347  65.304  0.00  0.00     0.028 H 
ATOM    102  H29 non d ame      -3.596   4.462  64.253  0.00  0.00     0.028 H 
ENDBRANCH  93  99
ENDBRANCH  90  93
ENDBRANCH   1  90
TORSDOF 26
ENDMDL
MODEL 10
REMARK VINA RESULT:      -6.4      2.201      5.122
REMARK  26 active torsions:
REMARK  status: ('A' for Active; 'I' for Inactive)
REMARK    1  A    between atoms: C2_2  and  C3_3 
REMARK    2  A    between atoms: C4_6  and  C5_7 
REMARK       I    between atoms: C5_7  and  N2_9 
REMARK    3  A    between atoms: N2_9  and  C6_10 
REMARK    4  A    between atoms: C6_10  and  C7_11 
REMARK    5  A    between atoms: C6_10  and  C8_13 
REMARK       I    between atoms: C7_11  and  N3_14 
REMARK    6  A    between atoms: N3_14  and  C9_15 
REMARK    7  A    between atoms: C9_15  and  C10_16 
REMARK    8  A    between atoms: C9_15  and  C11_18 
REMARK       I    between atoms: C10_16  and  N4_21 
REMARK    9  A    between atoms: C11_18  and  C12_19 
REMARK   10  A    between atoms: C11_18  and  C13_20 
REMARK   11  A    between atoms: N4_21  and  C14_22 
REMARK   12  A    between atoms: C14_22  and  C15_23 
REMARK   13  A    between atoms: C14_22  and  C16_25 
REMARK       I    between atoms: C15_23  and  N6_40 
REMARK   14  A    between atoms: C16_25  and  C17_26 
REMARK   15  A    between atoms: C17_26  and  C18_27 
REMARK   16  A    between atoms: C17_26  and  C19_28 
REMARK   17  A    between atoms: C20_29  and  C21_30 
REMARK   18  A    between atoms: C20_29  and  C24_33 
REMARK   19  A    between atoms: C20_29  and  N6_40 
REMARK   20  A    between atoms: C21_30  and  C22_31 
REMARK   21  A    between atoms: C22_31  and  C23_32 
REMARK   22  A    between atoms: C23_32  and  O8_43 
REMARK   23  A    between atoms: C24_33  and  C25_34 
REMARK   24  A    between atoms: C28_38  and  O6_39 
REMARK   25  A    between atoms: C29_42  and  O8_43 
REMARK   26  A    between atoms: C29_42  and  C35_49 
ROOT
ATOM      1  C14 non d ame     -10.472   8.739  69.296  0.00  0.00     0.089 C 
ATOM      2  H20 non d ame     -11.504   8.527  69.574  0.00  0.00     0.087 H 
ENDROOT
BRANCH   1   3
ATOM      3  N4  non d ame      -9.893   7.505  68.785  0.00  0.00    -0.346 N 
ATOM      4  C10 non d ame     -10.587   6.186  69.015  0.00  0.00     0.241 C 
ATOM      5  O4  non d ame     -11.609   6.143  69.617  0.00  0.00    -0.271 OA
ATOM      6  H19 non d ame      -9.022   7.563  68.277  0.00  0.00     0.163 HD
BRANCH   4   7
ATOM      7  C9  non d ame      -9.977   4.920  68.474  0.00  0.00     0.092 C 
ATOM      8  H11 non d ame     -10.637   4.500  67.715  0.00  0.00     0.088 H 
BRANCH   7   9
ATOM      9  N3  non d ame      -8.704   5.232  67.817  0.00  0.00    -0.346 N 
ATOM     10  C7  non d ame      -8.513   4.906  66.425  0.00  0.00     0.240 C 
ATOM     11  O3  non d ame      -9.373   4.393  65.819  0.00  0.00    -0.271 OA
ATOM     12  H10 non d ame      -7.953   5.673  68.328  0.00  0.00     0.163 HD
BRANCH  10  13
ATOM     13  C6  non d ame      -7.155   5.238  65.733  0.00  0.00     0.086 C 
ATOM     14  H6  non d ame      -7.214   5.191  64.645  0.00  0.00     0.086 H 
BRANCH  13  15
ATOM     15  N2  non d ame      -6.773   6.599  66.070  0.00  0.00    -0.343 N 
ATOM     16  C5  non d ame      -6.817   7.638  65.039  0.00  0.00     0.273 C 
ATOM     17  O2  non d ame      -7.158   7.367  63.940  0.00  0.00    -0.266 OA
ATOM     18  H5  non d ame      -6.481   6.821  67.012  0.00  0.00     0.163 HD
BRANCH  16  19
ATOM     19  C4  non d ame      -6.418   9.081  65.382  0.00  0.00     0.154 A 
ATOM     20  C1  non d ame      -6.815   9.839  66.530  0.00  0.00    -0.017 A 
ATOM     21  C2  non d ame      -6.184  11.093  66.374  0.00  0.00     0.077 A 
ATOM     22  H1  non d ame      -7.463   9.526  67.349  0.00  0.00     0.091 H 
ATOM     23  O1  non d ame      -5.505  11.049  65.265  0.00  0.00    -0.218 OA
ATOM     24  N1  non d ame      -5.626   9.886  64.668  0.00  0.00    -0.123 NA
BRANCH  21  25
ATOM     25  C3  non d ame      -6.279  12.275  67.329  0.00  0.00    -0.029 C 
ATOM     26  H2  non d ame      -7.110  12.120  68.018  0.00  0.00     0.036 H 
ATOM     27  H3  non d ame      -5.351  12.362  67.894  0.00  0.00     0.036 H 
ATOM     28  H4  non d ame      -6.445  13.190  66.760  0.00  0.00     0.036 H 
ENDBRANCH  21  25
ENDBRANCH  16  19
ENDBRANCH  13  15
BRANCH  13  29
ATOM     29  C8  non d ame      -6.098   4.273  66.206  0.00  0.00    -0.049 C 
ATOM     30  H7  non d ame      -6.509   3.263  66.223  0.00  0.00     0.030 H 
ATOM     31  H8  non d ame      -5.245   4.307  65.527  0.00  0.00     0.030 H 
ATOM     32  H9  non d ame      -5.776   4.550  67.209  0.00  0.00     0.030 H 
ENDBRANCH  13  29
ENDBRANCH  10  13
ENDBRANCH   7   9
BRANCH   7  33
ATOM     33  C11 non d ame      -9.724   3.925  69.645  0.00  0.00    -0.033 C 
ATOM     34  H12 non d ame     -10.659   3.821  70.195  0.00  0.00     0.042 H 
BRANCH  33  35
ATOM     35  C12 non d ame      -9.332   2.511  69.114  0.00  0.00    -0.071 C 
ATOM     36  H13 non d ame      -9.162   1.841  69.957  0.00  0.00     0.028 H 
ATOM     37  H14 non d ame     -10.139   2.118  68.496  0.00  0.00     0.028 H 
ATOM     38  H15 non d ame      -8.422   2.586  68.519  0.00  0.00     0.028 H 
ENDBRANCH  33  35
BRANCH  33  39
ATOM     39  C13 non d ame      -8.644   4.481  70.627  0.00  0.00    -0.071 C 
ATOM     40  H16 non d ame      -7.916   3.701  70.846  0.00  0.00     0.028 H 
ATOM     41  H17 non d ame      -8.138   5.331  70.168  0.00  0.00     0.028 H 
ATOM     42  H18 non d ame      -9.125   4.800  71.552  0.00  0.00     0.028 H 
ENDBRANCH  33  39
ENDBRANCH   7  33
ENDBRANCH   4   7
ENDBRANCH   1   3
BRANCH   1  43
ATOM     43  C15 non d ame     -10.374   9.828  68.189  0.00  0.00     0.240 C 
ATOM     44  O5  non d ame     -10.294   9.505  67.048  0.00  0.00    -0.271 OA
ATOM     45  N6  non d ame     -10.388  11.274  68.551  0.00  0.00    -0.355 N 
ATOM     46  H46 non d ame     -10.461  11.560  69.516  0.00  0.00     0.162 HD
BRANCH  45  47
ATOM     47  C20 non d ame     -10.296  12.297  67.487  0.00  0.00     0.013 C 
ATOM     48  H30 non d ame      -9.720  11.874  66.664  0.00  0.00     0.072 H 
BRANCH  47  49
ATOM     49  C21 non d ame      -9.597  13.522  68.031  0.00  0.00    -0.038 C 
ATOM     50  H31 non d ame     -10.139  13.792  68.937  0.00  0.00     0.036 H 
ATOM     51  H32 non d ame      -8.541  13.258  68.085  0.00  0.00     0.036 H 
BRANCH  49  52
ATOM     52  C22 non d ame      -9.695  14.738  67.084  0.00  0.00     0.018 C 
ATOM     53  H33 non d ame      -8.667  15.009  66.844  0.00  0.00     0.048 H 
ATOM     54  H34 non d ame     -10.379  14.439  66.289  0.00  0.00     0.048 H 
BRANCH  52  55
ATOM     55  C23 non d ame     -10.327  15.995  67.743  0.00  0.00     0.259 C 
ATOM     56  O7  non d ame      -9.869  17.074  67.546  0.00  0.00    -0.265 OA
BRANCH  55  57
ATOM     57  O8  non d ame     -11.455  15.842  68.596  0.00  0.00    -0.317 OA
BRANCH  57  58
ATOM     58  C29 non d ame     -11.231  16.277  69.940  0.00  0.00     0.052 C 
ATOM     59  H47 non d ame     -10.169  16.123  70.127  0.00  0.00     0.082 H 
ATOM     60  H48 non d ame     -11.655  17.280  70.000  0.00  0.00     0.082 H 
BRANCH  58  61
ATOM     61  C35 non d ame     -12.037  15.347  70.885  0.00  0.00    -0.034 A 
ATOM     62  C30 non d ame     -12.503  15.827  72.105  0.00  0.00    -0.075 A 
ATOM     63  C31 non d ame     -13.227  14.991  72.954  0.00  0.00    -0.082 A 
ATOM     64  H49 non d ame     -12.301  16.858  72.395  0.00  0.00     0.084 H 
ATOM     65  C32 non d ame     -13.482  13.669  72.580  0.00  0.00    -0.083 A 
ATOM     66  H50 non d ame     -13.592  15.371  73.908  0.00  0.00     0.083 H 
ATOM     67  C33 non d ame     -13.012  13.193  71.364  0.00  0.00    -0.082 A 
ATOM     68  H51 non d ame     -14.047  13.008  73.238  0.00  0.00     0.083 H 
ATOM     69  C34 non d ame     -12.290  14.026  70.511  0.00  0.00    -0.075 A 
ATOM     70  H52 non d ame     -13.211  12.160  71.076  0.00  0.00     0.083 H 
ATOM     71  H53 non d ame     -11.926  13.645  69.556  0.00  0.00     0.084 H 
ENDBRANCH  58  61
ENDBRANCH  57  58
ENDBRANCH  55  57
ENDBRANCH  52  55
ENDBRANCH  49  52
ENDBRANCH  47  49
BRANCH  47  72
ATOM     72  C24 non d ame     -11.697  12.677  67.013  0.00  0.00    -0.039 C 
ATOM     73  H35 non d ame     -12.381  12.148  67.677  0.00  0.00     0.036 H 
ATOM     74  H36 non d ame     -11.706  13.766  66.978  0.00  0.00     0.036 H 
BRANCH  72  75
ATOM     75  C25 non d ame     -11.982  12.154  65.526  0.00  0.00    -0.001 C 
ATOM     76  C26 non d ame     -10.564  11.780  64.782  0.00  0.00    -0.035 C 
ATOM     77  C27 non d ame     -10.522  12.406  63.582  0.00  0.00     0.085 C 
ATOM     78  H38 non d ame      -9.729  12.218  65.328  0.00  0.00     0.036 H 
ATOM     79  H39 non d ame     -10.548  10.722  64.519  0.00  0.00     0.036 H 
ATOM     80  N5  non d ame     -11.630  13.431  63.580  0.00  0.00    -0.049 N 
ATOM     81  H40 non d ame      -9.561  12.921  63.556  0.00  0.00     0.075 H 
ATOM     82  H41 non d ame     -10.748  11.637  62.844  0.00  0.00     0.075 H 
ATOM     83  C28 non d ame     -12.588  13.051  64.823  0.00  0.00     0.193 C 
ATOM     84  H42 non d ame     -11.196  14.323  63.769  0.00  0.00     0.280 HD
ATOM     85  H43 non d ame     -12.146  13.292  62.722  0.00  0.00     0.280 HD
ATOM     86  H44 non d ame     -13.545  12.558  64.653  0.00  0.00     0.129 H 
ATOM     87  H37 non d ame     -12.771  11.402  65.497  0.00  0.00     0.046 H 
BRANCH  83  88
ATOM     88  O6  non d ame     -12.891  14.221  65.586  0.00  0.00    -0.369 OA
ATOM     89  H45 non d ame     -12.717  15.002  65.057  0.00  0.00     0.212 HD
ENDBRANCH  83  88
ENDBRANCH  72  75
ENDBRANCH  47  72
ENDBRANCH  45  47
ENDBRANCH   1  43
BRANCH   1  90
ATOM     90  C16 non d ame      -9.689   9.184  70.521  0.00  0.00    -0.035 C 
ATOM     91  H21 non d ame      -8.818   8.529  70.561  0.00  0.00     0.037 H 
ATOM     92  H22 non d ame      -9.556  10.260  70.404  0.00  0.00     0.037 H 
BRANCH  90  93
ATOM     93  C17 non d ame     -10.458   8.978  71.865  0.00  0.00    -0.059 C 
ATOM     94  H23 non d ame     -10.120   9.746  72.560  0.00  0.00     0.038 H 
BRANCH  93  95
ATOM     95  C18 non d ame     -12.002   9.138  71.691  0.00  0.00    -0.073 C 
ATOM     96  H24 non d ame     -12.245   9.185  70.629  0.00  0.00     0.028 H 
ATOM     97  H25 non d ame     -12.509   8.284  72.142  0.00  0.00     0.028 H 
ATOM     98  H26 non d ame     -12.329  10.055  72.180  0.00  0.00     0.028 H 
ENDBRANCH  93  95
BRANCH  93  99
ATOM     99  C19 non d ame     -10.117   7.621  72.486  0.00  0.00    -0.073 C 
ATOM    100  H27 non d ame     -10.208   7.685  73.571  0.00  0.00     0.028 H 
ATOM    101  H28 non d ame     -10.807   6.865  72.108  0.00  0.00     0.028 H 
ATOM    102  H29 non d ame      -9.097   7.346  72.222  0.00  0.00     0.028 H 
ENDBRANCH  93  99
ENDBRANCH  90  93
ENDBRANCH   1  90
TORSDOF 26
ENDMDL
MODEL 11
REMARK VINA RESULT:      -6.4      2.565      9.351
REMARK  26 active torsions:
REMARK  status: ('A' for Active; 'I' for Inactive)
REMARK    1  A    between atoms: C2_2  and  C3_3 
REMARK    2  A    between atoms: C4_6  and  C5_7 
REMARK       I    between atoms: C5_7  and  N2_9 
REMARK    3  A    between atoms: N2_9  and  C6_10 
REMARK    4  A    between atoms: C6_10  and  C7_11 
REMARK    5  A    between atoms: C6_10  and  C8_13 
REMARK       I    between atoms: C7_11  and  N3_14 
REMARK    6  A    between atoms: N3_14  and  C9_15 
REMARK    7  A    between atoms: C9_15  and  C10_16 
REMARK    8  A    between atoms: C9_15  and  C11_18 
REMARK       I    between atoms: C10_16  and  N4_21 
REMARK    9  A    between atoms: C11_18  and  C12_19 
REMARK   10  A    between atoms: C11_18  and  C13_20 
REMARK   11  A    between atoms: N4_21  and  C14_22 
REMARK   12  A    between atoms: C14_22  and  C15_23 
REMARK   13  A    between atoms: C14_22  and  C16_25 
REMARK       I    between atoms: C15_23  and  N6_40 
REMARK   14  A    between atoms: C16_25  and  C17_26 
REMARK   15  A    between atoms: C17_26  and  C18_27 
REMARK   16  A    between atoms: C17_26  and  C19_28 
REMARK   17  A    between atoms: C20_29  and  C21_30 
REMARK   18  A    between atoms: C20_29  and  C24_33 
REMARK   19  A    between atoms: C20_29  and  N6_40 
REMARK   20  A    between atoms: C21_30  and  C22_31 
REMARK   21  A    between atoms: C22_31  and  C23_32 
REMARK   22  A    between atoms: C23_32  and  O8_43 
REMARK   23  A    between atoms: C24_33  and  C25_34 
REMARK   24  A    between atoms: C28_38  and  O6_39 
REMARK   25  A    between atoms: C29_42  and  O8_43 
REMARK   26  A    between atoms: C29_42  and  C35_49 
ROOT
ATOM      1  C14 non d ame      -8.750   9.465  69.520  0.00  0.00     0.089 C 
ATOM      2  H20 non d ame      -7.976   8.845  69.974  0.00  0.00     0.087 H 
ENDROOT
BRANCH   1   3
ATOM      3  N4  non d ame      -8.262  10.836  69.511  0.00  0.00    -0.346 N 
ATOM      4  C10 non d ame      -6.781  11.118  69.501  0.00  0.00     0.241 C 
ATOM      5  O4  non d ame      -6.000  10.225  69.504  0.00  0.00    -0.271 OA
ATOM      6  H19 non d ame      -8.943  11.583  69.511  0.00  0.00     0.163 HD
BRANCH   4   7
ATOM      7  C9  non d ame      -6.295  12.544  69.485  0.00  0.00     0.092 C 
ATOM      8  H11 non d ame      -5.655  12.695  68.616  0.00  0.00     0.088 H 
BRANCH   7   9
ATOM      9  N3  non d ame      -7.439  13.449  69.344  0.00  0.00    -0.346 N 
ATOM     10  C7  non d ame      -7.568  14.268  68.164  0.00  0.00     0.240 C 
ATOM     11  O3  non d ame      -6.761  14.211  67.318  0.00  0.00    -0.271 OA
ATOM     12  H10 non d ame      -8.143  13.510  70.066  0.00  0.00     0.163 HD
BRANCH  10  13
ATOM     13  C6  non d ame      -8.786  15.232  68.021  0.00  0.00     0.086 C 
ATOM     14  H6  non d ame      -9.486  14.916  67.247  0.00  0.00     0.086 H 
BRANCH  13  15
ATOM     15  N2  non d ame      -9.527  15.245  69.271  0.00  0.00    -0.343 N 
ATOM     16  C5  non d ame     -10.970  15.493  69.252  0.00  0.00     0.273 C 
ATOM     17  O2  non d ame     -11.526  15.684  68.226  0.00  0.00    -0.266 OA
ATOM     18  H5  non d ame      -9.044  15.083  70.144  0.00  0.00     0.163 HD
BRANCH  16  19
ATOM     19  C4  non d ame     -11.766  15.507  70.567  0.00  0.00     0.154 A 
ATOM     20  C1  non d ame     -11.239  15.497  71.897  0.00  0.00    -0.017 A 
ATOM     21  C2  non d ame     -12.374  15.519  72.738  0.00  0.00     0.077 A 
ATOM     22  H1  non d ame     -10.193  15.478  72.205  0.00  0.00     0.091 H 
ATOM     23  O1  non d ame     -13.424  15.540  71.971  0.00  0.00    -0.218 OA
ATOM     24  N1  non d ame     -13.095  15.534  70.700  0.00  0.00    -0.123 NA
BRANCH  21  25
ATOM     25  C3  non d ame     -12.368  15.518  74.261  0.00  0.00    -0.029 C 
ATOM     26  H2  non d ame     -12.865  16.417  74.627  0.00  0.00     0.036 H 
ATOM     27  H3  non d ame     -12.895  14.637  74.626  0.00  0.00     0.036 H 
ATOM     28  H4  non d ame     -11.338  15.500  74.620  0.00  0.00     0.036 H 
ENDBRANCH  21  25
ENDBRANCH  16  19
ENDBRANCH  13  15
BRANCH  13  29
ATOM     29  C8  non d ame      -8.297  16.621  67.697  0.00  0.00    -0.049 C 
ATOM     30  H7  non d ame      -7.406  16.839  68.286  0.00  0.00     0.030 H 
ATOM     31  H8  non d ame      -8.055  16.683  66.635  0.00  0.00     0.030 H 
ATOM     32  H9  non d ame      -9.075  17.345  67.935  0.00  0.00     0.030 H 
ENDBRANCH  13  29
ENDBRANCH  10  13
ENDBRANCH   7   9
BRANCH   7  33
ATOM     33  C11 non d ame      -5.553  12.853  70.819  0.00  0.00    -0.033 C 
ATOM     34  H12 non d ame      -5.896  12.132  71.560  0.00  0.00     0.042 H 
BRANCH  33  35
ATOM     35  C12 non d ame      -4.010  12.672  70.666  0.00  0.00    -0.071 C 
ATOM     36  H13 non d ame      -3.498  13.283  71.410  0.00  0.00     0.028 H 
ATOM     37  H14 non d ame      -3.751  11.624  70.817  0.00  0.00     0.028 H 
ATOM     38  H15 non d ame      -3.705  12.983  69.668  0.00  0.00     0.028 H 
ENDBRANCH  33  35
BRANCH  33  39
ATOM     39  C13 non d ame      -5.907  14.284  71.337  0.00  0.00    -0.071 C 
ATOM     40  H16 non d ame      -4.991  14.811  71.603  0.00  0.00     0.028 H 
ATOM     41  H17 non d ame      -6.429  14.835  70.554  0.00  0.00     0.028 H 
ATOM     42  H18 non d ame      -6.549  14.204  72.214  0.00  0.00     0.028 H 
ENDBRANCH  33  39
ENDBRANCH   7  33
ENDBRANCH   4   7
ENDBRANCH   1   3
BRANCH   1  43
ATOM     43  C15 non d ame      -9.060   9.040  68.056  0.00  0.00     0.240 C 
ATOM     44  O5  non d ame      -9.407   7.926  67.825  0.00  0.00    -0.271 OA
ATOM     45  N6  non d ame      -8.934  10.023  66.943  0.00  0.00    -0.355 N 
ATOM     46  H46 non d ame      -8.645  10.973  67.128  0.00  0.00     0.162 HD
BRANCH  45  47
ATOM     47  C20 non d ame      -9.234   9.603  65.557  0.00  0.00     0.013 C 
ATOM     48  H30 non d ame      -9.361   8.521  65.555  0.00  0.00     0.072 H 
BRANCH  47  49
ATOM     49  C21 non d ame      -8.082   9.990  64.657  0.00  0.00    -0.038 C 
ATOM     50  H31 non d ame      -8.283  11.016  64.347  0.00  0.00     0.036 H 
ATOM     51  H32 non d ame      -7.178   9.757  65.220  0.00  0.00     0.036 H 
BRANCH  49  52
ATOM     52  C22 non d ame      -8.022   9.147  63.365  0.00  0.00     0.018 C 
ATOM     53  H33 non d ame      -8.836   8.425  63.445  0.00  0.00     0.048 H 
ATOM     54  H34 non d ame      -8.009   9.865  62.544  0.00  0.00     0.048 H 
BRANCH  52  55
ATOM     55  C23 non d ame      -6.720   8.311  63.223  0.00  0.00     0.259 C 
ATOM     56  O7  non d ame      -5.666   8.849  63.114  0.00  0.00    -0.265 OA
BRANCH  55  57
ATOM     57  O8  non d ame      -6.802   6.891  63.212  0.00  0.00    -0.317 OA
BRANCH  57  58
ATOM     58  C29 non d ame      -7.283   6.326  64.435  0.00  0.00     0.052 C 
ATOM     59  H47 non d ame      -6.451   5.752  64.842  0.00  0.00     0.082 H 
ATOM     60  H48 non d ame      -7.700   7.158  65.001  0.00  0.00     0.082 H 
BRANCH  58  61
ATOM     61  C35 non d ame      -8.434   5.344  64.088  0.00  0.00    -0.034 A 
ATOM     62  C30 non d ame      -9.197   4.778  65.105  0.00  0.00    -0.075 A 
ATOM     63  C31 non d ame     -10.230   3.896  64.794  0.00  0.00    -0.082 A 
ATOM     64  H49 non d ame      -8.985   5.026  66.145  0.00  0.00     0.084 H 
ATOM     65  C32 non d ame     -10.498   3.577  63.460  0.00  0.00    -0.083 A 
ATOM     66  H50 non d ame     -10.828   3.456  65.592  0.00  0.00     0.083 H 
ATOM     67  C33 non d ame      -9.732   4.142  62.449  0.00  0.00    -0.082 A 
ATOM     68  H51 non d ame     -11.305   2.889  63.208  0.00  0.00     0.083 H 
ATOM     69  C34 non d ame      -8.700   5.026  62.755  0.00  0.00    -0.075 A 
ATOM     70  H52 non d ame      -9.943   3.890  61.409  0.00  0.00     0.083 H 
ATOM     71  H53 non d ame      -8.103   5.466  61.955  0.00  0.00     0.084 H 
ENDBRANCH  58  61
ENDBRANCH  57  58
ENDBRANCH  55  57
ENDBRANCH  52  55
ENDBRANCH  49  52
ENDBRANCH  47  49
BRANCH  47  72
ATOM     72  C24 non d ame     -10.511  10.289  65.075  0.00  0.00    -0.039 C 
ATOM     73  H35 non d ame     -10.749   9.820  64.120  0.00  0.00     0.036 H 
ATOM     74  H36 non d ame     -11.211  10.216  65.907  0.00  0.00     0.036 H 
BRANCH  72  75
ATOM     75  C25 non d ame     -10.275  11.848  64.791  0.00  0.00    -0.001 C 
ATOM     76  C26 non d ame     -11.144  12.749  65.857  0.00  0.00    -0.035 C 
ATOM     77  C27 non d ame     -11.871  13.660  65.168  0.00  0.00     0.085 C 
ATOM     78  H38 non d ame     -11.901  12.131  66.339  0.00  0.00     0.036 H 
ATOM     79  H39 non d ame     -10.475  13.361  66.461  0.00  0.00     0.036 H 
ATOM     80  N5  non d ame     -11.830  13.250  63.715  0.00  0.00    -0.049 N 
ATOM     81  H40 non d ame     -12.892  13.558  65.537  0.00  0.00     0.075 H 
ATOM     82  H41 non d ame     -11.341  14.605  65.285  0.00  0.00     0.075 H 
ATOM     83  C28 non d ame     -10.641  12.165  63.594  0.00  0.00     0.193 C 
ATOM     84  H42 non d ame     -12.708  12.789  63.523  0.00  0.00     0.280 HD
ATOM     85  H43 non d ame     -11.568  14.074  63.193  0.00  0.00     0.280 HD
ATOM     86  H44 non d ame      -9.680  12.443  63.160  0.00  0.00     0.129 H 
ATOM     87  H37 non d ame      -9.219  12.092  64.680  0.00  0.00     0.046 H 
BRANCH  83  88
ATOM     88  O6  non d ame     -11.084  11.030  62.847  0.00  0.00    -0.369 OA
ATOM     89  H45 non d ame     -10.363  10.402  62.762  0.00  0.00     0.212 HD
ENDBRANCH  83  88
ENDBRANCH  72  75
ENDBRANCH  47  72
ENDBRANCH  45  47
ENDBRANCH   1  43
BRANCH   1  90
ATOM     90  C16 non d ame     -10.019   9.395  70.353  0.00  0.00    -0.035 C 
ATOM     91  H21 non d ame     -10.015  10.300  70.962  0.00  0.00     0.037 H 
ATOM     92  H22 non d ame     -10.824   9.224  69.638  0.00  0.00     0.037 H 
BRANCH  90  93
ATOM     93  C17 non d ame     -10.050   8.193  71.349  0.00  0.00    -0.059 C 
ATOM     94  H23 non d ame      -9.733   7.304  70.804  0.00  0.00     0.038 H 
BRANCH  93  95
ATOM     95  C18 non d ame      -9.066   8.394  72.546  0.00  0.00    -0.073 C 
ATOM     96  H24 non d ame      -9.483   9.124  73.240  0.00  0.00     0.028 H 
ATOM     97  H25 non d ame      -8.922   7.444  73.061  0.00  0.00     0.028 H 
ATOM     98  H26 non d ame      -8.108   8.753  72.172  0.00  0.00     0.028 H 
ENDBRANCH  93  95
BRANCH  93  99
ATOM     99  C19 non d ame     -11.473   7.935  71.852  0.00  0.00    -0.073 C 
ATOM    100  H27 non d ame     -11.548   6.913  72.225  0.00  0.00     0.028 H 
ATOM    101  H28 non d ame     -11.706   8.634  72.656  0.00  0.00     0.028 H 
ATOM    102  H29 non d ame     -12.178   8.076  71.033  0.00  0.00     0.028 H 
ENDBRANCH  93  99
ENDBRANCH  90  93
ENDBRANCH   1  90
TORSDOF 26
ENDMDL
MODEL 12
REMARK VINA RESULT:      -6.4      2.337      6.154
REMARK  26 active torsions:
REMARK  status: ('A' for Active; 'I' for Inactive)
REMARK    1  A    between atoms: C2_2  and  C3_3 
REMARK    2  A    between atoms: C4_6  and  C5_7 
REMARK       I    between atoms: C5_7  and  N2_9 
REMARK    3  A    between atoms: N2_9  and  C6_10 
REMARK    4  A    between atoms: C6_10  and  C7_11 
REMARK    5  A    between atoms: C6_10  and  C8_13 
REMARK       I    between atoms: C7_11  and  N3_14 
REMARK    6  A    between atoms: N3_14  and  C9_15 
REMARK    7  A    between atoms: C9_15  and  C10_16 
REMARK    8  A    between atoms: C9_15  and  C11_18 
REMARK       I    between atoms: C10_16  and  N4_21 
REMARK    9  A    between atoms: C11_18  and  C12_19 
REMARK   10  A    between atoms: C11_18  and  C13_20 
REMARK   11  A    between atoms: N4_21  and  C14_22 
REMARK   12  A    between atoms: C14_22  and  C15_23 
REMARK   13  A    between atoms: C14_22  and  C16_25 
REMARK       I    between atoms: C15_23  and  N6_40 
REMARK   14  A    between atoms: C16_25  and  C17_26 
REMARK   15  A    between atoms: C17_26  and  C18_27 
REMARK   16  A    between atoms: C17_26  and  C19_28 
REMARK   17  A    between atoms: C20_29  and  C21_30 
REMARK   18  A    between atoms: C20_29  and  C24_33 
REMARK   19  A    between atoms: C20_29  and  N6_40 
REMARK   20  A    between atoms: C21_30  and  C22_31 
REMARK   21  A    between atoms: C22_31  and  C23_32 
REMARK   22  A    between atoms: C23_32  and  O8_43 
REMARK   23  A    between atoms: C24_33  and  C25_34 
REMARK   24  A    between atoms: C28_38  and  O6_39 
REMARK   25  A    between atoms: C29_42  and  O8_43 
REMARK   26  A    between atoms: C29_42  and  C35_49 
ROOT
ATOM      1  C14 non d ame     -10.370   8.460  68.826  0.00  0.00     0.089 C 
ATOM      2  H20 non d ame     -11.401   8.211  68.576  0.00  0.00     0.087 H 
ENDROOT
BRANCH   1   3
ATOM      3  N4  non d ame      -9.506   7.610  68.021  0.00  0.00    -0.346 N 
ATOM      4  C10 non d ame     -10.097   6.531  67.149  0.00  0.00     0.241 C 
ATOM      5  O4  non d ame     -11.271   6.364  67.115  0.00  0.00    -0.271 OA
ATOM      6  H19 non d ame      -8.509   7.767  68.066  0.00  0.00     0.163 HD
BRANCH   4   7
ATOM      7  C9  non d ame      -9.188   5.664  66.318  0.00  0.00     0.092 C 
ATOM      8  H11 non d ame      -9.741   5.286  65.458  0.00  0.00     0.088 H 
BRANCH   7   9
ATOM      9  N3  non d ame      -8.080   6.473  65.799  0.00  0.00    -0.346 N 
ATOM     10  C7  non d ame      -7.746   6.422  64.397  0.00  0.00     0.240 C 
ATOM     11  O3  non d ame      -8.356   5.735  63.672  0.00  0.00    -0.271 OA
ATOM     12  H10 non d ame      -7.544   7.069  66.413  0.00  0.00     0.163 HD
BRANCH  10  13
ATOM     13  C6  non d ame      -6.564   7.283  63.852  0.00  0.00     0.086 C 
ATOM     14  H6  non d ame      -6.825   7.832  62.948  0.00  0.00     0.086 H 
BRANCH  13  15
ATOM     15  N2  non d ame      -6.202   8.274  64.852  0.00  0.00    -0.343 N 
ATOM     16  C5  non d ame      -5.884   9.640  64.431  0.00  0.00     0.273 C 
ATOM     17  O2  non d ame      -5.919   9.931  63.285  0.00  0.00    -0.266 OA
ATOM     18  H5  non d ame      -6.172   8.016  65.828  0.00  0.00     0.163 HD
BRANCH  16  19
ATOM     19  C4  non d ame      -5.501  10.698  65.477  0.00  0.00     0.154 A 
ATOM     20  C1  non d ame      -6.282  11.129  66.596  0.00  0.00    -0.017 A 
ATOM     21  C2  non d ame      -5.489  12.107  67.238  0.00  0.00     0.077 A 
ATOM     22  H1  non d ame      -7.271  10.785  66.897  0.00  0.00     0.091 H 
ATOM     23  O1  non d ame      -4.384  12.216  66.559  0.00  0.00    -0.218 OA
ATOM     24  N1  non d ame      -4.369  11.405  65.527  0.00  0.00    -0.123 NA
BRANCH  21  25
ATOM     25  C3  non d ame      -5.859  12.887  68.492  0.00  0.00    -0.029 C 
ATOM     26  H2  non d ame      -5.808  12.228  69.359  0.00  0.00     0.036 H 
ATOM     27  H3  non d ame      -5.162  13.715  68.624  0.00  0.00     0.036 H 
ATOM     28  H4  non d ame      -6.872  13.278  68.392  0.00  0.00     0.036 H 
ENDBRANCH  21  25
ENDBRANCH  16  19
ENDBRANCH  13  15
BRANCH  13  29
ATOM     29  C8  non d ame      -5.384   6.392  63.557  0.00  0.00    -0.049 C 
ATOM     30  H7  non d ame      -5.532   5.898  62.597  0.00  0.00     0.030 H 
ATOM     31  H8  non d ame      -4.475   6.992  63.522  0.00  0.00     0.030 H 
ATOM     32  H9  non d ame      -5.293   5.640  64.341  0.00  0.00     0.030 H 
ENDBRANCH  13  29
ENDBRANCH  10  13
ENDBRANCH   7   9
BRANCH   7  33
ATOM     33  C11 non d ame      -8.619   4.514  67.199  0.00  0.00    -0.033 C 
ATOM     34  H12 non d ame      -8.819   4.768  68.240  0.00  0.00     0.042 H 
BRANCH  33  35
ATOM     35  C12 non d ame      -9.336   3.161  66.900  0.00  0.00    -0.071 C 
ATOM     36  H13 non d ame     -10.317   3.357  66.468  0.00  0.00     0.028 H 
ATOM     37  H14 non d ame      -8.739   2.582  66.196  0.00  0.00     0.028 H 
ATOM     38  H15 non d ame      -9.452   2.599  67.827  0.00  0.00     0.028 H 
ENDBRANCH  33  35
BRANCH  33  39
ATOM     39  C13 non d ame      -7.072   4.387  67.022  0.00  0.00    -0.071 C 
ATOM     40  H16 non d ame      -6.647   3.881  67.888  0.00  0.00     0.028 H 
ATOM     41  H17 non d ame      -6.855   3.811  66.122  0.00  0.00     0.028 H 
ATOM     42  H18 non d ame      -6.634   5.381  66.931  0.00  0.00     0.028 H 
ENDBRANCH  33  39
ENDBRANCH   7  33
ENDBRANCH   4   7
ENDBRANCH   1   3
BRANCH   1  43
ATOM     43  C15 non d ame     -10.033   9.947  68.514  0.00  0.00     0.240 C 
ATOM     44  O5  non d ame      -9.054  10.440  68.974  0.00  0.00    -0.271 OA
ATOM     45  N6  non d ame     -10.926  10.753  67.634  0.00  0.00    -0.355 N 
ATOM     46  H46 non d ame     -11.758  10.344  67.234  0.00  0.00     0.162 HD
BRANCH  45  47
ATOM     47  C20 non d ame     -10.591  12.164  67.346  0.00  0.00     0.013 C 
ATOM     48  H30 non d ame     -10.000  12.546  68.179  0.00  0.00     0.072 H 
BRANCH  47  49
ATOM     49  C21 non d ame     -11.868  12.963  67.211  0.00  0.00    -0.038 C 
ATOM     50  H31 non d ame     -12.414  12.508  66.384  0.00  0.00     0.036 H 
ATOM     51  H32 non d ame     -12.307  12.987  68.208  0.00  0.00     0.036 H 
BRANCH  49  52
ATOM     52  C22 non d ame     -11.615  14.433  66.810  0.00  0.00     0.018 C 
ATOM     53  H33 non d ame     -11.237  14.400  65.788  0.00  0.00     0.048 H 
ATOM     54  H34 non d ame     -12.542  14.963  67.031  0.00  0.00     0.048 H 
BRANCH  52  55
ATOM     55  C23 non d ame     -10.512  15.131  67.653  0.00  0.00     0.259 C 
ATOM     56  O7  non d ame      -9.500  15.489  67.144  0.00  0.00    -0.265 OA
BRANCH  55  57
ATOM     57  O8  non d ame     -10.719  15.327  69.047  0.00  0.00    -0.317 OA
BRANCH  57  58
ATOM     58  C29 non d ame     -11.991  15.895  69.372  0.00  0.00     0.052 C 
ATOM     59  H47 non d ame     -11.852  16.976  69.326  0.00  0.00     0.082 H 
ATOM     60  H48 non d ame     -12.709  15.410  68.711  0.00  0.00     0.082 H 
BRANCH  58  61
ATOM     61  C35 non d ame     -12.330  15.505  70.835  0.00  0.00    -0.034 A 
ATOM     62  C30 non d ame     -11.763  16.210  71.893  0.00  0.00    -0.075 A 
ATOM     63  C31 non d ame     -12.067  15.859  73.208  0.00  0.00    -0.082 A 
ATOM     64  H49 non d ame     -11.082  17.036  71.692  0.00  0.00     0.084 H 
ATOM     65  C32 non d ame     -12.940  14.798  73.463  0.00  0.00    -0.083 A 
ATOM     66  H50 non d ame     -11.624  16.415  74.034  0.00  0.00     0.083 H 
ATOM     67  C33 non d ame     -13.500  14.096  72.404  0.00  0.00    -0.082 A 
ATOM     68  H51 non d ame     -13.183  14.518  74.488  0.00  0.00     0.083 H 
ATOM     69  C34 non d ame     -13.201  14.444  71.089  0.00  0.00    -0.075 A 
ATOM     70  H52 non d ame     -14.179  13.267  72.607  0.00  0.00     0.083 H 
ATOM     71  H53 non d ame     -13.646  13.888  70.263  0.00  0.00     0.084 H 
ENDBRANCH  58  61
ENDBRANCH  57  58
ENDBRANCH  55  57
ENDBRANCH  52  55
ENDBRANCH  49  52
ENDBRANCH  47  49
BRANCH  47  72
ATOM     72  C24 non d ame      -9.795  12.251  66.046  0.00  0.00    -0.039 C 
ATOM     73  H35 non d ame      -9.833  13.300  65.752  0.00  0.00     0.036 H 
ATOM     74  H36 non d ame      -8.836  11.780  66.262  0.00  0.00     0.036 H 
BRANCH  72  75
ATOM     75  C25 non d ame     -10.483  11.406  64.872  0.00  0.00    -0.001 C 
ATOM     76  C26 non d ame      -9.597  10.056  64.560  0.00  0.00    -0.035 C 
ATOM     77  C27 non d ame      -9.351   9.994  63.230  0.00  0.00     0.085 C 
ATOM     78  H38 non d ame      -8.604  10.151  64.999  0.00  0.00     0.036 H 
ATOM     79  H39 non d ame     -10.194   9.164  64.751  0.00  0.00     0.036 H 
ATOM     80  N5  non d ame      -9.705  11.342  62.651  0.00  0.00    -0.049 N 
ATOM     81  H40 non d ame      -8.275   9.840  63.139  0.00  0.00     0.075 H 
ATOM     82  H41 non d ame     -10.042   9.248  62.840  0.00  0.00     0.075 H 
ATOM     83  C28 non d ame     -10.569  12.099  63.786  0.00  0.00     0.193 C 
ATOM     84  H42 non d ame      -8.834  11.838  62.526  0.00  0.00     0.280 HD
ATOM     85  H43 non d ame     -10.303  11.165  61.857  0.00  0.00     0.280 HD
ATOM     86  H44 non d ame     -11.652  12.186  63.691  0.00  0.00     0.129 H 
ATOM     87  H37 non d ame     -11.553  11.271  65.033  0.00  0.00     0.046 H 
BRANCH  83  88
ATOM     88  O6  non d ame     -10.092  13.435  63.959  0.00  0.00    -0.369 OA
ATOM     89  H45 non d ame     -10.383  13.770  64.810  0.00  0.00     0.212 HD
ENDBRANCH  83  88
ENDBRANCH  72  75
ENDBRANCH  47  72
ENDBRANCH  45  47
ENDBRANCH   1  43
BRANCH   1  90
ATOM     90  C16 non d ame     -10.113   8.176  70.297  0.00  0.00    -0.035 C 
ATOM     91  H21 non d ame      -9.325   7.423  70.313  0.00  0.00     0.037 H 
ATOM     92  H22 non d ame      -9.944   9.151  70.755  0.00  0.00     0.037 H 
BRANCH  90  93
ATOM     93  C17 non d ame     -11.338   7.548  71.037  0.00  0.00    -0.059 C 
ATOM     94  H23 non d ame     -12.065   7.253  70.281  0.00  0.00     0.038 H 
BRANCH  93  95
ATOM     95  C18 non d ame     -10.946   6.270  71.845  0.00  0.00    -0.073 C 
ATOM     96  H24 non d ame     -10.912   6.509  72.908  0.00  0.00     0.028 H 
ATOM     97  H25 non d ame     -11.686   5.489  71.671  0.00  0.00     0.028 H 
ATOM     98  H26 non d ame      -9.966   5.921  71.520  0.00  0.00     0.028 H 
ENDBRANCH  93  95
BRANCH  93  99
ATOM     99  C19 non d ame     -12.016   8.579  71.943  0.00  0.00    -0.073 C 
ATOM    100  H27 non d ame     -11.973   8.238  72.978  0.00  0.00     0.028 H 
ATOM    101  H28 non d ame     -11.502   9.536  71.853  0.00  0.00     0.028 H 
ATOM    102  H29 non d ame     -13.057   8.697  71.642  0.00  0.00     0.028 H 
ENDBRANCH  93  99
ENDBRANCH  90  93
ENDBRANCH   1  90
TORSDOF 26
ENDMDL
MODEL 13
REMARK VINA RESULT:      -6.3      3.247     10.140
REMARK  26 active torsions:
REMARK  status: ('A' for Active; 'I' for Inactive)
REMARK    1  A    between atoms: C2_2  and  C3_3 
REMARK    2  A    between atoms: C4_6  and  C5_7 
REMARK       I    between atoms: C5_7  and  N2_9 
REMARK    3  A    between atoms: N2_9  and  C6_10 
REMARK    4  A    between atoms: C6_10  and  C7_11 
REMARK    5  A    between atoms: C6_10  and  C8_13 
REMARK       I    between atoms: C7_11  and  N3_14 
REMARK    6  A    between atoms: N3_14  and  C9_15 
REMARK    7  A    between atoms: C9_15  and  C10_16 
REMARK    8  A    between atoms: C9_15  and  C11_18 
REMARK       I    between atoms: C10_16  and  N4_21 
REMARK    9  A    between atoms: C11_18  and  C12_19 
REMARK   10  A    between atoms: C11_18  and  C13_20 
REMARK   11  A    between atoms: N4_21  and  C14_22 
REMARK   12  A    between atoms: C14_22  and  C15_23 
REMARK   13  A    between atoms: C14_22  and  C16_25 
REMARK       I    between atoms: C15_23  and  N6_40 
REMARK   14  A    between atoms: C16_25  and  C17_26 
REMARK   15  A    between atoms: C17_26  and  C18_27 
REMARK   16  A    between atoms: C17_26  and  C19_28 
REMARK   17  A    between atoms: C20_29  and  C21_30 
REMARK   18  A    between atoms: C20_29  and  C24_33 
REMARK   19  A    between atoms: C20_29  and  N6_40 
REMARK   20  A    between atoms: C21_30  and  C22_31 
REMARK   21  A    between atoms: C22_31  and  C23_32 
REMARK   22  A    between atoms: C23_32  and  O8_43 
REMARK   23  A    between atoms: C24_33  and  C25_34 
REMARK   24  A    between atoms: C28_38  and  O6_39 
REMARK   25  A    between atoms: C29_42  and  O8_43 
REMARK   26  A    between atoms: C29_42  and  C35_49 
ROOT
ATOM      1  C14 non d ame      -6.771  13.680  68.306  0.00  0.00     0.089 C 
ATOM      2  H20 non d ame      -6.071  13.607  67.474  0.00  0.00     0.087 H 
ENDROOT
BRANCH   1   3
ATOM      3  N4  non d ame      -7.051  15.092  68.522  0.00  0.00    -0.346 N 
ATOM      4  C10 non d ame      -6.293  16.145  67.753  0.00  0.00     0.241 C 
ATOM      5  O4  non d ame      -5.460  15.831  66.968  0.00  0.00    -0.271 OA
ATOM      6  H19 non d ame      -7.761  15.338  69.196  0.00  0.00     0.163 HD
BRANCH   4   7
ATOM      7  C9  non d ame      -6.599  17.601  67.984  0.00  0.00     0.092 C 
ATOM      8  H11 non d ame      -6.272  18.178  67.119  0.00  0.00     0.088 H 
BRANCH   7   9
ATOM      9  N3  non d ame      -8.049  17.783  68.104  0.00  0.00    -0.346 N 
ATOM     10  C7  non d ame      -8.857  17.925  66.918  0.00  0.00     0.240 C 
ATOM     11  O3  non d ame      -8.357  17.896  65.860  0.00  0.00    -0.271 OA
ATOM     12  H10 non d ame      -8.494  17.811  69.010  0.00  0.00     0.163 HD
BRANCH  10  13
ATOM     13  C6  non d ame     -10.399  18.121  67.051  0.00  0.00     0.086 C 
ATOM     14  H6  non d ame     -10.961  17.578  66.291  0.00  0.00     0.086 H 
BRANCH  13  15
ATOM     15  N2  non d ame     -10.831  17.601  68.338  0.00  0.00    -0.343 N 
ATOM     16  C5  non d ame     -11.282  16.211  68.440  0.00  0.00     0.273 C 
ATOM     17  O2  non d ame     -11.296  15.521  67.480  0.00  0.00    -0.266 OA
ATOM     18  H5  non d ame     -10.818  18.199  69.152  0.00  0.00     0.163 HD
BRANCH  16  19
ATOM     19  C4  non d ame     -11.739  15.648  69.794  0.00  0.00     0.154 A 
ATOM     20  C1  non d ame     -12.501  14.458  70.023  0.00  0.00    -0.017 A 
ATOM     21  C2  non d ame     -12.653  14.388  71.426  0.00  0.00     0.077 A 
ATOM     22  H1  non d ame     -12.884  13.754  69.284  0.00  0.00     0.091 H 
ATOM     23  O1  non d ame     -12.045  15.420  71.933  0.00  0.00    -0.218 OA
ATOM     24  N1  non d ame     -11.505  16.170  71.001  0.00  0.00    -0.123 NA
BRANCH  21  25
ATOM     25  C3  non d ame     -13.392  13.304  72.199  0.00  0.00    -0.029 C 
ATOM     26  H2  non d ame     -14.406  13.639  72.417  0.00  0.00     0.036 H 
ATOM     27  H3  non d ame     -13.430  12.393  71.601  0.00  0.00     0.036 H 
ATOM     28  H4  non d ame     -12.867  13.102  73.134  0.00  0.00     0.036 H 
ENDBRANCH  21  25
ENDBRANCH  16  19
ENDBRANCH  13  15
BRANCH  13  29
ATOM     29  C8  non d ame     -10.732  19.588  66.949  0.00  0.00    -0.049 C 
ATOM     30  H7  non d ame     -11.435  19.745  66.131  0.00  0.00     0.030 H 
ATOM     31  H8  non d ame     -11.181  19.925  67.883  0.00  0.00     0.030 H 
ATOM     32  H9  non d ame      -9.821  20.154  66.757  0.00  0.00     0.030 H 
ENDBRANCH  13  29
ENDBRANCH  10  13
ENDBRANCH   7   9
BRANCH   7  33
ATOM     33  C11 non d ame      -5.909  18.074  69.298  0.00  0.00    -0.033 C 
ATOM     34  H12 non d ame      -6.230  17.404  70.096  0.00  0.00     0.042 H 
BRANCH  33  35
ATOM     35  C12 non d ame      -4.356  17.970  69.193  0.00  0.00    -0.071 C 
ATOM     36  H13 non d ame      -3.897  18.698  69.863  0.00  0.00     0.028 H 
ATOM     37  H14 non d ame      -4.039  16.966  69.478  0.00  0.00     0.028 H 
ATOM     38  H15 non d ame      -4.046  18.172  68.169  0.00  0.00     0.028 H 
ENDBRANCH  33  35
BRANCH  33  39
ATOM     39  C13 non d ame      -6.356  19.523  69.674  0.00  0.00    -0.071 C 
ATOM     40  H16 non d ame      -6.107  20.203  68.859  0.00  0.00     0.028 H 
ATOM     41  H17 non d ame      -7.433  19.539  69.844  0.00  0.00     0.028 H 
ATOM     42  H18 non d ame      -5.841  19.838  70.581  0.00  0.00     0.028 H 
ENDBRANCH  33  39
ENDBRANCH   7  33
ENDBRANCH   4   7
ENDBRANCH   1   3
BRANCH   1  43
ATOM     43  C15 non d ame      -8.112  12.949  68.011  0.00  0.00     0.240 C 
ATOM     44  O5  non d ame      -9.131  13.390  68.435  0.00  0.00    -0.271 OA
ATOM     45  N6  non d ame      -8.127  11.704  67.192  0.00  0.00    -0.355 N 
ATOM     46  H46 non d ame      -7.268  11.322  66.823  0.00  0.00     0.162 HD
BRANCH  45  47
ATOM     47  C20 non d ame      -9.410  11.021  66.919  0.00  0.00     0.013 C 
ATOM     48  H30 non d ame     -10.216  11.706  67.180  0.00  0.00     0.072 H 
BRANCH  47  49
ATOM     49  C21 non d ame      -9.500   9.770  67.763  0.00  0.00    -0.038 C 
ATOM     50  H31 non d ame      -8.538   9.271  67.653  0.00  0.00     0.036 H 
ATOM     51  H32 non d ame      -9.834  10.102  68.746  0.00  0.00     0.036 H 
BRANCH  49  52
ATOM     52  C22 non d ame     -10.568   8.778  67.252  0.00  0.00     0.018 C 
ATOM     53  H33 non d ame     -11.461   8.973  67.847  0.00  0.00     0.048 H 
ATOM     54  H34 non d ame     -10.595   8.906  66.169  0.00  0.00     0.048 H 
BRANCH  52  55
ATOM     55  C23 non d ame     -10.206   7.287  67.498  0.00  0.00     0.259 C 
ATOM     56  O7  non d ame     -10.731   6.427  66.868  0.00  0.00    -0.265 OA
BRANCH  55  57
ATOM     57  O8  non d ame      -9.246   6.958  68.496  0.00  0.00    -0.317 OA
BRANCH  57  58
ATOM     58  C29 non d ame      -9.749   6.104  69.527  0.00  0.00     0.052 C 
ATOM     59  H47 non d ame     -10.357   5.356  69.020  0.00  0.00     0.082 H 
ATOM     60  H48 non d ame      -8.878   5.797  70.106  0.00  0.00     0.082 H 
BRANCH  58  61
ATOM     61  C35 non d ame     -10.673   6.951  70.443  0.00  0.00    -0.034 A 
ATOM     62  C30 non d ame     -10.181   8.095  71.061  0.00  0.00    -0.075 A 
ATOM     63  C31 non d ame     -11.010   8.856  71.884  0.00  0.00    -0.082 A 
ATOM     64  H49 non d ame      -9.146   8.397  70.902  0.00  0.00     0.084 H 
ATOM     65  C32 non d ame     -12.337   8.466  72.089  0.00  0.00    -0.083 A 
ATOM     66  H50 non d ame     -10.623   9.754  72.366  0.00  0.00     0.083 H 
ATOM     67  C33 non d ame     -12.822   7.321  71.472  0.00  0.00    -0.082 A 
ATOM     68  H51 non d ame     -12.992   9.055  72.730  0.00  0.00     0.083 H 
ATOM     69  C34 non d ame     -11.997   6.559  70.647  0.00  0.00    -0.075 A 
ATOM     70  H52 non d ame     -13.857   7.018  71.636  0.00  0.00     0.083 H 
ATOM     71  H53 non d ame     -12.386   5.662  70.166  0.00  0.00     0.084 H 
ENDBRANCH  58  61
ENDBRANCH  57  58
ENDBRANCH  55  57
ENDBRANCH  52  55
ENDBRANCH  49  52
ENDBRANCH  47  49
BRANCH  47  72
ATOM     72  C24 non d ame      -9.491  10.646  65.440  0.00  0.00    -0.039 C 
ATOM     73  H35 non d ame      -8.459  10.494  65.123  0.00  0.00     0.036 H 
ATOM     74  H36 non d ame     -10.204   9.823  65.389  0.00  0.00     0.036 H 
BRANCH  72  75
ATOM     75  C25 non d ame     -10.086  11.843  64.557  0.00  0.00    -0.001 C 
ATOM     76  C26 non d ame     -11.414  12.475  65.292  0.00  0.00    -0.035 C 
ATOM     77  C27 non d ame     -12.430  12.517  64.397  0.00  0.00     0.085 C 
ATOM     78  H38 non d ame     -11.778  11.792  66.059  0.00  0.00     0.036 H 
ATOM     79  H39 non d ame     -11.243  13.525  65.534  0.00  0.00     0.036 H 
ATOM     80  N5  non d ame     -12.014  11.672  63.218  0.00  0.00    -0.049 N 
ATOM     81  H40 non d ame     -13.276  12.042  64.895  0.00  0.00     0.075 H 
ATOM     82  H41 non d ame     -12.497  13.558  64.082  0.00  0.00     0.075 H 
ATOM     83  C28 non d ame     -10.426  11.432  63.381  0.00  0.00     0.193 C 
ATOM     84  H42 non d ame     -12.486  10.785  63.321  0.00  0.00     0.280 HD
ATOM     85  H43 non d ame     -12.170  12.234  62.393  0.00  0.00     0.280 HD
ATOM     86  H44 non d ame      -9.716  11.983  62.765  0.00  0.00     0.129 H 
ATOM     87  H37 non d ame      -9.314  12.544  64.238  0.00  0.00     0.046 H 
BRANCH  83  88
ATOM     88  O6  non d ame     -10.113  10.052  63.181  0.00  0.00    -0.369 OA
ATOM     89  H45 non d ame     -10.875   9.602  62.809  0.00  0.00     0.212 HD
ENDBRANCH  83  88
ENDBRANCH  72  75
ENDBRANCH  47  72
ENDBRANCH  45  47
ENDBRANCH   1  43
BRANCH   1  90
ATOM     90  C16 non d ame      -6.140  13.102  69.563  0.00  0.00    -0.035 C 
ATOM     91  H21 non d ame      -5.705  13.954  70.086  0.00  0.00     0.037 H 
ATOM     92  H22 non d ame      -6.927  12.516  70.038  0.00  0.00     0.037 H 
BRANCH  90  93
ATOM     93  C17 non d ame      -4.965  12.113  69.276  0.00  0.00    -0.059 C 
ATOM     94  H23 non d ame      -5.386  11.110  69.214  0.00  0.00     0.038 H 
BRANCH  93  95
ATOM     95  C18 non d ame      -4.257  12.418  67.917  0.00  0.00    -0.073 C 
ATOM     96  H24 non d ame      -4.575  11.691  67.171  0.00  0.00     0.028 H 
ATOM     97  H25 non d ame      -4.524  13.422  67.585  0.00  0.00     0.028 H 
ATOM     98  H26 non d ame      -3.176  12.355  68.049  0.00  0.00     0.028 H 
ENDBRANCH  93  95
BRANCH  93  99
ATOM     99  C19 non d ame      -3.957  12.114  70.428  0.00  0.00    -0.073 C 
ATOM    100  H27 non d ame      -3.817  13.133  70.788  0.00  0.00     0.028 H 
ATOM    101  H28 non d ame      -4.333  11.490  71.239  0.00  0.00     0.028 H 
ATOM    102  H29 non d ame      -3.004  11.717  70.077  0.00  0.00     0.028 H 
ENDBRANCH  93  99
ENDBRANCH  90  93
ENDBRANCH   1  90
TORSDOF 26
ENDMDL
MODEL 14
REMARK VINA RESULT:      -6.3      2.992      7.839
REMARK  26 active torsions:
REMARK  status: ('A' for Active; 'I' for Inactive)
REMARK    1  A    between atoms: C2_2  and  C3_3 
REMARK    2  A    between atoms: C4_6  and  C5_7 
REMARK       I    between atoms: C5_7  and  N2_9 
REMARK    3  A    between atoms: N2_9  and  C6_10 
REMARK    4  A    between atoms: C6_10  and  C7_11 
REMARK    5  A    between atoms: C6_10  and  C8_13 
REMARK       I    between atoms: C7_11  and  N3_14 
REMARK    6  A    between atoms: N3_14  and  C9_15 
REMARK    7  A    between atoms: C9_15  and  C10_16 
REMARK    8  A    between atoms: C9_15  and  C11_18 
REMARK       I    between atoms: C10_16  and  N4_21 
REMARK    9  A    between atoms: C11_18  and  C12_19 
REMARK   10  A    between atoms: C11_18  and  C13_20 
REMARK   11  A    between atoms: N4_21  and  C14_22 
REMARK   12  A    between atoms: C14_22  and  C15_23 
REMARK   13  A    between atoms: C14_22  and  C16_25 
REMARK       I    between atoms: C15_23  and  N6_40 
REMARK   14  A    between atoms: C16_25  and  C17_26 
REMARK   15  A    between atoms: C17_26  and  C18_27 
REMARK   16  A    between atoms: C17_26  and  C19_28 
REMARK   17  A    between atoms: C20_29  and  C21_30 
REMARK   18  A    between atoms: C20_29  and  C24_33 
REMARK   19  A    between atoms: C20_29  and  N6_40 
REMARK   20  A    between atoms: C21_30  and  C22_31 
REMARK   21  A    between atoms: C22_31  and  C23_32 
REMARK   22  A    between atoms: C23_32  and  O8_43 
REMARK   23  A    between atoms: C24_33  and  C25_34 
REMARK   24  A    between atoms: C28_38  and  O6_39 
REMARK   25  A    between atoms: C29_42  and  O8_43 
REMARK   26  A    between atoms: C29_42  and  C35_49 
ROOT
ATOM      1  C14 non d ame      -6.670   8.294  66.669  0.00  0.00     0.089 C 
ATOM      2  H20 non d ame      -7.066   7.279  66.712  0.00  0.00     0.087 H 
ENDROOT
BRANCH   1   3
ATOM      3  N4  non d ame      -7.050   8.860  65.383  0.00  0.00    -0.346 N 
ATOM      4  C10 non d ame      -8.174   8.249  64.585  0.00  0.00     0.241 C 
ATOM      5  O4  non d ame      -8.757   7.301  64.997  0.00  0.00    -0.271 OA
ATOM      6  H19 non d ame      -6.540   9.665  65.049  0.00  0.00     0.163 HD
BRANCH   4   7
ATOM      7  C9  non d ame      -8.558   8.850  63.258  0.00  0.00     0.092 C 
ATOM      8  H11 non d ame      -8.837   8.052  62.570  0.00  0.00     0.088 H 
BRANCH   7   9
ATOM      9  N3  non d ame      -9.737   9.704  63.432  0.00  0.00    -0.346 N 
ATOM     10  C7  non d ame      -9.668  10.862  64.289  0.00  0.00     0.240 C 
ATOM     11  O3  non d ame      -8.673  11.121  64.848  0.00  0.00    -0.271 OA
ATOM     12  H10 non d ame     -10.603   9.493  62.957  0.00  0.00     0.163 HD
BRANCH  10  13
ATOM     13  C6  non d ame     -10.927  11.766  64.471  0.00  0.00     0.086 C 
ATOM     14  H6  non d ame     -11.533  11.476  65.329  0.00  0.00     0.086 H 
BRANCH  13  15
ATOM     15  N2  non d ame     -10.495  13.133  64.710  0.00  0.00    -0.343 N 
ATOM     16  C5  non d ame     -11.342  14.029  65.501  0.00  0.00     0.273 C 
ATOM     17  O2  non d ame     -12.369  13.641  65.938  0.00  0.00    -0.266 OA
ATOM     18  H5  non d ame      -9.616  13.457  64.331  0.00  0.00     0.163 HD
BRANCH  16  19
ATOM     19  C4  non d ame     -10.897  15.477  65.763  0.00  0.00     0.154 A 
ATOM     20  C1  non d ame     -10.448  16.032  67.003  0.00  0.00    -0.017 A 
ATOM     21  C2  non d ame     -10.162  17.385  66.713  0.00  0.00     0.077 A 
ATOM     22  H1  non d ame     -10.345  15.531  67.966  0.00  0.00     0.091 H 
ATOM     23  O1  non d ame     -10.419  17.573  65.452  0.00  0.00    -0.218 OA
ATOM     24  N1  non d ame     -10.850  16.474  64.876  0.00  0.00    -0.123 NA
BRANCH  21  25
ATOM     25  C3  non d ame      -9.648  18.429  67.696  0.00  0.00    -0.029 C 
ATOM     26  H2  non d ame      -8.562  18.362  67.761  0.00  0.00     0.036 H 
ATOM     27  H3  non d ame      -9.931  19.423  67.351  0.00  0.00     0.036 H 
ATOM     28  H4  non d ame     -10.083  18.248  68.679  0.00  0.00     0.036 H 
ENDBRANCH  21  25
ENDBRANCH  16  19
ENDBRANCH  13  15
BRANCH  13  29
ATOM     29  C8  non d ame     -11.779  11.703  63.229  0.00  0.00    -0.049 C 
ATOM     30  H7  non d ame     -12.658  12.334  63.359  0.00  0.00     0.030 H 
ATOM     31  H8  non d ame     -11.201  12.056  62.374  0.00  0.00     0.030 H 
ATOM     32  H9  non d ame     -12.093  10.674  63.056  0.00  0.00     0.030 H 
ENDBRANCH  13  29
ENDBRANCH  10  13
ENDBRANCH   7   9
BRANCH   7  33
ATOM     33  C11 non d ame      -7.376   9.706  62.716  0.00  0.00    -0.033 C 
ATOM     34  H12 non d ame      -7.116  10.432  63.485  0.00  0.00     0.042 H 
BRANCH  33  35
ATOM     35  C12 non d ame      -6.113   8.828  62.452  0.00  0.00    -0.071 C 
ATOM     36  H13 non d ame      -5.651   8.563  63.403  0.00  0.00     0.028 H 
ATOM     37  H14 non d ame      -6.406   7.920  61.925  0.00  0.00     0.028 H 
ATOM     38  H15 non d ame      -5.402   9.388  61.846  0.00  0.00     0.028 H 
ENDBRANCH  33  35
BRANCH  33  39
ATOM     39  C13 non d ame      -7.798  10.491  61.432  0.00  0.00    -0.071 C 
ATOM     40  H16 non d ame      -6.963  10.519  60.733  0.00  0.00     0.028 H 
ATOM     41  H17 non d ame      -8.648   9.994  60.964  0.00  0.00     0.028 H 
ATOM     42  H18 non d ame      -8.078  11.509  61.705  0.00  0.00     0.028 H 
ENDBRANCH  33  39
ENDBRANCH   7  33
ENDBRANCH   4   7
ENDBRANCH   1   3
BRANCH   1  43
ATOM     43  C15 non d ame      -7.246   9.198  67.797  0.00  0.00     0.240 C 
ATOM     44  O5  non d ame      -6.879   9.050  68.918  0.00  0.00    -0.271 OA
ATOM     45  N6  non d ame      -8.250  10.252  67.478  0.00  0.00    -0.355 N 
ATOM     46  H46 non d ame      -8.566  10.390  66.529  0.00  0.00     0.162 HD
BRANCH  45  47
ATOM     47  C20 non d ame      -8.788  11.104  68.561  0.00  0.00     0.013 C 
ATOM     48  H30 non d ame      -8.168  10.953  69.445  0.00  0.00     0.072 H 
BRANCH  47  49
ATOM     49  C21 non d ame     -10.214  10.697  68.856  0.00  0.00    -0.038 C 
ATOM     50  H31 non d ame     -10.679  11.567  69.319  0.00  0.00     0.036 H 
ATOM     51  H32 non d ame     -10.607  10.303  67.918  0.00  0.00     0.036 H 
BRANCH  49  52
ATOM     52  C22 non d ame     -10.310   9.550  69.885  0.00  0.00     0.018 C 
ATOM     53  H33 non d ame     -10.564   8.658  69.311  0.00  0.00     0.048 H 
ATOM     54  H34 non d ame      -9.381   9.586  70.454  0.00  0.00     0.048 H 
BRANCH  52  55
ATOM     55  C23 non d ame     -11.454   9.732  70.921  0.00  0.00     0.259 C 
ATOM     56  O7  non d ame     -11.429   9.148  71.955  0.00  0.00    -0.265 OA
BRANCH  55  57
ATOM     57  O8  non d ame     -12.540  10.598  70.614  0.00  0.00    -0.317 OA
BRANCH  57  58
ATOM     58  C29 non d ame     -13.113  11.241  71.757  0.00  0.00     0.052 C 
ATOM     59  H47 non d ame     -14.155  10.925  71.781  0.00  0.00     0.082 H 
ATOM     60  H48 non d ame     -12.452  11.005  72.590  0.00  0.00     0.082 H 
BRANCH  58  61
ATOM     61  C35 non d ame     -13.070  12.773  71.515  0.00  0.00    -0.034 A 
ATOM     62  C30 non d ame     -12.333  13.291  70.455  0.00  0.00    -0.075 A 
ATOM     63  C31 non d ame     -12.294  14.668  70.238  0.00  0.00    -0.082 A 
ATOM     64  H49 non d ame     -11.787  12.618  69.793  0.00  0.00     0.084 H 
ATOM     65  C32 non d ame     -12.993  15.528  71.088  0.00  0.00    -0.083 A 
ATOM     66  H50 non d ame     -11.718  15.070  69.404  0.00  0.00     0.083 H 
ATOM     67  C33 non d ame     -13.724  15.007  72.147  0.00  0.00    -0.082 A 
ATOM     68  H51 non d ame     -12.969  16.606  70.925  0.00  0.00     0.083 H 
ATOM     69  C34 non d ame     -13.768  13.632  72.366  0.00  0.00    -0.075 A 
ATOM     70  H52 non d ame     -14.267  15.681  72.810  0.00  0.00     0.083 H 
ATOM     71  H53 non d ame     -14.345  13.230  73.200  0.00  0.00     0.084 H 
ENDBRANCH  58  61
ENDBRANCH  57  58
ENDBRANCH  55  57
ENDBRANCH  52  55
ENDBRANCH  49  52
ENDBRANCH  47  49
BRANCH  47  72
ATOM     72  C24 non d ame      -8.754  12.569  68.132  0.00  0.00    -0.039 C 
ATOM     73  H35 non d ame      -8.654  12.551  67.046  0.00  0.00     0.036 H 
ATOM     74  H36 non d ame      -9.631  13.026  68.590  0.00  0.00     0.036 H 
BRANCH  72  75
ATOM     75  C25 non d ame      -7.467  13.327  68.712  0.00  0.00    -0.001 C 
ATOM     76  C26 non d ame      -7.890  14.827  69.238  0.00  0.00    -0.035 C 
ATOM     77  C27 non d ame      -7.052  15.735  68.684  0.00  0.00     0.085 C 
ATOM     78  H38 non d ame      -8.866  15.102  68.837  0.00  0.00     0.036 H 
ATOM     79  H39 non d ame      -7.695  14.918  70.306  0.00  0.00     0.036 H 
ATOM     80  N5  non d ame      -6.306  15.031  67.577  0.00  0.00    -0.049 N 
ATOM     81  H40 non d ame      -7.698  16.499  68.248  0.00  0.00     0.075 H 
ATOM     82  H41 non d ame      -6.349  16.001  69.472  0.00  0.00     0.075 H 
ATOM     83  C28 non d ame      -6.552  13.452  67.810  0.00  0.00     0.193 C 
ATOM     84  H42 non d ame      -6.753  15.302  66.713  0.00  0.00     0.280 HD
ATOM     85  H43 non d ame      -5.326  15.228  67.722  0.00  0.00     0.280 HD
ATOM     86  H44 non d ame      -5.767  12.827  68.236  0.00  0.00     0.129 H 
ATOM     87  H37 non d ame      -6.896  12.703  69.400  0.00  0.00     0.046 H 
BRANCH  83  88
ATOM     88  O6  non d ame      -6.917  12.823  66.581  0.00  0.00    -0.369 OA
ATOM     89  H45 non d ame      -7.698  12.282  66.718  0.00  0.00     0.212 HD
ENDBRANCH  83  88
ENDBRANCH  72  75
ENDBRANCH  47  72
ENDBRANCH  45  47
ENDBRANCH   1  43
BRANCH   1  90
ATOM     90  C16 non d ame      -5.153   8.260  66.767  0.00  0.00    -0.035 C 
ATOM     91  H21 non d ame      -4.827   9.279  66.557  0.00  0.00     0.037 H 
ATOM     92  H22 non d ame      -4.937   7.807  67.735  0.00  0.00     0.037 H 
BRANCH  90  93
ATOM     93  C17 non d ame      -4.477   7.350  65.693  0.00  0.00    -0.059 C 
ATOM     94  H23 non d ame      -4.735   7.748  64.712  0.00  0.00     0.038 H 
BRANCH  93  95
ATOM     95  C18 non d ame      -2.919   7.354  65.813  0.00  0.00    -0.073 C 
ATOM     96  H24 non d ame      -2.549   8.374  65.704  0.00  0.00     0.028 H 
ATOM     97  H25 non d ame      -2.629   6.966  66.790  0.00  0.00     0.028 H 
ATOM     98  H26 non d ame      -2.492   6.727  65.031  0.00  0.00     0.028 H 
ENDBRANCH  93  95
BRANCH  93  99
ATOM     99  C19 non d ame      -5.024   5.922  65.763  0.00  0.00    -0.073 C 
ATOM    100  H27 non d ame      -4.675   5.443  66.679  0.00  0.00     0.028 H 
ATOM    101  H28 non d ame      -6.114   5.950  65.760  0.00  0.00     0.028 H 
ATOM    102  H29 non d ame      -4.673   5.356  64.901  0.00  0.00     0.028 H 
ENDBRANCH  93  99
ENDBRANCH  90  93
ENDBRANCH   1  90
TORSDOF 26
ENDMDL
MODEL 15
REMARK VINA RESULT:      -6.3      2.646      9.833
REMARK  26 active torsions:
REMARK  status: ('A' for Active; 'I' for Inactive)
REMARK    1  A    between atoms: C2_2  and  C3_3 
REMARK    2  A    between atoms: C4_6  and  C5_7 
REMARK       I    between atoms: C5_7  and  N2_9 
REMARK    3  A    between atoms: N2_9  and  C6_10 
REMARK    4  A    between atoms: C6_10  and  C7_11 
REMARK    5  A    between atoms: C6_10  and  C8_13 
REMARK       I    between atoms: C7_11  and  N3_14 
REMARK    6  A    between atoms: N3_14  and  C9_15 
REMARK    7  A    between atoms: C9_15  and  C10_16 
REMARK    8  A    between atoms: C9_15  and  C11_18 
REMARK       I    between atoms: C10_16  and  N4_21 
REMARK    9  A    between atoms: C11_18  and  C12_19 
REMARK   10  A    between atoms: C11_18  and  C13_20 
REMARK   11  A    between atoms: N4_21  and  C14_22 
REMARK   12  A    between atoms: C14_22  and  C15_23 
REMARK   13  A    between atoms: C14_22  and  C16_25 
REMARK       I    between atoms: C15_23  and  N6_40 
REMARK   14  A    between atoms: C16_25  and  C17_26 
REMARK   15  A    between atoms: C17_26  and  C18_27 
REMARK   16  A    between atoms: C17_26  and  C19_28 
REMARK   17  A    between atoms: C20_29  and  C21_30 
REMARK   18  A    between atoms: C20_29  and  C24_33 
REMARK   19  A    between atoms: C20_29  and  N6_40 
REMARK   20  A    between atoms: C21_30  and  C22_31 
REMARK   21  A    between atoms: C22_31  and  C23_32 
REMARK   22  A    between atoms: C23_32  and  O8_43 
REMARK   23  A    between atoms: C24_33  and  C25_34 
REMARK   24  A    between atoms: C28_38  and  O6_39 
REMARK   25  A    between atoms: C29_42  and  O8_43 
REMARK   26  A    between atoms: C29_42  and  C35_49 
ROOT
ATOM      1  C14 non d ame     -10.335  11.043  64.561  0.00  0.00     0.089 C 
ATOM      2  H20 non d ame     -11.330  10.612  64.674  0.00  0.00     0.087 H 
ENDROOT
BRANCH   1   3
ATOM      3  N4  non d ame      -9.782  11.226  65.895  0.00  0.00    -0.346 N 
ATOM      4  C10 non d ame     -10.666  11.102  67.110  0.00  0.00     0.241 C 
ATOM      5  O4  non d ame     -11.821  10.858  66.989  0.00  0.00    -0.271 OA
ATOM      6  H19 non d ame      -8.797  11.435  65.976  0.00  0.00     0.163 HD
BRANCH   4   7
ATOM      7  C9  non d ame     -10.075  11.288  68.483  0.00  0.00     0.092 C 
ATOM      8  H11 non d ame      -8.988  11.294  68.407  0.00  0.00     0.088 H 
BRANCH   7   9
ATOM      9  N3  non d ame     -10.480  12.592  69.016  0.00  0.00    -0.346 N 
ATOM     10  C7  non d ame      -9.933  13.802  68.453  0.00  0.00     0.240 C 
ATOM     11  O3  non d ame      -9.165  13.745  67.571  0.00  0.00    -0.271 OA
ATOM     12  H10 non d ame     -11.140  12.658  69.778  0.00  0.00     0.163 HD
BRANCH  10  13
ATOM     13  C6  non d ame     -10.365  15.187  69.027  0.00  0.00     0.086 C 
ATOM     14  H6  non d ame      -9.829  15.451  69.939  0.00  0.00     0.086 H 
BRANCH  13  15
ATOM     15  N2  non d ame     -10.056  16.219  68.051  0.00  0.00    -0.343 N 
ATOM     16  C5  non d ame      -8.820  16.992  68.184  0.00  0.00     0.273 C 
ATOM     17  O2  non d ame      -8.081  16.778  69.081  0.00  0.00    -0.266 OA
ATOM     18  H5  non d ame     -10.695  16.397  67.288  0.00  0.00     0.163 HD
BRANCH  16  19
ATOM     19  C4  non d ame      -8.480  18.085  67.158  0.00  0.00     0.154 A 
ATOM     20  C1  non d ame      -7.181  18.578  66.818  0.00  0.00    -0.017 A 
ATOM     21  C2  non d ame      -7.413  19.565  65.833  0.00  0.00     0.077 A 
ATOM     22  H1  non d ame      -6.217  18.268  67.223  0.00  0.00     0.091 H 
ATOM     23  O1  non d ame      -8.697  19.622  65.637  0.00  0.00    -0.218 OA
ATOM     24  N1  non d ame      -9.342  18.768  66.399  0.00  0.00    -0.123 NA
BRANCH  21  25
ATOM     25  C3  non d ame      -6.353  20.404  65.132  0.00  0.00    -0.029 C 
ATOM     26  H2  non d ame      -5.455  19.805  64.981  0.00  0.00     0.036 H 
ATOM     27  H3  non d ame      -6.735  20.737  64.166  0.00  0.00     0.036 H 
ATOM     28  H4  non d ame      -6.112  21.273  65.745  0.00  0.00     0.036 H 
ENDBRANCH  21  25
ENDBRANCH  16  19
ENDBRANCH  13  15
BRANCH  13  29
ATOM     29  C8  non d ame     -11.844  15.175  69.316  0.00  0.00    -0.049 C 
ATOM     30  H7  non d ame     -12.151  16.155  69.684  0.00  0.00     0.030 H 
ATOM     31  H8  non d ame     -12.391  14.943  68.403  0.00  0.00     0.030 H 
ATOM     32  H9  non d ame     -12.060  14.420  70.072  0.00  0.00     0.030 H 
ENDBRANCH  13  29
ENDBRANCH  10  13
ENDBRANCH   7   9
BRANCH   7  33
ATOM     33  C11 non d ame     -10.591  10.162  69.426  0.00  0.00    -0.033 C 
ATOM     34  H12 non d ame     -11.031   9.386  68.801  0.00  0.00     0.042 H 
BRANCH  33  35
ATOM     35  C12 non d ame      -9.421   9.512  70.228  0.00  0.00    -0.071 C 
ATOM     36  H13 non d ame      -8.582  10.207  70.274  0.00  0.00     0.028 H 
ATOM     37  H14 non d ame      -9.757   9.282  71.239  0.00  0.00     0.028 H 
ATOM     38  H15 non d ame      -9.106   8.595  69.731  0.00  0.00     0.028 H 
ENDBRANCH  33  35
BRANCH  33  39
ATOM     39  C13 non d ame     -11.703  10.700  70.383  0.00  0.00    -0.071 C 
ATOM     40  H16 non d ame     -11.433  10.479  71.415  0.00  0.00     0.028 H 
ATOM     41  H17 non d ame     -11.801  11.779  70.257  0.00  0.00     0.028 H 
ATOM     42  H18 non d ame     -12.651  10.219  70.144  0.00  0.00     0.028 H 
ENDBRANCH  33  39
ENDBRANCH   7  33
ENDBRANCH   4   7
ENDBRANCH   1   3
BRANCH   1  43
ATOM     43  C15 non d ame      -9.383  10.116  63.752  0.00  0.00     0.240 C 
ATOM     44  O5  non d ame      -9.132  10.371  62.619  0.00  0.00    -0.271 OA
ATOM     45  N6  non d ame      -8.776   8.915  64.394  0.00  0.00    -0.355 N 
ATOM     46  H46 non d ame      -8.978   8.691  65.357  0.00  0.00     0.162 HD
BRANCH  45  47
ATOM     47  C20 non d ame      -7.872   8.045  63.612  0.00  0.00     0.013 C 
ATOM     48  H30 non d ame      -8.031   8.259  62.555  0.00  0.00     0.072 H 
BRANCH  47  49
ATOM     49  C21 non d ame      -8.198   6.597  63.901  0.00  0.00    -0.038 C 
ATOM     50  H31 non d ame      -9.287   6.534  63.900  0.00  0.00     0.036 H 
ATOM     51  H32 non d ame      -7.618   6.016  63.184  0.00  0.00     0.036 H 
BRANCH  49  52
ATOM     52  C22 non d ame      -7.736   6.147  65.304  0.00  0.00     0.018 C 
ATOM     53  H33 non d ame      -7.768   5.057  65.290  0.00  0.00     0.048 H 
ATOM     54  H34 non d ame      -6.792   6.662  65.482  0.00  0.00     0.048 H 
BRANCH  52  55
ATOM     55  C23 non d ame      -8.688   6.589  66.449  0.00  0.00     0.259 C 
ATOM     56  O7  non d ame      -8.458   7.570  67.080  0.00  0.00    -0.265 OA
BRANCH  55  57
ATOM     57  O8  non d ame      -9.835   5.802  66.745  0.00  0.00    -0.317 OA
BRANCH  57  58
ATOM     58  C29 non d ame      -9.605   4.782  67.721  0.00  0.00     0.052 C 
ATOM     59  H47 non d ame     -10.214   3.933  67.410  0.00  0.00     0.082 H 
ATOM     60  H48 non d ame      -8.522   4.679  67.791  0.00  0.00     0.082 H 
BRANCH  58  61
ATOM     61  C35 non d ame     -10.138   5.296  69.085  0.00  0.00    -0.034 A 
ATOM     62  C30 non d ame     -11.232   6.154  69.127  0.00  0.00    -0.075 A 
ATOM     63  C31 non d ame     -11.711   6.616  70.352  0.00  0.00    -0.082 A 
ATOM     64  H49 non d ame     -11.714   6.465  68.200  0.00  0.00     0.084 H 
ATOM     65  C32 non d ame     -11.089   6.218  71.539  0.00  0.00    -0.083 A 
ATOM     66  H50 non d ame     -12.570   7.286  70.382  0.00  0.00     0.083 H 
ATOM     67  C33 non d ame      -9.996   5.364  71.492  0.00  0.00    -0.082 A 
ATOM     68  H51 non d ame     -11.458   6.573  72.501  0.00  0.00     0.083 H 
ATOM     69  C34 non d ame      -9.515   4.898  70.270  0.00  0.00    -0.075 A 
ATOM     70  H52 non d ame      -9.512   5.057  72.420  0.00  0.00     0.083 H 
ATOM     71  H53 non d ame      -8.657   4.227  70.242  0.00  0.00     0.084 H 
ENDBRANCH  58  61
ENDBRANCH  57  58
ENDBRANCH  55  57
ENDBRANCH  52  55
ENDBRANCH  49  52
ENDBRANCH  47  49
BRANCH  47  72
ATOM     72  C24 non d ame      -6.422   8.327  63.997  0.00  0.00    -0.039 C 
ATOM     73  H35 non d ame      -6.474   8.889  64.931  0.00  0.00     0.036 H 
ATOM     74  H36 non d ame      -5.921   7.360  63.972  0.00  0.00     0.036 H 
BRANCH  72  75
ATOM     75  C25 non d ame      -5.694   9.265  62.922  0.00  0.00    -0.001 C 
ATOM     76  C26 non d ame      -4.174   8.710  62.631  0.00  0.00    -0.035 C 
ATOM     77  C27 non d ame      -3.300   9.735  62.773  0.00  0.00     0.085 C 
ATOM     78  H38 non d ame      -3.876   8.011  63.413  0.00  0.00     0.036 H 
ATOM     79  H39 non d ame      -4.071   8.430  61.583  0.00  0.00     0.036 H 
ATOM     80  N5  non d ame      -4.045  10.860  63.451  0.00  0.00    -0.049 N 
ATOM     81  H40 non d ame      -2.524   9.367  63.445  0.00  0.00     0.075 H 
ATOM     82  H41 non d ame      -3.043  10.040  61.759  0.00  0.00     0.075 H 
ATOM     83  C28 non d ame      -5.611  10.483  63.343  0.00  0.00     0.193 C 
ATOM     84  H42 non d ame      -3.775  10.836  64.423  0.00  0.00     0.280 HD
ATOM     85  H43 non d ame      -3.875  11.689  62.899  0.00  0.00     0.280 HD
ATOM     86  H44 non d ame      -6.254  10.987  62.621  0.00  0.00     0.129 H 
ATOM     87  H37 non d ame      -6.324   9.464  62.054  0.00  0.00     0.046 H 
BRANCH  83  88
ATOM     88  O6  non d ame      -6.249  10.660  64.609  0.00  0.00    -0.369 OA
ATOM     89  H45 non d ame      -5.587  10.864  65.275  0.00  0.00     0.212 HD
ENDBRANCH  83  88
ENDBRANCH  72  75
ENDBRANCH  47  72
ENDBRANCH  45  47
ENDBRANCH   1  43
BRANCH   1  90
ATOM     90  C16 non d ame     -10.435  12.397  63.876  0.00  0.00    -0.035 C 
ATOM     91  H21 non d ame      -9.901  13.090  64.527  0.00  0.00     0.037 H 
ATOM     92  H22 non d ame     -10.087  12.230  62.856  0.00  0.00     0.037 H 
BRANCH  90  93
ATOM     93  C17 non d ame     -11.897  12.935  63.761  0.00  0.00    -0.059 C 
ATOM     94  H23 non d ame     -11.946  13.572  62.879  0.00  0.00     0.038 H 
BRANCH  93  95
ATOM     95  C18 non d ame     -12.936  11.783  63.576  0.00  0.00    -0.073 C 
ATOM     96  H24 non d ame     -13.622  12.039  62.769  0.00  0.00     0.028 H 
ATOM     97  H25 non d ame     -12.413  10.858  63.329  0.00  0.00     0.028 H 
ATOM     98  H26 non d ame     -13.497  11.648  64.501  0.00  0.00     0.028 H 
ENDBRANCH  93  95
BRANCH  93  99
ATOM     99  C19 non d ame     -12.256  13.803  64.970  0.00  0.00    -0.073 C 
ATOM    100  H27 non d ame     -12.574  13.164  65.795  0.00  0.00     0.028 H 
ATOM    101  H28 non d ame     -11.383  14.381  65.274  0.00  0.00     0.028 H 
ATOM    102  H29 non d ame     -13.065  14.482  64.703  0.00  0.00     0.028 H 
ENDBRANCH  93  99
ENDBRANCH  90  93
ENDBRANCH   1  90
TORSDOF 26
ENDMDL
MODEL 16
REMARK VINA RESULT:      -6.3      2.583      9.387
REMARK  26 active torsions:
REMARK  status: ('A' for Active; 'I' for Inactive)
REMARK    1  A    between atoms: C2_2  and  C3_3 
REMARK    2  A    between atoms: C4_6  and  C5_7 
REMARK       I    between atoms: C5_7  and  N2_9 
REMARK    3  A    between atoms: N2_9  and  C6_10 
REMARK    4  A    between atoms: C6_10  and  C7_11 
REMARK    5  A    between atoms: C6_10  and  C8_13 
REMARK       I    between atoms: C7_11  and  N3_14 
REMARK    6  A    between atoms: N3_14  and  C9_15 
REMARK    7  A    between atoms: C9_15  and  C10_16 
REMARK    8  A    between atoms: C9_15  and  C11_18 
REMARK       I    between atoms: C10_16  and  N4_21 
REMARK    9  A    between atoms: C11_18  and  C12_19 
REMARK   10  A    between atoms: C11_18  and  C13_20 
REMARK   11  A    between atoms: N4_21  and  C14_22 
REMARK   12  A    between atoms: C14_22  and  C15_23 
REMARK   13  A    between atoms: C14_22  and  C16_25 
REMARK       I    between atoms: C15_23  and  N6_40 
REMARK   14  A    between atoms: C16_25  and  C17_26 
REMARK   15  A    between atoms: C17_26  and  C18_27 
REMARK   16  A    between atoms: C17_26  and  C19_28 
REMARK   17  A    between atoms: C20_29  and  C21_30 
REMARK   18  A    between atoms: C20_29  and  C24_33 
REMARK   19  A    between atoms: C20_29  and  N6_40 
REMARK   20  A    between atoms: C21_30  and  C22_31 
REMARK   21  A    between atoms: C22_31  and  C23_32 
REMARK   22  A    between atoms: C23_32  and  O8_43 
REMARK   23  A    between atoms: C24_33  and  C25_34 
REMARK   24  A    between atoms: C28_38  and  O6_39 
REMARK   25  A    between atoms: C29_42  and  O8_43 
REMARK   26  A    between atoms: C29_42  and  C35_49 
ROOT
ATOM      1  C14 non d ame      -5.602  10.889  66.098  0.00  0.00     0.089 C 
ATOM      2  H20 non d ame      -5.131  11.571  65.390  0.00  0.00     0.087 H 
ENDROOT
BRANCH   1   3
ATOM      3  N4  non d ame      -6.139  11.689  67.188  0.00  0.00    -0.346 N 
ATOM      4  C10 non d ame      -5.373  12.881  67.706  0.00  0.00     0.241 C 
ATOM      5  O4  non d ame      -4.325  13.174  67.232  0.00  0.00    -0.271 OA
ATOM      6  H19 non d ame      -7.031  11.422  67.580  0.00  0.00     0.163 HD
BRANCH   4   7
ATOM      7  C9  non d ame      -5.946  13.702  68.831  0.00  0.00     0.092 C 
ATOM      8  H11 non d ame      -5.686  14.749  68.679  0.00  0.00     0.088 H 
BRANCH   7   9
ATOM      9  N3  non d ame      -7.409  13.610  68.808  0.00  0.00    -0.346 N 
ATOM     10  C7  non d ame      -8.190  14.691  68.257  0.00  0.00     0.240 C 
ATOM     11  O3  non d ame      -7.657  15.641  67.830  0.00  0.00    -0.271 OA
ATOM     12  H10 non d ame      -7.883  12.797  69.175  0.00  0.00     0.163 HD
BRANCH  10  13
ATOM     13  C6  non d ame      -9.746  14.589  68.238  0.00  0.00     0.086 C 
ATOM     14  H6  non d ame     -10.101  13.615  67.900  0.00  0.00     0.086 H 
BRANCH  13  15
ATOM     15  N2  non d ame     -10.247  14.768  69.590  0.00  0.00    -0.343 N 
ATOM     16  C5  non d ame     -11.642  14.437  69.893  0.00  0.00     0.273 C 
ATOM     17  O2  non d ame     -12.353  14.030  69.041  0.00  0.00    -0.266 OA
ATOM     18  H5  non d ame      -9.633  15.119  70.312  0.00  0.00     0.163 HD
BRANCH  16  19
ATOM     19  C4  non d ame     -12.184  14.620  71.319  0.00  0.00     0.154 A 
ATOM     20  C1  non d ame     -11.630  15.434  72.357  0.00  0.00    -0.017 A 
ATOM     21  C2  non d ame     -12.495  15.256  73.460  0.00  0.00     0.077 A 
ATOM     22  H1  non d ame     -10.737  16.058  72.317  0.00  0.00     0.091 H 
ATOM     23  O1  non d ame     -13.434  14.436  73.087  0.00  0.00    -0.218 OA
ATOM     24  N1  non d ame     -13.274  14.050  71.842  0.00  0.00    -0.123 NA
BRANCH  21  25
ATOM     25  C3  non d ame     -12.355  15.906  74.830  0.00  0.00    -0.029 C 
ATOM     26  H2  non d ame     -11.304  15.927  75.117  0.00  0.00     0.036 H 
ATOM     27  H3  non d ame     -12.741  16.924  74.790  0.00  0.00     0.036 H 
ATOM     28  H4  non d ame     -12.921  15.332  75.564  0.00  0.00     0.036 H 
ENDBRANCH  21  25
ENDBRANCH  16  19
ENDBRANCH  13  15
BRANCH  13  29
ATOM     29  C8  non d ame     -10.311  15.654  67.333  0.00  0.00    -0.049 C 
ATOM     30  H7  non d ame     -11.209  16.077  67.784  0.00  0.00     0.030 H 
ATOM     31  H8  non d ame      -9.571  16.441  67.191  0.00  0.00     0.030 H 
ATOM     32  H9  non d ame     -10.564  15.214  66.368  0.00  0.00     0.030 H 
ENDBRANCH  13  29
ENDBRANCH  10  13
ENDBRANCH   7   9
BRANCH   7  33
ATOM     33  C11 non d ame      -5.417  13.159  70.191  0.00  0.00    -0.033 C 
ATOM     34  H12 non d ame      -4.328  13.172  70.149  0.00  0.00     0.042 H 
BRANCH  33  35
ATOM     35  C12 non d ame      -5.851  14.076  71.377  0.00  0.00    -0.071 C 
ATOM     36  H13 non d ame      -6.045  15.082  71.006  0.00  0.00     0.028 H 
ATOM     37  H14 non d ame      -6.758  13.676  71.831  0.00  0.00     0.028 H 
ATOM     38  H15 non d ame      -5.055  14.109  72.120  0.00  0.00     0.028 H 
ENDBRANCH  33  35
BRANCH  33  39
ATOM     39  C13 non d ame      -5.874  11.682  70.420  0.00  0.00    -0.071 C 
ATOM     40  H16 non d ame      -6.659  11.658  71.175  0.00  0.00     0.028 H 
ATOM     41  H17 non d ame      -6.256  11.271  69.485  0.00  0.00     0.028 H 
ATOM     42  H18 non d ame      -5.025  11.088  70.758  0.00  0.00     0.028 H 
ENDBRANCH  33  39
ENDBRANCH   7  33
ENDBRANCH   4   7
ENDBRANCH   1   3
BRANCH   1  43
ATOM     43  C15 non d ame      -6.768  10.087  65.452  0.00  0.00     0.240 C 
ATOM     44  O5  non d ame      -6.637   9.624  64.365  0.00  0.00    -0.271 OA
ATOM     45  N6  non d ame      -8.047   9.888  66.192  0.00  0.00    -0.355 N 
ATOM     46  H46 non d ame      -8.168  10.271  67.118  0.00  0.00     0.162 HD
BRANCH  45  47
ATOM     47  C20 non d ame      -9.145   9.122  65.565  0.00  0.00     0.013 C 
ATOM     48  H30 non d ame      -8.716   8.502  64.778  0.00  0.00     0.072 H 
BRANCH  47  49
ATOM     49  C21 non d ame     -10.152  10.083  64.975  0.00  0.00    -0.038 C 
ATOM     50  H31 non d ame      -9.795  10.302  63.968  0.00  0.00     0.036 H 
ATOM     51  H32 non d ame     -11.125   9.615  65.118  0.00  0.00     0.036 H 
BRANCH  49  52
ATOM     52  C22 non d ame     -10.201  11.433  65.724  0.00  0.00     0.018 C 
ATOM     53  H33 non d ame      -9.490  11.342  66.544  0.00  0.00     0.048 H 
ATOM     54  H34 non d ame     -10.059  12.199  64.961  0.00  0.00     0.048 H 
BRANCH  52  55
ATOM     55  C23 non d ame     -11.577  11.734  66.381  0.00  0.00     0.259 C 
ATOM     56  O7  non d ame     -12.332  12.500  65.876  0.00  0.00    -0.265 OA
BRANCH  55  57
ATOM     57  O8  non d ame     -11.920  11.092  67.603  0.00  0.00    -0.317 OA
BRANCH  57  58
ATOM     58  C29 non d ame     -10.855  11.050  68.558  0.00  0.00     0.052 C 
ATOM     59  H47 non d ame     -10.085  10.420  68.112  0.00  0.00     0.082 H 
ATOM     60  H48 non d ame     -10.636  12.089  68.802  0.00  0.00     0.082 H 
BRANCH  58  61
ATOM     61  C35 non d ame     -11.385  10.347  69.836  0.00  0.00    -0.034 A 
ATOM     62  C30 non d ame     -10.681   9.282  70.388  0.00  0.00    -0.075 A 
ATOM     63  C31 non d ame     -11.157   8.650  71.536  0.00  0.00    -0.082 A 
ATOM     64  H49 non d ame      -9.755   8.943  69.922  0.00  0.00     0.084 H 
ATOM     65  C32 non d ame     -12.344   9.085  72.130  0.00  0.00    -0.083 A 
ATOM     66  H50 non d ame     -10.601   7.818  71.968  0.00  0.00     0.083 H 
ATOM     67  C33 non d ame     -13.046  10.146  71.573  0.00  0.00    -0.082 A 
ATOM     68  H51 non d ame     -12.723   8.598  73.028  0.00  0.00     0.083 H 
ATOM     69  C34 non d ame     -12.573  10.782  70.428  0.00  0.00    -0.075 A 
ATOM     70  H52 non d ame     -13.973  10.482  72.038  0.00  0.00     0.083 H 
ATOM     71  H53 non d ame     -13.129  11.615  69.997  0.00  0.00     0.084 H 
ENDBRANCH  58  61
ENDBRANCH  57  58
ENDBRANCH  55  57
ENDBRANCH  52  55
ENDBRANCH  49  52
ENDBRANCH  47  49
BRANCH  47  72
ATOM     72  C24 non d ame      -9.830   8.247  66.614  0.00  0.00    -0.039 C 
ATOM     73  H35 non d ame      -9.584   8.700  67.575  0.00  0.00     0.036 H 
ATOM     74  H36 non d ame     -10.870   8.174  66.297  0.00  0.00     0.036 H 
BRANCH  72  75
ATOM     75  C25 non d ame      -9.234   6.760  66.626  0.00  0.00    -0.001 C 
ATOM     76  C26 non d ame      -8.242   6.544  65.333  0.00  0.00    -0.035 C 
ATOM     77  C27 non d ame      -8.615   5.417  64.681  0.00  0.00     0.085 C 
ATOM     78  H38 non d ame      -8.408   7.331  64.598  0.00  0.00     0.036 H 
ATOM     79  H39 non d ame      -7.230   6.319  65.671  0.00  0.00     0.036 H 
ATOM     80  N5  non d ame      -9.970   5.024  65.217  0.00  0.00    -0.049 N 
ATOM     81  H40 non d ame      -8.717   5.707  63.634  0.00  0.00     0.075 H 
ATOM     82  H41 non d ame      -7.886   4.660  64.968  0.00  0.00     0.075 H 
ATOM     83  C28 non d ame     -10.176   5.879  66.571  0.00  0.00     0.193 C 
ATOM     84  H42 non d ame     -10.648   5.333  64.536  0.00  0.00     0.280 HD
ATOM     85  H43 non d ame      -9.908   4.046  65.461  0.00  0.00     0.280 HD
ATOM     86  H44 non d ame     -10.062   5.406  67.547  0.00  0.00     0.129 H 
ATOM     87  H37 non d ame      -8.842   6.481  67.604  0.00  0.00     0.046 H 
BRANCH  83  88
ATOM     88  O6  non d ame     -11.474   6.475  66.585  0.00  0.00    -0.369 OA
ATOM     89  H45 non d ame     -11.613   6.958  65.766  0.00  0.00     0.212 HD
ENDBRANCH  83  88
ENDBRANCH  72  75
ENDBRANCH  47  72
ENDBRANCH  45  47
ENDBRANCH   1  43
BRANCH   1  90
ATOM     90  C16 non d ame      -4.566   9.925  66.653  0.00  0.00    -0.035 C 
ATOM     91  H21 non d ame      -4.220  10.377  67.583  0.00  0.00     0.037 H 
ATOM     92  H22 non d ame      -5.056   8.952  66.670  0.00  0.00     0.037 H 
BRANCH  90  93
ATOM     93  C17 non d ame      -3.305   9.769  65.744  0.00  0.00    -0.059 C 
ATOM     94  H23 non d ame      -2.426   9.832  66.385  0.00  0.00     0.038 H 
BRANCH  93  95
ATOM     95  C18 non d ame      -3.269   8.385  65.020  0.00  0.00    -0.073 C 
ATOM     96  H24 non d ame      -3.824   7.653  65.607  0.00  0.00     0.028 H 
ATOM     97  H25 non d ame      -3.723   8.479  64.033  0.00  0.00     0.028 H 
ATOM     98  H26 non d ame      -2.234   8.057  64.915  0.00  0.00     0.028 H 
ENDBRANCH  93  95
BRANCH  93  99
ATOM     99  C19 non d ame      -3.215  10.915  64.733  0.00  0.00    -0.073 C 
ATOM    100  H27 non d ame      -3.457  10.541  63.738  0.00  0.00     0.028 H 
ATOM    101  H28 non d ame      -3.920  11.699  65.009  0.00  0.00     0.028 H 
ATOM    102  H29 non d ame      -2.203  11.320  64.733  0.00  0.00     0.028 H 
ENDBRANCH  93  99
ENDBRANCH  90  93
ENDBRANCH   1  90
TORSDOF 26
ENDMDL
MODEL 17
REMARK VINA RESULT:      -6.3      2.768      8.653
REMARK  26 active torsions:
REMARK  status: ('A' for Active; 'I' for Inactive)
REMARK    1  A    between atoms: C2_2  and  C3_3 
REMARK    2  A    between atoms: C4_6  and  C5_7 
REMARK       I    between atoms: C5_7  and  N2_9 
REMARK    3  A    between atoms: N2_9  and  C6_10 
REMARK    4  A    between atoms: C6_10  and  C7_11 
REMARK    5  A    between atoms: C6_10  and  C8_13 
REMARK       I    between atoms: C7_11  and  N3_14 
REMARK    6  A    between atoms: N3_14  and  C9_15 
REMARK    7  A    between atoms: C9_15  and  C10_16 
REMARK    8  A    between atoms: C9_15  and  C11_18 
REMARK       I    between atoms: C10_16  and  N4_21 
REMARK    9  A    between atoms: C11_18  and  C12_19 
REMARK   10  A    between atoms: C11_18  and  C13_20 
REMARK   11  A    between atoms: N4_21  and  C14_22 
REMARK   12  A    between atoms: C14_22  and  C15_23 
REMARK   13  A    between atoms: C14_22  and  C16_25 
REMARK       I    between atoms: C15_23  and  N6_40 
REMARK   14  A    between atoms: C16_25  and  C17_26 
REMARK   15  A    between atoms: C17_26  and  C18_27 
REMARK   16  A    between atoms: C17_26  and  C19_28 
REMARK   17  A    between atoms: C20_29  and  C21_30 
REMARK   18  A    between atoms: C20_29  and  C24_33 
REMARK   19  A    between atoms: C20_29  and  N6_40 
REMARK   20  A    between atoms: C21_30  and  C22_31 
REMARK   21  A    between atoms: C22_31  and  C23_32 
REMARK   22  A    between atoms: C23_32  and  O8_43 
REMARK   23  A    between atoms: C24_33  and  C25_34 
REMARK   24  A    between atoms: C28_38  and  O6_39 
REMARK   25  A    between atoms: C29_42  and  O8_43 
REMARK   26  A    between atoms: C29_42  and  C35_49 
ROOT
ATOM      1  C14 non d ame      -9.621   9.324  69.734  0.00  0.00     0.089 C 
ATOM      2  H20 non d ame      -9.199   8.327  69.862  0.00  0.00     0.087 H 
ENDROOT
BRANCH   1   3
ATOM      3  N4  non d ame      -8.559  10.286  69.993  0.00  0.00    -0.346 N 
ATOM      4  C10 non d ame      -7.323  10.307  69.130  0.00  0.00     0.241 C 
ATOM      5  O4  non d ame      -7.203   9.537  68.234  0.00  0.00    -0.271 OA
ATOM      6  H19 non d ame      -8.679  10.930  70.762  0.00  0.00     0.163 HD
BRANCH   4   7
ATOM      7  C9  non d ame      -6.237  11.312  69.409  0.00  0.00     0.092 C 
ATOM      8  H11 non d ame      -5.565  11.361  68.552  0.00  0.00     0.088 H 
BRANCH   7   9
ATOM      9  N3  non d ame      -6.832  12.643  69.569  0.00  0.00    -0.346 N 
ATOM     10  C7  non d ame      -6.853  13.561  68.457  0.00  0.00     0.240 C 
ATOM     11  O3  non d ame      -6.394  13.246  67.427  0.00  0.00    -0.271 OA
ATOM     12  H10 non d ame      -7.230  12.929  70.452  0.00  0.00     0.163 HD
BRANCH  10  13
ATOM     13  C6  non d ame      -7.484  14.977  68.634  0.00  0.00     0.086 C 
ATOM     14  H6  non d ame      -7.729  15.451  67.684  0.00  0.00     0.086 H 
BRANCH  13  15
ATOM     15  N2  non d ame      -8.732  14.847  69.368  0.00  0.00    -0.343 N 
ATOM     16  C5  non d ame      -9.744  15.901  69.262  0.00  0.00     0.273 C 
ATOM     17  O2  non d ame      -9.544  16.849  68.585  0.00  0.00    -0.266 OA
ATOM     18  H5  non d ame      -8.894  14.035  69.946  0.00  0.00     0.163 HD
BRANCH  16  19
ATOM     19  C4  non d ame     -11.069  15.776  70.031  0.00  0.00     0.154 A 
ATOM     20  C1  non d ame     -11.236  15.508  71.427  0.00  0.00    -0.017 A 
ATOM     21  C2  non d ame     -12.634  15.496  71.629  0.00  0.00     0.077 A 
ATOM     22  H1  non d ame     -10.462  15.348  72.177  0.00  0.00     0.091 H 
ATOM     23  O1  non d ame     -13.194  15.732  70.479  0.00  0.00    -0.218 OA
ATOM     24  N1  non d ame     -12.301  15.899  69.531  0.00  0.00    -0.123 NA
BRANCH  21  25
ATOM     25  C3  non d ame     -13.352  15.253  72.950  0.00  0.00    -0.029 C 
ATOM     26  H2  non d ame     -14.202  14.591  72.786  0.00  0.00     0.036 H 
ATOM     27  H3  non d ame     -12.663  14.792  73.658  0.00  0.00     0.036 H 
ATOM     28  H4  non d ame     -13.704  16.203  73.354  0.00  0.00     0.036 H 
ENDBRANCH  21  25
ENDBRANCH  16  19
ENDBRANCH  13  15
BRANCH  13  29
ATOM     29  C8  non d ame      -6.530  15.865  69.391  0.00  0.00    -0.049 C 
ATOM     30  H7  non d ame      -7.050  16.325  70.231  0.00  0.00     0.030 H 
ATOM     31  H8  non d ame      -5.695  15.269  69.762  0.00  0.00     0.030 H 
ATOM     32  H9  non d ame      -6.154  16.643  68.727  0.00  0.00     0.030 H 
ENDBRANCH  13  29
ENDBRANCH  10  13
ENDBRANCH   7   9
BRANCH   7  33
ATOM     33  C11 non d ame      -5.491  10.920  70.717  0.00  0.00    -0.033 C 
ATOM     34  H12 non d ame      -6.227  10.501  71.403  0.00  0.00     0.042 H 
BRANCH  33  35
ATOM     35  C12 non d ame      -4.417   9.819  70.451  0.00  0.00    -0.071 C 
ATOM     36  H13 non d ame      -3.716   9.786  71.285  0.00  0.00     0.028 H 
ATOM     37  H14 non d ame      -4.908   8.850  70.352  0.00  0.00     0.028 H 
ATOM     38  H15 non d ame      -3.880  10.050  69.533  0.00  0.00     0.028 H 
ENDBRANCH  33  35
BRANCH  33  39
ATOM     39  C13 non d ame      -4.857  12.176  71.398  0.00  0.00    -0.071 C 
ATOM     40  H16 non d ame      -5.042  13.055  70.782  0.00  0.00     0.028 H 
ATOM     41  H17 non d ame      -5.304  12.320  72.382  0.00  0.00     0.028 H 
ATOM     42  H18 non d ame      -3.783  12.027  71.506  0.00  0.00     0.028 H 
ENDBRANCH  33  39
ENDBRANCH   7  33
ENDBRANCH   4   7
ENDBRANCH   1   3
BRANCH   1  43
ATOM     43  C15 non d ame     -10.157   9.555  68.292  0.00  0.00     0.240 C 
ATOM     44  O5  non d ame     -10.548   8.633  67.652  0.00  0.00    -0.271 OA
ATOM     45  N6  non d ame     -10.191  10.928  67.712  0.00  0.00    -0.355 N 
ATOM     46  H46 non d ame      -9.866  11.719  68.247  0.00  0.00     0.162 HD
BRANCH  45  47
ATOM     47  C20 non d ame     -10.705  11.131  66.340  0.00  0.00     0.013 C 
ATOM     48  H30 non d ame     -11.379  10.306  66.109  0.00  0.00     0.072 H 
BRANCH  47  49
ATOM     49  C21 non d ame      -9.547  11.139  65.368  0.00  0.00    -0.038 C 
ATOM     50  H31 non d ame      -9.674  12.038  64.766  0.00  0.00     0.036 H 
ATOM     51  H32 non d ame      -8.651  11.012  65.977  0.00  0.00     0.036 H 
BRANCH  49  52
ATOM     52  C22 non d ame      -9.580   9.947  64.386  0.00  0.00     0.018 C 
ATOM     53  H33 non d ame      -8.803   9.262  64.727  0.00  0.00     0.048 H 
ATOM     54  H34 non d ame     -10.619   9.620  64.354  0.00  0.00     0.048 H 
BRANCH  52  55
ATOM     55  C23 non d ame      -9.205  10.328  62.927  0.00  0.00     0.259 C 
ATOM     56  O7  non d ame      -9.421  11.421  62.515  0.00  0.00    -0.265 OA
BRANCH  55  57
ATOM     57  O8  non d ame      -8.611   9.350  62.082  0.00  0.00    -0.317 OA
BRANCH  57  58
ATOM     58  C29 non d ame      -7.181   9.381  62.070  0.00  0.00     0.052 C 
ATOM     59  H47 non d ame      -6.895   9.367  61.019  0.00  0.00     0.082 H 
ATOM     60  H48 non d ame      -6.899  10.225  62.700  0.00  0.00     0.082 H 
BRANCH  58  61
ATOM     61  C35 non d ame      -6.668   8.078  62.738  0.00  0.00    -0.034 A 
ATOM     62  C30 non d ame      -5.315   7.930  63.028  0.00  0.00    -0.075 A 
ATOM     63  C31 non d ame      -4.854   6.759  63.627  0.00  0.00    -0.082 A 
ATOM     64  H49 non d ame      -4.617   8.731  62.786  0.00  0.00     0.084 H 
ATOM     65  C32 non d ame      -5.750   5.731  63.934  0.00  0.00    -0.083 A 
ATOM     66  H50 non d ame      -3.794   6.647  63.855  0.00  0.00     0.083 H 
ATOM     67  C33 non d ame      -7.099   5.882  63.639  0.00  0.00    -0.082 A 
ATOM     68  H51 non d ame      -5.398   4.813  64.403  0.00  0.00     0.083 H 
ATOM     69  C34 non d ame      -7.564   7.052  63.042  0.00  0.00    -0.075 A 
ATOM     70  H52 non d ame      -7.795   5.078  63.878  0.00  0.00     0.083 H 
ATOM     71  H53 non d ame      -8.625   7.163  62.815  0.00  0.00     0.084 H 
ENDBRANCH  58  61
ENDBRANCH  57  58
ENDBRANCH  55  57
ENDBRANCH  52  55
ENDBRANCH  49  52
ENDBRANCH  47  49
BRANCH  47  72
ATOM     72  C24 non d ame     -11.449  12.462  66.258  0.00  0.00    -0.039 C 
ATOM     73  H35 non d ame     -12.494  12.201  66.094  0.00  0.00     0.036 H 
ATOM     74  H36 non d ame     -11.159  13.011  67.154  0.00  0.00     0.036 H 
BRANCH  72  75
ATOM     75  C25 non d ame     -10.974  13.330  64.998  0.00  0.00    -0.001 C 
ATOM     76  C26 non d ame     -10.569  14.848  65.484  0.00  0.00    -0.035 C 
ATOM     77  C27 non d ame     -11.224  15.744  64.707  0.00  0.00     0.085 C 
ATOM     78  H38 non d ame     -10.964  15.039  66.481  0.00  0.00     0.036 H 
ATOM     79  H39 non d ame      -9.519  15.042  65.266  0.00  0.00     0.036 H 
ATOM     80  N5  non d ame     -12.287  14.981  63.954  0.00  0.00    -0.049 N 
ATOM     81  H40 non d ame     -11.706  16.434  65.401  0.00  0.00     0.075 H 
ATOM     82  H41 non d ame     -10.483  16.112  63.999  0.00  0.00     0.075 H 
ATOM     83  C28 non d ame     -11.910  13.419  64.113  0.00  0.00     0.193 C 
ATOM     84  H42 non d ame     -13.158  15.152  64.435  0.00  0.00     0.280 HD
ATOM     85  H43 non d ame     -12.189  15.237  62.982  0.00  0.00     0.280 HD
ATOM     86  H44 non d ame     -11.455  12.872  63.287  0.00  0.00     0.129 H 
ATOM     87  H37 non d ame     -10.252  12.798  64.379  0.00  0.00     0.046 H 
BRANCH  83  88
ATOM     88  O6  non d ame     -13.069  12.667  64.477  0.00  0.00    -0.369 OA
ATOM     89  H45 non d ame     -13.505  12.347  63.683  0.00  0.00     0.212 HD
ENDBRANCH  83  88
ENDBRANCH  72  75
ENDBRANCH  47  72
ENDBRANCH  45  47
ENDBRANCH   1  43
BRANCH   1  90
ATOM     90  C16 non d ame     -10.742   9.541  70.737  0.00  0.00    -0.035 C 
ATOM     91  H21 non d ame     -10.371  10.301  71.425  0.00  0.00     0.037 H 
ATOM     92  H22 non d ame     -11.632   9.737  70.138  0.00  0.00     0.037 H 
BRANCH  90  93
ATOM     93  C17 non d ame     -11.061   8.280  71.602  0.00  0.00    -0.059 C 
ATOM     94  H23 non d ame     -11.971   8.487  72.165  0.00  0.00     0.038 H 
BRANCH  93  95
ATOM     95  C18 non d ame     -11.322   7.014  70.725  0.00  0.00    -0.073 C 
ATOM     96  H24 non d ame     -10.752   7.090  69.799  0.00  0.00     0.028 H 
ATOM     97  H25 non d ame     -11.011   6.123  71.271  0.00  0.00     0.028 H 
ATOM     98  H26 non d ame     -12.385   6.945  70.493  0.00  0.00     0.028 H 
ENDBRANCH  93  95
BRANCH  93  99
ATOM     99  C19 non d ame      -9.947   8.019  72.619  0.00  0.00    -0.073 C 
ATOM    100  H27 non d ame      -9.471   8.962  72.888  0.00  0.00     0.028 H 
ATOM    101  H28 non d ame     -10.371   7.558  73.512  0.00  0.00     0.028 H 
ATOM    102  H29 non d ame      -9.206   7.349  72.182  0.00  0.00     0.028 H 
ENDBRANCH  93  99
ENDBRANCH  90  93
ENDBRANCH   1  90
TORSDOF 26
ENDMDL
MODEL 18
REMARK VINA RESULT:      -6.2      3.175     10.005
REMARK  26 active torsions:
REMARK  status: ('A' for Active; 'I' for Inactive)
REMARK    1  A    between atoms: C2_2  and  C3_3 
REMARK    2  A    between atoms: C4_6  and  C5_7 
REMARK       I    between atoms: C5_7  and  N2_9 
REMARK    3  A    between atoms: N2_9  and  C6_10 
REMARK    4  A    between atoms: C6_10  and  C7_11 
REMARK    5  A    between atoms: C6_10  and  C8_13 
REMARK       I    between atoms: C7_11  and  N3_14 
REMARK    6  A    between atoms: N3_14  and  C9_15 
REMARK    7  A    between atoms: C9_15  and  C10_16 
REMARK    8  A    between atoms: C9_15  and  C11_18 
REMARK       I    between atoms: C10_16  and  N4_21 
REMARK    9  A    between atoms: C11_18  and  C12_19 
REMARK   10  A    between atoms: C11_18  and  C13_20 
REMARK   11  A    between atoms: N4_21  and  C14_22 
REMARK   12  A    between atoms: C14_22  and  C15_23 
REMARK   13  A    between atoms: C14_22  and  C16_25 
REMARK       I    between atoms: C15_23  and  N6_40 
REMARK   14  A    between atoms: C16_25  and  C17_26 
REMARK   15  A    between atoms: C17_26  and  C18_27 
REMARK   16  A    between atoms: C17_26  and  C19_28 
REMARK   17  A    between atoms: C20_29  and  C21_30 
REMARK   18  A    between atoms: C20_29  and  C24_33 
REMARK   19  A    between atoms: C20_29  and  N6_40 
REMARK   20  A    between atoms: C21_30  and  C22_31 
REMARK   21  A    between atoms: C22_31  and  C23_32 
REMARK   22  A    between atoms: C23_32  and  O8_43 
REMARK   23  A    between atoms: C24_33  and  C25_34 
REMARK   24  A    between atoms: C28_38  and  O6_39 
REMARK   25  A    between atoms: C29_42  and  O8_43 
REMARK   26  A    between atoms: C29_42  and  C35_49 
ROOT
ATOM      1  C14 non d ame      -5.703  13.022  68.122  0.00  0.00     0.089 C 
ATOM      2  H20 non d ame      -4.620  13.139  68.150  0.00  0.00     0.087 H 
ENDROOT
BRANCH   1   3
ATOM      3  N4  non d ame      -6.280  14.340  67.900  0.00  0.00    -0.346 N 
ATOM      4  C10 non d ame      -5.390  15.549  67.769  0.00  0.00     0.241 C 
ATOM      5  O4  non d ame      -4.211  15.438  67.848  0.00  0.00    -0.271 OA
ATOM      6  H19 non d ame      -7.286  14.414  67.838  0.00  0.00     0.163 HD
BRANCH   4   7
ATOM      7  C9  non d ame      -6.004  16.904  67.534  0.00  0.00     0.092 C 
ATOM      8  H11 non d ame      -5.776  17.230  66.519  0.00  0.00     0.088 H 
BRANCH   7   9
ATOM      9  N3  non d ame      -7.462  16.805  67.640  0.00  0.00    -0.346 N 
ATOM     10  C7  non d ame      -8.298  17.316  66.581  0.00  0.00     0.240 C 
ATOM     11  O3  non d ame      -7.813  17.811  65.638  0.00  0.00    -0.271 OA
ATOM     12  H10 non d ame      -7.895  16.382  68.448  0.00  0.00     0.163 HD
BRANCH  10  13
ATOM     13  C6  non d ame      -9.850  17.211  66.701  0.00  0.00     0.086 C 
ATOM     14  H6  non d ame     -10.270  16.430  66.067  0.00  0.00     0.086 H 
BRANCH  13  15
ATOM     15  N2  non d ame     -10.195  16.864  68.070  0.00  0.00    -0.343 N 
ATOM     16  C5  non d ame     -11.155  15.788  68.321  0.00  0.00     0.273 C 
ATOM     17  O2  non d ame     -11.647  15.208  67.416  0.00  0.00    -0.266 OA
ATOM     18  H5  non d ame      -9.772  17.367  68.837  0.00  0.00     0.163 HD
BRANCH  16  19
ATOM     19  C4  non d ame     -11.528  15.410  69.763  0.00  0.00     0.154 A 
ATOM     20  C1  non d ame     -12.738  14.791  70.210  0.00  0.00    -0.017 A 
ATOM     21  C2  non d ame     -12.585  14.660  71.608  0.00  0.00     0.077 A 
ATOM     22  H1  non d ame     -13.596  14.484  69.611  0.00  0.00     0.091 H 
ATOM     23  O1  non d ame     -11.420  15.148  71.918  0.00  0.00    -0.218 OA
ATOM     24  N1  non d ame     -10.784  15.592  70.858  0.00  0.00    -0.123 NA
BRANCH  21  25
ATOM     25  C3  non d ame     -13.597  14.057  72.574  0.00  0.00    -0.029 C 
ATOM     26  H2  non d ame     -13.221  13.105  72.947  0.00  0.00     0.036 H 
ATOM     27  H3  non d ame     -13.752  14.740  73.409  0.00  0.00     0.036 H 
ATOM     28  H4  non d ame     -14.543  13.897  72.055  0.00  0.00     0.036 H 
ENDBRANCH  21  25
ENDBRANCH  16  19
ENDBRANCH  13  15
BRANCH  13  29
ATOM     29  C8  non d ame     -10.476  18.530  66.328  0.00  0.00    -0.049 C 
ATOM     30  H7  non d ame     -10.908  18.992  67.217  0.00  0.00     0.030 H 
ATOM     31  H8  non d ame      -9.715  19.189  65.910  0.00  0.00     0.030 H 
ATOM     32  H9  non d ame     -11.260  18.365  65.589  0.00  0.00     0.030 H 
ENDBRANCH  13  29
ENDBRANCH  10  13
ENDBRANCH   7   9
BRANCH   7  33
ATOM     33  C11 non d ame      -5.476  17.905  68.603  0.00  0.00    -0.033 C 
ATOM     34  H12 non d ame      -4.388  17.919  68.532  0.00  0.00     0.042 H 
BRANCH  33  35
ATOM     35  C12 non d ame      -5.982  19.355  68.324  0.00  0.00    -0.071 C 
ATOM     36  H13 non d ame      -5.689  20.007  69.147  0.00  0.00     0.028 H 
ATOM     37  H14 non d ame      -5.543  19.721  67.397  0.00  0.00     0.028 H 
ATOM     38  H15 non d ame      -7.068  19.349  68.235  0.00  0.00     0.028 H 
ENDBRANCH  33  35
BRANCH  33  39
ATOM     39  C13 non d ame      -5.859  17.439  70.044  0.00  0.00    -0.071 C 
ATOM     40  H16 non d ame      -5.343  16.507  70.274  0.00  0.00     0.028 H 
ATOM     41  H17 non d ame      -5.566  18.203  70.764  0.00  0.00     0.028 H 
ATOM     42  H18 non d ame      -6.936  17.281  70.100  0.00  0.00     0.028 H 
ENDBRANCH  33  39
ENDBRANCH   7  33
ENDBRANCH   4   7
ENDBRANCH   1   3
BRANCH   1  43
ATOM     43  C15 non d ame      -6.163  12.080  66.972  0.00  0.00     0.240 C 
ATOM     44  O5  non d ame      -5.381  11.727  66.150  0.00  0.00    -0.271 OA
ATOM     45  N6  non d ame      -7.576  11.612  66.902  0.00  0.00    -0.355 N 
ATOM     46  H46 non d ame      -8.248  11.901  67.598  0.00  0.00     0.162 HD
BRANCH  45  47
ATOM     47  C20 non d ame      -7.997  10.715  65.804  0.00  0.00     0.013 C 
ATOM     48  H30 non d ame      -7.375  10.933  64.936  0.00  0.00     0.072 H 
BRANCH  47  49
ATOM     49  C21 non d ame      -9.450  10.975  65.476  0.00  0.00    -0.038 C 
ATOM     50  H31 non d ame      -9.468  11.263  64.424  0.00  0.00     0.036 H 
ATOM     51  H32 non d ame      -9.990  10.088  65.807  0.00  0.00     0.036 H 
BRANCH  49  52
ATOM     52  C22 non d ame     -10.039  12.165  66.264  0.00  0.00     0.018 C 
ATOM     53  H33 non d ame      -9.549  12.145  67.238  0.00  0.00     0.048 H 
ATOM     54  H34 non d ame      -9.927  13.034  65.615  0.00  0.00     0.048 H 
BRANCH  52  55
ATOM     55  C23 non d ame     -11.562  12.036  66.548  0.00  0.00     0.259 C 
ATOM     56  O7  non d ame     -12.357  12.447  65.767  0.00  0.00    -0.265 OA
BRANCH  55  57
ATOM     57  O8  non d ame     -11.996  11.432  67.760  0.00  0.00    -0.317 OA
BRANCH  57  58
ATOM     58  C29 non d ame     -11.116  11.648  68.866  0.00  0.00     0.052 C 
ATOM     59  H47 non d ame     -10.128  11.344  68.521  0.00  0.00     0.082 H 
ATOM     60  H48 non d ame     -11.290  12.676  69.185  0.00  0.00     0.082 H 
BRANCH  58  61
ATOM     61  C35 non d ame     -11.549  10.698  70.015  0.00  0.00    -0.034 A 
ATOM     62  C30 non d ame     -12.682  10.988  70.769  0.00  0.00    -0.075 A 
ATOM     63  C31 non d ame     -13.070  10.135  71.801  0.00  0.00    -0.082 A 
ATOM     64  H49 non d ame     -13.265  11.882  70.551  0.00  0.00     0.084 H 
ATOM     65  C32 non d ame     -12.319   8.990  72.080  0.00  0.00    -0.083 A 
ATOM     66  H50 non d ame     -13.960  10.363  72.388  0.00  0.00     0.083 H 
ATOM     67  C33 non d ame     -11.188   8.707  71.327  0.00  0.00    -0.082 A 
ATOM     68  H51 non d ame     -12.616   8.318  72.885  0.00  0.00     0.083 H 
ATOM     69  C34 non d ame     -10.797   9.555  70.293  0.00  0.00    -0.075 A 
ATOM     70  H52 non d ame     -10.603   7.814  71.549  0.00  0.00     0.083 H 
ATOM     71  H53 non d ame      -9.907   9.326  69.706  0.00  0.00     0.084 H 
ENDBRANCH  58  61
ENDBRANCH  57  58
ENDBRANCH  55  57
ENDBRANCH  52  55
ENDBRANCH  49  52
ENDBRANCH  47  49
BRANCH  47  72
ATOM     72  C24 non d ame      -7.823   9.259  66.230  0.00  0.00    -0.039 C 
ATOM     73  H35 non d ame      -7.035   9.270  66.983  0.00  0.00     0.036 H 
ATOM     74  H36 non d ame      -8.823   8.912  66.492  0.00  0.00     0.036 H 
BRANCH  72  75
ATOM     75  C25 non d ame      -7.308   8.345  65.020  0.00  0.00    -0.001 C 
ATOM     76  C26 non d ame      -6.969   9.284  63.713  0.00  0.00    -0.035 C 
ATOM     77  C27 non d ame      -7.607   8.775  62.632  0.00  0.00     0.085 C 
ATOM     78  H38 non d ame      -7.419  10.269  63.834  0.00  0.00     0.036 H 
ATOM     79  H39 non d ame      -5.914   9.195  63.452  0.00  0.00     0.036 H 
ATOM     80  N5  non d ame      -8.609   7.769  63.144  0.00  0.00    -0.049 N 
ATOM     81  H40 non d ame      -8.142   9.615  62.187  0.00  0.00     0.075 H 
ATOM     82  H41 non d ame      -6.840   8.253  62.061  0.00  0.00     0.075 H 
ATOM     83  C28 non d ame      -8.200   7.476  64.678  0.00  0.00     0.193 C 
ATOM     84  H42 non d ame      -9.508   8.230  63.134  0.00  0.00     0.280 HD
ATOM     85  H43 non d ame      -8.468   6.926  62.607  0.00  0.00     0.280 HD
ATOM     86  H44 non d ame      -7.689   6.551  64.947  0.00  0.00     0.129 H 
ATOM     87  H37 non d ame      -6.541   7.637  65.334  0.00  0.00     0.046 H 
BRANCH  83  88
ATOM     88  O6  non d ame      -9.356   7.531  65.516  0.00  0.00    -0.369 OA
ATOM     89  H45 non d ame     -10.099   7.872  65.013  0.00  0.00     0.212 HD
ENDBRANCH  83  88
ENDBRANCH  72  75
ENDBRANCH  47  72
ENDBRANCH  45  47
ENDBRANCH   1  43
BRANCH   1  90
ATOM     90  C16 non d ame      -6.198  12.482  69.454  0.00  0.00    -0.035 C 
ATOM     91  H21 non d ame      -7.081  13.074  69.697  0.00  0.00     0.037 H 
ATOM     92  H22 non d ame      -6.287  11.404  69.313  0.00  0.00     0.037 H 
BRANCH  90  93
ATOM     93  C17 non d ame      -5.190  12.692  70.629  0.00  0.00    -0.059 C 
ATOM     94  H23 non d ame      -4.219  12.928  70.193  0.00  0.00     0.038 H 
BRANCH  93  95
ATOM     95  C18 non d ame      -5.600  13.883  71.552  0.00  0.00    -0.073 C 
ATOM     96  H24 non d ame      -4.839  14.661  71.501  0.00  0.00     0.028 H 
ATOM     97  H25 non d ame      -6.557  14.288  71.219  0.00  0.00     0.028 H 
ATOM     98  H26 non d ame      -5.692  13.531  72.580  0.00  0.00     0.028 H 
ENDBRANCH  93  95
BRANCH  93  99
ATOM     99  C19 non d ame      -5.022  11.405  71.442  0.00  0.00    -0.073 C 
ATOM    100  H27 non d ame      -4.271  11.560  72.216  0.00  0.00     0.028 H 
ATOM    101  H28 non d ame      -5.973  11.142  71.905  0.00  0.00     0.028 H 
ATOM    102  H29 non d ame      -4.704  10.598  70.783  0.00  0.00     0.028 H 
ENDBRANCH  93  99
ENDBRANCH  90  93
ENDBRANCH   1  90
TORSDOF 26
ENDMDL
MODEL 19
REMARK VINA RESULT:      -6.2      2.914      9.494
REMARK  26 active torsions:
REMARK  status: ('A' for Active; 'I' for Inactive)
REMARK    1  A    between atoms: C2_2  and  C3_3 
REMARK    2  A    between atoms: C4_6  and  C5_7 
REMARK       I    between atoms: C5_7  and  N2_9 
REMARK    3  A    between atoms: N2_9  and  C6_10 
REMARK    4  A    between atoms: C6_10  and  C7_11 
REMARK    5  A    between atoms: C6_10  and  C8_13 
REMARK       I    between atoms: C7_11  and  N3_14 
REMARK    6  A    between atoms: N3_14  and  C9_15 
REMARK    7  A    between atoms: C9_15  and  C10_16 
REMARK    8  A    between atoms: C9_15  and  C11_18 
REMARK       I    between atoms: C10_16  and  N4_21 
REMARK    9  A    between atoms: C11_18  and  C12_19 
REMARK   10  A    between atoms: C11_18  and  C13_20 
REMARK   11  A    between atoms: N4_21  and  C14_22 
REMARK   12  A    between atoms: C14_22  and  C15_23 
REMARK   13  A    between atoms: C14_22  and  C16_25 
REMARK       I    between atoms: C15_23  and  N6_40 
REMARK   14  A    between atoms: C16_25  and  C17_26 
REMARK   15  A    between atoms: C17_26  and  C18_27 
REMARK   16  A    between atoms: C17_26  and  C19_28 
REMARK   17  A    between atoms: C20_29  and  C21_30 
REMARK   18  A    between atoms: C20_29  and  C24_33 
REMARK   19  A    between atoms: C20_29  and  N6_40 
REMARK   20  A    between atoms: C21_30  and  C22_31 
REMARK   21  A    between atoms: C22_31  and  C23_32 
REMARK   22  A    between atoms: C23_32  and  O8_43 
REMARK   23  A    between atoms: C24_33  and  C25_34 
REMARK   24  A    between atoms: C28_38  and  O6_39 
REMARK   25  A    between atoms: C29_42  and  O8_43 
REMARK   26  A    between atoms: C29_42  and  C35_49 
ROOT
ATOM      1  C14 non d ame     -10.382  10.938  64.549  0.00  0.00     0.089 C 
ATOM      2  H20 non d ame     -11.336  10.415  64.619  0.00  0.00     0.087 H 
ENDROOT
BRANCH   1   3
ATOM      3  N4  non d ame      -9.815  10.997  65.888  0.00  0.00    -0.346 N 
ATOM      4  C10 non d ame     -10.138   9.926  66.899  0.00  0.00     0.241 C 
ATOM      5  O4  non d ame     -10.858   9.027  66.613  0.00  0.00    -0.271 OA
ATOM      6  H19 non d ame      -9.207  11.771  66.113  0.00  0.00     0.163 HD
BRANCH   4   7
ATOM      7  C9  non d ame      -9.538  10.000  68.279  0.00  0.00     0.092 C 
ATOM      8  H11 non d ame      -8.794   9.211  68.389  0.00  0.00     0.088 H 
BRANCH   7   9
ATOM      9  N3  non d ame      -8.840  11.279  68.441  0.00  0.00    -0.346 N 
ATOM     10  C7  non d ame      -7.459  11.299  68.856  0.00  0.00     0.240 C 
ATOM     11  O3  non d ame      -6.894  10.295  69.064  0.00  0.00    -0.271 OA
ATOM     12  H10 non d ame      -9.315  12.153  68.267  0.00  0.00     0.163 HD
BRANCH  10  13
ATOM     13  C6  non d ame      -6.722  12.663  69.030  0.00  0.00     0.086 C 
ATOM     14  H6  non d ame      -6.071  12.901  68.189  0.00  0.00     0.086 H 
BRANCH  13  15
ATOM     15  N2  non d ame      -7.711  13.726  69.103  0.00  0.00    -0.343 N 
ATOM     16  C5  non d ame      -7.645  14.840  68.155  0.00  0.00     0.273 C 
ATOM     17  O2  non d ame      -6.790  14.873  67.338  0.00  0.00    -0.266 OA
ATOM     18  H5  non d ame      -8.436  13.691  69.806  0.00  0.00     0.163 HD
BRANCH  16  19
ATOM     19  C4  non d ame      -8.684  15.970  68.220  0.00  0.00     0.154 A 
ATOM     20  C1  non d ame      -8.828  17.066  67.311  0.00  0.00    -0.017 A 
ATOM     21  C2  non d ame      -9.920  17.811  67.810  0.00  0.00     0.077 A 
ATOM     22  H1  non d ame      -8.232  17.287  66.425  0.00  0.00     0.091 H 
ATOM     23  O1  non d ame     -10.346  17.204  68.879  0.00  0.00    -0.218 OA
ATOM     24  N1  non d ame      -9.641  16.128  69.139  0.00  0.00    -0.123 NA
BRANCH  21  25
ATOM     25  C3  non d ame     -10.492  19.087  67.207  0.00  0.00    -0.029 C 
ATOM     26  H2  non d ame     -11.275  19.477  67.857  0.00  0.00     0.036 H 
ATOM     27  H3  non d ame      -9.699  19.828  67.107  0.00  0.00     0.036 H 
ATOM     28  H4  non d ame     -10.910  18.869  66.224  0.00  0.00     0.036 H 
ENDBRANCH  21  25
ENDBRANCH  16  19
ENDBRANCH  13  15
BRANCH  13  29
ATOM     29  C8  non d ame      -5.899  12.636  70.292  0.00  0.00    -0.049 C 
ATOM     30  H7  non d ame      -6.038  13.569  70.837  0.00  0.00     0.030 H 
ATOM     31  H8  non d ame      -6.216  11.800  70.915  0.00  0.00     0.030 H 
ATOM     32  H9  non d ame      -4.846  12.519  70.036  0.00  0.00     0.030 H 
ENDBRANCH  13  29
ENDBRANCH  10  13
ENDBRANCH   7   9
BRANCH   7  33
ATOM     33  C11 non d ame     -10.669   9.890  69.343  0.00  0.00    -0.033 C 
ATOM     34  H12 non d ame     -11.334   9.084  69.034  0.00  0.00     0.042 H 
BRANCH  33  35
ATOM     35  C12 non d ame     -10.096   9.515  70.745  0.00  0.00    -0.071 C 
ATOM     36  H13 non d ame     -10.742   8.773  71.215  0.00  0.00     0.028 H 
ATOM     37  H14 non d ame      -9.094   9.103  70.630  0.00  0.00     0.028 H 
ATOM     38  H15 non d ame     -10.053  10.407  71.370  0.00  0.00     0.028 H 
ENDBRANCH  33  35
BRANCH  33  39
ATOM     39  C13 non d ame     -11.506  11.208  69.407  0.00  0.00    -0.071 C 
ATOM     40  H16 non d ame     -12.556  10.965  69.564  0.00  0.00     0.028 H 
ATOM     41  H17 non d ame     -11.149  11.826  70.232  0.00  0.00     0.028 H 
ATOM     42  H18 non d ame     -11.395  11.754  68.470  0.00  0.00     0.028 H 
ENDBRANCH  33  39
ENDBRANCH   7  33
ENDBRANCH   4   7
ENDBRANCH   1   3
BRANCH   1  43
ATOM     43  C15 non d ame      -9.376  10.203  63.617  0.00  0.00     0.240 C 
ATOM     44  O5  non d ame      -9.061  10.695  62.582  0.00  0.00    -0.271 OA
ATOM     45  N6  non d ame      -8.799   8.889  64.020  0.00  0.00    -0.355 N 
ATOM     46  H46 non d ame      -9.055   8.464  64.899  0.00  0.00     0.162 HD
BRANCH  45  47
ATOM     47  C20 non d ame      -7.843   8.203  63.124  0.00  0.00     0.013 C 
ATOM     48  H30 non d ame      -7.941   8.641  62.131  0.00  0.00     0.072 H 
BRANCH  47  49
ATOM     49  C21 non d ame      -8.175   6.729  63.073  0.00  0.00    -0.038 C 
ATOM     50  H31 non d ame      -9.136   6.626  63.577  0.00  0.00     0.036 H 
ATOM     51  H32 non d ame      -8.073   6.441  62.027  0.00  0.00     0.036 H 
BRANCH  49  52
ATOM     52  C22 non d ame      -7.172   5.862  63.865  0.00  0.00     0.018 C 
ATOM     53  H33 non d ame      -7.100   4.920  63.319  0.00  0.00     0.048 H 
ATOM     54  H34 non d ame      -6.285   6.482  63.998  0.00  0.00     0.048 H 
BRANCH  52  55
ATOM     55  C23 non d ame      -7.655   5.492  65.295  0.00  0.00     0.259 C 
ATOM     56  O7  non d ame      -7.089   4.660  65.926  0.00  0.00    -0.265 OA
BRANCH  55  57
ATOM     57  O8  non d ame      -8.792   6.152  65.838  0.00  0.00    -0.317 OA
BRANCH  57  58
ATOM     58  C29 non d ame      -9.892   5.282  66.118  0.00  0.00     0.052 C 
ATOM     59  H47 non d ame     -10.760   5.744  65.649  0.00  0.00     0.082 H 
ATOM     60  H48 non d ame      -9.569   4.289  65.808  0.00  0.00     0.082 H 
BRANCH  58  61
ATOM     61  C35 non d ame     -10.112   5.268  67.655  0.00  0.00    -0.034 A 
ATOM     62  C30 non d ame     -10.998   6.168  68.239  0.00  0.00    -0.075 A 
ATOM     63  C31 non d ame     -11.196   6.156  69.619  0.00  0.00    -0.082 A 
ATOM     64  H49 non d ame     -11.537   6.882  67.617  0.00  0.00     0.084 H 
ATOM     65  C32 non d ame     -10.502   5.241  70.416  0.00  0.00    -0.083 A 
ATOM     66  H50 non d ame     -11.892   6.860  70.074  0.00  0.00     0.083 H 
ATOM     67  C33 non d ame      -9.617   4.348  69.828  0.00  0.00    -0.082 A 
ATOM     68  H51 non d ame     -10.651   5.224  71.495  0.00  0.00     0.083 H 
ATOM     69  C34 non d ame      -9.417   4.355  68.449  0.00  0.00    -0.075 A 
ATOM     70  H52 non d ame      -9.075   3.636  70.453  0.00  0.00     0.083 H 
ATOM     71  H53 non d ame      -8.721   3.649  67.995  0.00  0.00     0.084 H 
ENDBRANCH  58  61
ENDBRANCH  57  58
ENDBRANCH  55  57
ENDBRANCH  52  55
ENDBRANCH  49  52
ENDBRANCH  47  49
BRANCH  47  72
ATOM     72  C24 non d ame      -6.420   8.388  63.648  0.00  0.00    -0.039 C 
ATOM     73  H35 non d ame      -6.531   8.831  64.638  0.00  0.00     0.036 H 
ATOM     74  H36 non d ame      -5.941   7.415  63.536  0.00  0.00     0.036 H 
BRANCH  72  75
ATOM     75  C25 non d ame      -5.591   9.428  62.755  0.00  0.00    -0.001 C 
ATOM     76  C26 non d ame      -4.079   8.844  62.474  0.00  0.00    -0.035 C 
ATOM     77  C27 non d ame      -3.175   9.796  62.805  0.00  0.00     0.085 C 
ATOM     78  H38 non d ame      -3.858   8.031  63.165  0.00  0.00     0.036 H 
ATOM     79  H39 non d ame      -3.925   8.707  61.403  0.00  0.00     0.036 H 
ATOM     80  N5  non d ame      -3.913  10.852  63.592  0.00  0.00    -0.049 N 
ATOM     81  H40 non d ame      -2.457   9.301  63.460  0.00  0.00     0.075 H 
ATOM     82  H41 non d ame      -2.844  10.225  61.859  0.00  0.00     0.075 H 
ATOM     83  C28 non d ame      -5.484  10.571  63.347  0.00  0.00     0.193 C 
ATOM     84  H42 non d ame      -3.704  10.682  64.565  0.00  0.00     0.280 HD
ATOM     85  H43 non d ame      -3.676  11.740  63.172  0.00  0.00     0.280 HD
ATOM     86  H44 non d ame      -6.060  11.201  62.669  0.00  0.00     0.129 H 
ATOM     87  H37 non d ame      -6.157   9.775  61.891  0.00  0.00     0.046 H 
BRANCH  83  88
ATOM     88  O6  non d ame      -6.189  10.603  64.589  0.00  0.00    -0.369 OA
ATOM     89  H45 non d ame      -5.759  10.018  65.217  0.00  0.00     0.212 HD
ENDBRANCH  83  88
ENDBRANCH  72  75
ENDBRANCH  47  72
ENDBRANCH  45  47
ENDBRANCH   1  43
BRANCH   1  90
ATOM     90  C16 non d ame     -10.607  12.354  64.043  0.00  0.00    -0.035 C 
ATOM     91  H21 non d ame      -9.655  12.660  63.608  0.00  0.00     0.037 H 
ATOM     92  H22 non d ame     -11.498  12.299  63.417  0.00  0.00     0.037 H 
BRANCH  90  93
ATOM     93  C17 non d ame     -10.925  13.381  65.175  0.00  0.00    -0.059 C 
ATOM     94  H23 non d ame     -10.282  13.148  66.024  0.00  0.00     0.038 H 
BRANCH  93  95
ATOM     95  C18 non d ame     -10.623  14.851  64.740  0.00  0.00    -0.073 C 
ATOM     96  H24 non d ame     -11.203  15.538  65.356  0.00  0.00     0.028 H 
ATOM     97  H25 non d ame      -9.560  15.057  64.867  0.00  0.00     0.028 H 
ATOM     98  H26 non d ame     -10.896  14.983  63.692  0.00  0.00     0.028 H 
ENDBRANCH  93  95
BRANCH  93  99
ATOM     99  C19 non d ame     -12.374  13.241  65.650  0.00  0.00    -0.073 C 
ATOM    100  H27 non d ame     -12.387  13.012  66.716  0.00  0.00     0.028 H 
ATOM    101  H28 non d ame     -12.907  14.175  65.472  0.00  0.00     0.028 H 
ATOM    102  H29 non d ame     -12.860  12.435  65.099  0.00  0.00     0.028 H 
ENDBRANCH  93  99
ENDBRANCH  90  93
ENDBRANCH   1  90
TORSDOF 26
ENDMDL
MODEL 20
REMARK VINA RESULT:      -6.2      2.938      7.144
REMARK  26 active torsions:
REMARK  status: ('A' for Active; 'I' for Inactive)
REMARK    1  A    between atoms: C2_2  and  C3_3 
REMARK    2  A    between atoms: C4_6  and  C5_7 
REMARK       I    between atoms: C5_7  and  N2_9 
REMARK    3  A    between atoms: N2_9  and  C6_10 
REMARK    4  A    between atoms: C6_10  and  C7_11 
REMARK    5  A    between atoms: C6_10  and  C8_13 
REMARK       I    between atoms: C7_11  and  N3_14 
REMARK    6  A    between atoms: N3_14  and  C9_15 
REMARK    7  A    between atoms: C9_15  and  C10_16 
REMARK    8  A    between atoms: C9_15  and  C11_18 
REMARK       I    between atoms: C10_16  and  N4_21 
REMARK    9  A    between atoms: C11_18  and  C12_19 
REMARK   10  A    between atoms: C11_18  and  C13_20 
REMARK   11  A    between atoms: N4_21  and  C14_22 
REMARK   12  A    between atoms: C14_22  and  C15_23 
REMARK   13  A    between atoms: C14_22  and  C16_25 
REMARK       I    between atoms: C15_23  and  N6_40 
REMARK   14  A    between atoms: C16_25  and  C17_26 
REMARK   15  A    between atoms: C17_26  and  C18_27 
REMARK   16  A    between atoms: C17_26  and  C19_28 
REMARK   17  A    between atoms: C20_29  and  C21_30 
REMARK   18  A    between atoms: C20_29  and  C24_33 
REMARK   19  A    between atoms: C20_29  and  N6_40 
REMARK   20  A    between atoms: C21_30  and  C22_31 
REMARK   21  A    between atoms: C22_31  and  C23_32 
REMARK   22  A    between atoms: C23_32  and  O8_43 
REMARK   23  A    between atoms: C24_33  and  C25_34 
REMARK   24  A    between atoms: C28_38  and  O6_39 
REMARK   25  A    between atoms: C29_42  and  O8_43 
REMARK   26  A    between atoms: C29_42  and  C35_49 
ROOT
ATOM      1  C14 non d ame     -10.297   9.414  67.526  0.00  0.00     0.089 C 
ATOM      2  H20 non d ame     -10.571   8.958  66.574  0.00  0.00     0.087 H 
ENDROOT
BRANCH   1   3
ATOM      3  N4  non d ame      -8.889   9.776  67.450  0.00  0.00    -0.346 N 
ATOM      4  C10 non d ame      -8.149  10.218  68.687  0.00  0.00     0.241 C 
ATOM      5  O4  non d ame      -8.708  10.278  69.732  0.00  0.00    -0.271 OA
ATOM      6  H19 non d ame      -8.432   9.720  66.551  0.00  0.00     0.163 HD
BRANCH   4   7
ATOM      7  C9  non d ame      -6.691  10.583  68.591  0.00  0.00     0.092 C 
ATOM      8  H11 non d ame      -6.377  10.536  67.548  0.00  0.00     0.088 H 
BRANCH   7   9
ATOM      9  N3  non d ame      -6.502  11.966  69.039  0.00  0.00    -0.346 N 
ATOM     10  C7  non d ame      -6.139  12.988  68.087  0.00  0.00     0.240 C 
ATOM     11  O3  non d ame      -5.993  12.714  66.959  0.00  0.00    -0.271 OA
ATOM     12  H10 non d ame      -6.624  12.217  70.009  0.00  0.00     0.163 HD
BRANCH  10  13
ATOM     13  C6  non d ame      -5.937  14.458  68.570  0.00  0.00     0.086 C 
ATOM     14  H6  non d ame      -5.075  14.939  68.108  0.00  0.00     0.086 H 
BRANCH  13  15
ATOM     15  N2  non d ame      -7.102  15.242  68.194  0.00  0.00    -0.343 N 
ATOM     16  C5  non d ame      -6.987  16.237  67.126  0.00  0.00     0.273 C 
ATOM     17  O2  non d ame      -5.954  16.401  66.577  0.00  0.00    -0.266 OA
ATOM     18  H5  non d ame      -7.981  15.097  68.671  0.00  0.00     0.163 HD
BRANCH  16  19
ATOM     19  C4  non d ame      -8.211  17.071  66.717  0.00  0.00     0.154 A 
ATOM     20  C1  non d ame      -8.511  18.415  67.108  0.00  0.00    -0.017 A 
ATOM     21  C2  non d ame      -9.734  18.715  66.468  0.00  0.00     0.077 A 
ATOM     22  H1  non d ame      -7.930  19.072  67.755  0.00  0.00     0.091 H 
ATOM     23  O1  non d ame     -10.086  17.662  65.791  0.00  0.00    -0.218 OA
ATOM     24  N1  non d ame      -9.214  16.689  65.921  0.00  0.00    -0.123 NA
BRANCH  21  25
ATOM     25  C3  non d ame     -10.498  20.030  66.555  0.00  0.00    -0.029 C 
ATOM     26  H2  non d ame     -10.649  20.430  65.552  0.00  0.00     0.036 H 
ATOM     27  H3  non d ame     -11.465  19.857  67.027  0.00  0.00     0.036 H 
ATOM     28  H4  non d ame      -9.927  20.744  67.148  0.00  0.00     0.036 H 
ENDBRANCH  21  25
ENDBRANCH  16  19
ENDBRANCH  13  15
BRANCH  13  29
ATOM     29  C8  non d ame      -5.762  14.478  70.067  0.00  0.00    -0.049 C 
ATOM     30  H7  non d ame      -5.819  13.461  70.454  0.00  0.00     0.030 H 
ATOM     31  H8  non d ame      -4.790  14.906  70.314  0.00  0.00     0.030 H 
ATOM     32  H9  non d ame      -6.550  15.082  70.517  0.00  0.00     0.030 H 
ENDBRANCH  13  29
ENDBRANCH  10  13
ENDBRANCH   7   9
BRANCH   7  33
ATOM     33  C11 non d ame      -5.857   9.630  69.497  0.00  0.00    -0.033 C 
ATOM     34  H12 non d ame      -6.428   8.709  69.619  0.00  0.00     0.042 H 
BRANCH  33  35
ATOM     35  C12 non d ame      -4.498   9.254  68.827  0.00  0.00    -0.071 C 
ATOM     36  H13 non d ame      -3.971   8.535  69.455  0.00  0.00     0.028 H 
ATOM     37  H14 non d ame      -4.686   8.811  67.849  0.00  0.00     0.028 H 
ATOM     38  H15 non d ame      -3.891  10.150  68.711  0.00  0.00     0.028 H 
ENDBRANCH  33  35
BRANCH  33  39
ATOM     39  C13 non d ame      -5.637  10.253  70.912  0.00  0.00    -0.071 C 
ATOM     40  H16 non d ame      -4.569  10.357  71.102  0.00  0.00     0.028 H 
ATOM     41  H17 non d ame      -6.111  11.235  70.955  0.00  0.00     0.028 H 
ATOM     42  H18 non d ame      -6.080   9.604  71.667  0.00  0.00     0.028 H 
ENDBRANCH  33  39
ENDBRANCH   7  33
ENDBRANCH   4   7
ENDBRANCH   1   3
BRANCH   1  43
ATOM     43  C15 non d ame     -11.123  10.699  67.820  0.00  0.00     0.240 C 
ATOM     44  O5  non d ame     -12.079  10.639  68.524  0.00  0.00    -0.271 OA
ATOM     45  N6  non d ame     -10.717  12.007  67.231  0.00  0.00    -0.355 N 
ATOM     46  H46 non d ame      -9.904  12.071  66.636  0.00  0.00     0.162 HD
BRANCH  45  47
ATOM     47  C20 non d ame     -11.513  13.219  67.522  0.00  0.00     0.013 C 
ATOM     48  H30 non d ame     -12.252  12.962  68.280  0.00  0.00     0.072 H 
BRANCH  47  49
ATOM     49  C21 non d ame     -12.207  13.676  66.258  0.00  0.00    -0.038 C 
ATOM     50  H31 non d ame     -13.216  13.957  66.561  0.00  0.00     0.036 H 
ATOM     51  H32 non d ame     -11.545  14.419  65.811  0.00  0.00     0.036 H 
BRANCH  49  52
ATOM     52  C22 non d ame     -12.362  12.546  65.218  0.00  0.00     0.018 C 
ATOM     53  H33 non d ame     -11.712  11.740  65.558  0.00  0.00     0.048 H 
ATOM     54  H34 non d ame     -13.435  12.378  65.122  0.00  0.00     0.048 H 
BRANCH  52  55
ATOM     55  C23 non d ame     -11.860  12.930  63.798  0.00  0.00     0.259 C 
ATOM     56  O7  non d ame     -12.357  13.832  63.206  0.00  0.00    -0.265 OA
BRANCH  55  57
ATOM     57  O8  non d ame     -10.806  12.180  63.205  0.00  0.00    -0.317 OA
BRANCH  57  58
ATOM     58  C29 non d ame     -10.483  10.976  63.905  0.00  0.00     0.052 C 
ATOM     59  H47 non d ame     -10.234  11.283  64.921  0.00  0.00     0.082 H 
ATOM     60  H48 non d ame     -11.320  10.299  63.731  0.00  0.00     0.082 H 
BRANCH  58  61
ATOM     61  C35 non d ame      -9.215  10.367  63.251  0.00  0.00    -0.034 A 
ATOM     62  C30 non d ame      -8.621  10.998  62.162  0.00  0.00    -0.075 A 
ATOM     63  C31 non d ame      -7.482  10.451  61.574  0.00  0.00    -0.082 A 
ATOM     64  H49 non d ame      -9.048  11.921  61.770  0.00  0.00     0.084 H 
ATOM     65  C32 non d ame      -6.937   9.266  62.077  0.00  0.00    -0.083 A 
ATOM     66  H50 non d ame      -7.018  10.949  60.723  0.00  0.00     0.083 H 
ATOM     67  C33 non d ame      -7.535   8.638  63.161  0.00  0.00    -0.082 A 
ATOM     68  H51 non d ame      -6.046   8.832  61.623  0.00  0.00     0.083 H 
ATOM     69  C34 non d ame      -8.672   9.182  63.753  0.00  0.00    -0.075 A 
ATOM     70  H52 non d ame      -7.109   7.713  63.549  0.00  0.00     0.083 H 
ATOM     71  H53 non d ame      -9.135   8.684  64.605  0.00  0.00     0.084 H 
ENDBRANCH  58  61
ENDBRANCH  57  58
ENDBRANCH  55  57
ENDBRANCH  52  55
ENDBRANCH  49  52
ENDBRANCH  47  49
BRANCH  47  72
ATOM     72  C24 non d ame     -10.595  14.330  68.029  0.00  0.00    -0.039 C 
ATOM     73  H35 non d ame      -9.588  13.914  67.989  0.00  0.00     0.036 H 
ATOM     74  H36 non d ame     -10.846  15.208  67.435  0.00  0.00     0.036 H 
BRANCH  72  75
ATOM     75  C25 non d ame     -10.895  14.693  69.560  0.00  0.00    -0.001 C 
ATOM     76  C26 non d ame     -11.983  13.630  70.185  0.00  0.00    -0.035 C 
ATOM     77  C27 non d ame     -12.989  14.326  70.767  0.00  0.00     0.085 C 
ATOM     78  H38 non d ame     -12.480  13.087  69.381  0.00  0.00     0.036 H 
ATOM     79  H39 non d ame     -11.537  13.084  71.017  0.00  0.00     0.036 H 
ATOM     80  N5  non d ame     -12.855  15.759  70.311  0.00  0.00    -0.049 N 
ATOM     81  H40 non d ame     -13.909  13.907  70.356  0.00  0.00     0.075 H 
ATOM     82  H41 non d ame     -12.798  14.274  71.838  0.00  0.00     0.075 H 
ATOM     83  C28 non d ame     -11.378  15.885  69.672  0.00  0.00     0.193 C 
ATOM     84  H42 non d ame     -13.536  15.891  69.577  0.00  0.00     0.280 HD
ATOM     85  H43 non d ame     -12.894  16.329  71.145  0.00  0.00     0.280 HD
ATOM     86  H44 non d ame     -10.575  16.373  70.225  0.00  0.00     0.129 H 
ATOM     87  H37 non d ame      -9.982  14.861  70.132  0.00  0.00     0.046 H 
BRANCH  83  88
ATOM     88  O6  non d ame     -11.442  16.561  68.415  0.00  0.00    -0.369 OA
ATOM     89  H45 non d ame     -11.227  17.488  68.538  0.00  0.00     0.212 HD
ENDBRANCH  83  88
ENDBRANCH  72  75
ENDBRANCH  47  72
ENDBRANCH  45  47
ENDBRANCH   1  43
BRANCH   1  90
ATOM     90  C16 non d ame     -10.492   8.412  68.652  0.00  0.00    -0.035 C 
ATOM     91  H21 non d ame      -9.774   8.698  69.421  0.00  0.00     0.037 H 
ATOM     92  H22 non d ame     -11.560   8.428  68.871  0.00  0.00     0.037 H 
BRANCH  90  93
ATOM     93  C17 non d ame     -10.146   6.943  68.250  0.00  0.00    -0.059 C 
ATOM     94  H23 non d ame      -9.076   6.898  68.049  0.00  0.00     0.038 H 
BRANCH  93  95
ATOM     95  C18 non d ame     -10.457   5.929  69.398  0.00  0.00    -0.073 C 
ATOM     96  H24 non d ame     -11.352   5.360  69.147  0.00  0.00     0.028 H 
ATOM     97  H25 non d ame      -9.615   5.248  69.519  0.00  0.00     0.028 H 
ATOM     98  H26 non d ame     -10.621   6.473  70.328  0.00  0.00     0.028 H 
ENDBRANCH  93  95
BRANCH  93  99
ATOM     99  C19 non d ame     -10.868   6.544  66.961  0.00  0.00    -0.073 C 
ATOM    100  H27 non d ame     -10.137   6.392  66.166  0.00  0.00     0.028 H 
ATOM    101  H28 non d ame     -11.423   5.619  67.126  0.00  0.00     0.028 H 
ATOM    102  H29 non d ame     -11.560   7.335  66.672  0.00  0.00     0.028 H 
ENDBRANCH  93  99
ENDBRANCH  90  93
ENDBRANCH   1  90
TORSDOF 26
ENDMDL
