MODEL 1
REMARK VINA RESULT:      -6.8      0.000      0.000
REMARK  26 active torsions:
REMARK  status: ('A' for Active; 'I' for Inactive)
REMARK    1  A    between atoms: C2_2  and  C3_3 
REMARK    2  A    between atoms: C4_6  and  C5_7 
REMARK       I    between atoms: C5_7  and  N2_9 
REMARK    3  A    between atoms: N2_9  and  C6_10 
REMARK    4  A    between atoms: C6_10  and  C7_11 
REMARK    5  A    between atoms: C6_10  and  C8_13 
REMARK       I    between atoms: C7_11  and  N3_14 
REMARK    6  A    between atoms: N3_14  and  C9_15 
REMARK    7  A    between atoms: C9_15  and  C10_16 
REMARK    8  A    between atoms: C9_15  and  C11_18 
REMARK       I    between atoms: C10_16  and  N4_21 
REMARK    9  A    between atoms: C11_18  and  C12_19 
REMARK   10  A    between atoms: C11_18  and  C13_20 
REMARK   11  A    between atoms: N4_21  and  C14_22 
REMARK   12  A    between atoms: C14_22  and  C15_23 
REMARK   13  A    between atoms: C14_22  and  C16_25 
REMARK       I    between atoms: C15_23  and  N6_40 
REMARK   14  A    between atoms: C16_25  and  C17_26 
REMARK   15  A    between atoms: C17_26  and  C18_27 
REMARK   16  A    between atoms: C17_26  and  C19_28 
REMARK   17  A    between atoms: C20_29  and  C21_30 
REMARK   18  A    between atoms: C20_29  and  C24_33 
REMARK   19  A    between atoms: C20_29  and  N6_40 
REMARK   20  A    between atoms: C21_30  and  C22_31 
REMARK   21  A    between atoms: C22_31  and  C23_32 
REMARK   22  A    between atoms: C23_32  and  O8_43 
REMARK   23  A    between atoms: C24_33  and  C25_34 
REMARK   24  A    between atoms: C28_38  and  O6_39 
REMARK   25  A    between atoms: C29_42  and  O8_43 
REMARK   26  A    between atoms: C29_42  and  C35_49 
ROOT
ATOM      1  C14 non d ame      -9.267  10.001  69.254  0.00  0.00     0.089 C 
ATOM      2  H20 non d ame      -8.824   9.316  69.977  0.00  0.00     0.087 H 
ENDROOT
BRANCH   1   3
ATOM      3  N4  non d ame      -8.454  11.209  69.240  0.00  0.00    -0.346 N 
ATOM      4  C10 non d ame      -6.993  11.147  69.606  0.00  0.00     0.241 C 
ATOM      5  O4  non d ame      -6.493  10.114  69.910  0.00  0.00    -0.271 OA
ATOM      6  H19 non d ame      -8.899  12.078  68.981  0.00  0.00     0.163 HD
BRANCH   4   7
ATOM      7  C9  non d ame      -6.165  12.405  69.580  0.00  0.00     0.092 C 
ATOM      8  H11 non d ame      -5.509  12.385  68.710  0.00  0.00     0.088 H 
BRANCH   7   9
ATOM      9  N3  non d ame      -7.047  13.567  69.431  0.00  0.00    -0.346 N 
ATOM     10  C7  non d ame      -7.055  14.311  68.195  0.00  0.00     0.240 C 
ATOM     11  O3  non d ame      -6.358  13.990  67.312  0.00  0.00    -0.271 OA
ATOM     12  H10 non d ame      -7.652  13.858  70.185  0.00  0.00     0.163 HD
BRANCH  10  13
ATOM     13  C6  non d ame      -7.993  15.549  68.044  0.00  0.00     0.086 C 
ATOM     14  H6  non d ame      -8.488  15.586  67.074  0.00  0.00     0.086 H 
BRANCH  13  15
ATOM     15  N2  non d ame      -9.044  15.469  69.045  0.00  0.00    -0.343 N 
ATOM     16  C5  non d ame     -10.402  15.103  68.637  0.00  0.00     0.273 C 
ATOM     17  O2  non d ame     -10.639  14.877  67.501  0.00  0.00    -0.266 OA
ATOM     18  H5  non d ame      -8.833  15.667  70.013  0.00  0.00     0.163 HD
BRANCH  16  19
ATOM     19  C4  non d ame     -11.523  15.013  69.684  0.00  0.00     0.154 A 
ATOM     20  C1  non d ame     -11.927  13.855  70.421  0.00  0.00    -0.017 A 
ATOM     21  C2  non d ame     -12.986  14.299  71.244  0.00  0.00     0.077 A 
ATOM     22  H1  non d ame     -11.515  12.847  70.367  0.00  0.00     0.091 H 
ATOM     23  O1  non d ame     -13.161  15.565  71.001  0.00  0.00    -0.218 OA
ATOM     24  N1  non d ame     -12.319  16.004  70.094  0.00  0.00    -0.123 NA
BRANCH  21  25
ATOM     25  C3  non d ame     -13.776  13.451  72.232  0.00  0.00    -0.029 C 
ATOM     26  H2  non d ame     -13.805  12.418  71.884  0.00  0.00     0.036 H 
ATOM     27  H3  non d ame     -13.297  13.492  73.210  0.00  0.00     0.036 H 
ATOM     28  H4  non d ame     -14.793  13.837  72.311  0.00  0.00     0.036 H 
ENDBRANCH  21  25
ENDBRANCH  16  19
ENDBRANCH  13  15
BRANCH  13  29
ATOM     29  C8  non d ame      -7.195  16.814  68.233  0.00  0.00    -0.049 C 
ATOM     30  H7  non d ame      -7.570  17.585  67.559  0.00  0.00     0.030 H 
ATOM     31  H8  non d ame      -7.291  17.154  69.264  0.00  0.00     0.030 H 
ATOM     32  H9  non d ame      -6.146  16.618  68.011  0.00  0.00     0.030 H 
ENDBRANCH  13  29
ENDBRANCH  10  13
ENDBRANCH   7   9
BRANCH   7  33
ATOM     33  C11 non d ame      -5.369  12.529  70.912  0.00  0.00    -0.033 C 
ATOM     34  H12 non d ame      -5.715  11.738  71.577  0.00  0.00     0.042 H 
BRANCH  33  35
ATOM     35  C12 non d ame      -3.840  12.315  70.683  0.00  0.00    -0.071 C 
ATOM     36  H13 non d ame      -3.458  13.098  70.027  0.00  0.00     0.028 H 
ATOM     37  H14 non d ame      -3.320  12.357  71.640  0.00  0.00     0.028 H 
ATOM     38  H15 non d ame      -3.676  11.342  70.221  0.00  0.00     0.028 H 
ENDBRANCH  33  35
BRANCH  33  39
ATOM     39  C13 non d ame      -5.651  13.900  71.607  0.00  0.00    -0.071 C 
ATOM     40  H16 non d ame      -5.623  14.697  70.863  0.00  0.00     0.028 H 
ATOM     41  H17 non d ame      -6.634  13.875  72.076  0.00  0.00     0.028 H 
ATOM     42  H18 non d ame      -4.891  14.086  72.366  0.00  0.00     0.028 H 
ENDBRANCH  33  39
ENDBRANCH   7  33
ENDBRANCH   4   7
ENDBRANCH   1   3
BRANCH   1  43
ATOM     43  C15 non d ame      -9.292   9.404  67.818  0.00  0.00     0.240 C 
ATOM     44  O5  non d ame      -9.760   8.328  67.634  0.00  0.00    -0.271 OA
ATOM     45  N6  non d ame      -8.740  10.179  66.671  0.00  0.00    -0.355 N 
ATOM     46  H46 non d ame      -8.344  11.097  66.814  0.00  0.00     0.162 HD
BRANCH  45  47
ATOM     47  C20 non d ame      -8.773   9.599  65.311  0.00  0.00     0.013 C 
ATOM     48  H30 non d ame      -8.788   8.513  65.410  0.00  0.00     0.072 H 
BRANCH  47  49
ATOM     49  C21 non d ame      -7.538  10.031  64.553  0.00  0.00    -0.038 C 
ATOM     50  H31 non d ame      -7.724  11.062  64.250  0.00  0.00     0.036 H 
ATOM     51  H32 non d ame      -6.696   9.798  65.205  0.00  0.00     0.036 H 
BRANCH  49  52
ATOM     52  C22 non d ame      -7.321   9.227  63.253  0.00  0.00     0.018 C 
ATOM     53  H33 non d ame      -8.057   8.424  63.275  0.00  0.00     0.048 H 
ATOM     54  H34 non d ame      -7.339   9.960  62.446  0.00  0.00     0.048 H 
BRANCH  52  55
ATOM     55  C23 non d ame      -5.932   8.534  63.170  0.00  0.00     0.259 C 
ATOM     56  O7  non d ame      -5.038   9.044  62.576  0.00  0.00    -0.265 OA
BRANCH  55  57
ATOM     57  O8  non d ame      -5.744   7.274  63.802  0.00  0.00    -0.317 OA
BRANCH  57  58
ATOM     58  C29 non d ame      -6.006   6.152  62.954  0.00  0.00     0.052 C 
ATOM     59  H47 non d ame      -6.113   6.560  61.949  0.00  0.00     0.082 H 
ATOM     60  H48 non d ame      -5.219   5.430  63.169  0.00  0.00     0.082 H 
BRANCH  58  61
ATOM     61  C35 non d ame      -7.366   5.537  63.381  0.00  0.00    -0.034 A 
ATOM     62  C30 non d ame      -7.719   5.493  64.726  0.00  0.00    -0.075 A 
ATOM     63  C31 non d ame      -8.940   4.940  65.109  0.00  0.00    -0.082 A 
ATOM     64  H49 non d ame      -7.040   5.892  65.479  0.00  0.00     0.084 H 
ATOM     65  C32 non d ame      -9.808   4.427  64.142  0.00  0.00    -0.083 A 
ATOM     66  H50 non d ame      -9.215   4.909  66.164  0.00  0.00     0.083 H 
ATOM     67  C33 non d ame      -9.450   4.470  62.801  0.00  0.00    -0.082 A 
ATOM     68  H51 non d ame     -10.765   3.994  64.433  0.00  0.00     0.083 H 
ATOM     69  C34 non d ame      -8.232   5.024  62.413  0.00  0.00    -0.075 A 
ATOM     70  H52 non d ame     -10.129   4.067  62.049  0.00  0.00     0.083 H 
ATOM     71  H53 non d ame      -7.958   5.055  61.358  0.00  0.00     0.084 H 
ENDBRANCH  58  61
ENDBRANCH  57  58
ENDBRANCH  55  57
ENDBRANCH  52  55
ENDBRANCH  49  52
ENDBRANCH  47  49
BRANCH  47  72
ATOM     72  C24 non d ame     -10.020  10.081  64.573  0.00  0.00    -0.039 C 
ATOM     73  H35 non d ame      -9.842   9.852  63.522  0.00  0.00     0.036 H 
ATOM     74  H36 non d ame     -10.861   9.625  65.095  0.00  0.00     0.036 H 
BRANCH  72  75
ATOM     75  C25 non d ame     -10.198  11.669  64.686  0.00  0.00    -0.001 C 
ATOM     76  C26 non d ame     -11.550  12.021  65.554  0.00  0.00    -0.035 C 
ATOM     77  C27 non d ame     -12.306  12.896  64.849  0.00  0.00     0.085 C 
ATOM     78  H38 non d ame     -12.185  11.138  65.629  0.00  0.00     0.036 H 
ATOM     79  H39 non d ame     -11.283  12.579  66.452  0.00  0.00     0.036 H 
ATOM     80  N5  non d ame     -11.756  12.922  63.443  0.00  0.00    -0.049 N 
ATOM     81  H40 non d ame     -13.308  12.467  64.831  0.00  0.00     0.075 H 
ATOM     82  H41 non d ame     -12.136  13.867  65.314  0.00  0.00     0.075 H 
ATOM     83  C28 non d ame     -10.308  12.212  63.520  0.00  0.00     0.193 C 
ATOM     84  H42 non d ame     -12.369  12.344  62.886  0.00  0.00     0.280 HD
ATOM     85  H43 non d ame     -11.625  13.895  63.205  0.00  0.00     0.280 HD
ATOM     86  H44 non d ame      -9.397  12.809  63.492  0.00  0.00     0.129 H 
ATOM     87  H37 non d ame      -9.275  12.168  64.982  0.00  0.00     0.046 H 
BRANCH  83  88
ATOM     88  O6  non d ame     -10.172  11.257  62.466  0.00  0.00    -0.369 OA
ATOM     89  H45 non d ame     -10.751  10.510  62.634  0.00  0.00     0.212 HD
ENDBRANCH  83  88
ENDBRANCH  72  75
ENDBRANCH  47  72
ENDBRANCH  45  47
ENDBRANCH   1  43
BRANCH   1  90
ATOM     90  C16 non d ame     -10.681  10.360  69.684  0.00  0.00    -0.035 C 
ATOM     91  H21 non d ame     -10.594  11.322  70.190  0.00  0.00     0.037 H 
ATOM     92  H22 non d ame     -11.287  10.272  68.782  0.00  0.00     0.037 H 
BRANCH  90  93
ATOM     93  C17 non d ame     -11.290   9.367  70.724  0.00  0.00    -0.059 C 
ATOM     94  H23 non d ame     -11.695   8.518  70.174  0.00  0.00     0.038 H 
BRANCH  93  95
ATOM     95  C18 non d ame     -10.215   8.821  71.718  0.00  0.00    -0.073 C 
ATOM     96  H24 non d ame      -9.264   9.320  71.533  0.00  0.00     0.028 H 
ATOM     97  H25 non d ame     -10.534   9.016  72.742  0.00  0.00     0.028 H 
ATOM     98  H26 non d ame     -10.098   7.747  71.572  0.00  0.00     0.028 H 
ENDBRANCH  93  95
BRANCH  93  99
ATOM     99  C19 non d ame     -12.452  10.015  71.482  0.00  0.00    -0.073 C 
ATOM    100  H27 non d ame     -12.265   9.956  72.554  0.00  0.00     0.028 H 
ATOM    101  H28 non d ame     -12.542  11.060  71.185  0.00  0.00     0.028 H 
ATOM    102  H29 non d ame     -13.378   9.490  71.245  0.00  0.00     0.028 H 
ENDBRANCH  93  99
ENDBRANCH  90  93
ENDBRANCH   1  90
TORSDOF 26
ENDMDL
MODEL 2
REMARK VINA RESULT:      -6.8      3.054      5.511
REMARK  26 active torsions:
REMARK  status: ('A' for Active; 'I' for Inactive)
REMARK    1  A    between atoms: C2_2  and  C3_3 
REMARK    2  A    between atoms: C4_6  and  C5_7 
REMARK       I    between atoms: C5_7  and  N2_9 
REMARK    3  A    between atoms: N2_9  and  C6_10 
REMARK    4  A    between atoms: C6_10  and  C7_11 
REMARK    5  A    between atoms: C6_10  and  C8_13 
REMARK       I    between atoms: C7_11  and  N3_14 
REMARK    6  A    between atoms: N3_14  and  C9_15 
REMARK    7  A    between atoms: C9_15  and  C10_16 
REMARK    8  A    between atoms: C9_15  and  C11_18 
REMARK       I    between atoms: C10_16  and  N4_21 
REMARK    9  A    between atoms: C11_18  and  C12_19 
REMARK   10  A    between atoms: C11_18  and  C13_20 
REMARK   11  A    between atoms: N4_21  and  C14_22 
REMARK   12  A    between atoms: C14_22  and  C15_23 
REMARK   13  A    between atoms: C14_22  and  C16_25 
REMARK       I    between atoms: C15_23  and  N6_40 
REMARK   14  A    between atoms: C16_25  and  C17_26 
REMARK   15  A    between atoms: C17_26  and  C18_27 
REMARK   16  A    between atoms: C17_26  and  C19_28 
REMARK   17  A    between atoms: C20_29  and  C21_30 
REMARK   18  A    between atoms: C20_29  and  C24_33 
REMARK   19  A    between atoms: C20_29  and  N6_40 
REMARK   20  A    between atoms: C21_30  and  C22_31 
REMARK   21  A    between atoms: C22_31  and  C23_32 
REMARK   22  A    between atoms: C23_32  and  O8_43 
REMARK   23  A    between atoms: C24_33  and  C25_34 
REMARK   24  A    between atoms: C28_38  and  O6_39 
REMARK   25  A    between atoms: C29_42  and  O8_43 
REMARK   26  A    between atoms: C29_42  and  C35_49 
ROOT
ATOM      1  C14 non d ame     -11.751  10.495  70.234  0.00  0.00     0.089 C 
ATOM      2  H20 non d ame     -10.989  10.136  70.927  0.00  0.00     0.087 H 
ENDROOT
BRANCH   1   3
ATOM      3  N4  non d ame     -11.727  11.950  70.274  0.00  0.00    -0.346 N 
ATOM      4  C10 non d ame     -12.525  12.696  71.314  0.00  0.00     0.241 C 
ATOM      5  O4  non d ame     -13.182  12.104  72.106  0.00  0.00    -0.271 OA
ATOM      6  H19 non d ame     -11.165  12.435  69.590  0.00  0.00     0.163 HD
BRANCH   4   7
ATOM      7  C9  non d ame     -12.485  14.202  71.344  0.00  0.00     0.092 C 
ATOM      8  H11 non d ame     -11.502  14.527  71.684  0.00  0.00     0.088 H 
BRANCH   7   9
ATOM      9  N3  non d ame     -12.670  14.723  69.987  0.00  0.00    -0.346 N 
ATOM     10  C7  non d ame     -11.522  14.983  69.153  0.00  0.00     0.240 C 
ATOM     11  O3  non d ame     -10.443  14.779  69.558  0.00  0.00    -0.271 OA
ATOM     12  H10 non d ame     -13.594  14.906  69.624  0.00  0.00     0.163 HD
BRANCH  10  13
ATOM     13  C6  non d ame     -11.725  15.541  67.710  0.00  0.00     0.086 C 
ATOM     14  H6  non d ame     -12.464  16.341  67.667  0.00  0.00     0.086 H 
BRANCH  13  15
ATOM     15  N2  non d ame     -10.471  16.109  67.243  0.00  0.00    -0.343 N 
ATOM     16  C5  non d ame     -10.299  17.563  67.228  0.00  0.00     0.273 C 
ATOM     17  O2  non d ame     -11.177  18.268  67.590  0.00  0.00    -0.266 OA
ATOM     18  H5  non d ame      -9.727  15.500  66.933  0.00  0.00     0.163 HD
BRANCH  16  19
ATOM     19  C4  non d ame      -8.978  18.178  66.739  0.00  0.00     0.154 A 
ATOM     20  C1  non d ame      -8.372  19.393  67.188  0.00  0.00    -0.017 A 
ATOM     21  C2  non d ame      -7.183  19.507  66.432  0.00  0.00     0.077 A 
ATOM     22  H1  non d ame      -8.737  20.087  67.945  0.00  0.00     0.091 H 
ATOM     23  O1  non d ame      -7.123  18.472  65.646  0.00  0.00    -0.218 OA
ATOM     24  N1  non d ame      -8.160  17.682  65.807  0.00  0.00    -0.123 NA
BRANCH  21  25
ATOM     25  C3  non d ame      -6.161  20.633  66.523  0.00  0.00    -0.029 C 
ATOM     26  H2  non d ame      -6.201  21.081  67.516  0.00  0.00     0.036 H 
ATOM     27  H3  non d ame      -5.163  20.232  66.344  0.00  0.00     0.036 H 
ATOM     28  H4  non d ame      -6.388  21.391  65.773  0.00  0.00     0.036 H 
ENDBRANCH  21  25
ENDBRANCH  16  19
ENDBRANCH  13  15
BRANCH  13  29
ATOM     29  C8  non d ame     -12.160  14.426  66.793  0.00  0.00    -0.049 C 
ATOM     30  H7  non d ame     -13.118  14.031  67.130  0.00  0.00     0.030 H 
ATOM     31  H8  non d ame     -12.261  14.809  65.777  0.00  0.00     0.030 H 
ATOM     32  H9  non d ame     -11.414  13.632  66.809  0.00  0.00     0.030 H 
ENDBRANCH  13  29
ENDBRANCH  10  13
ENDBRANCH   7   9
BRANCH   7  33
ATOM     33  C11 non d ame     -13.626  14.732  72.261  0.00  0.00    -0.033 C 
ATOM     34  H12 non d ame     -13.923  13.918  72.921  0.00  0.00     0.042 H 
BRANCH  33  35
ATOM     35  C12 non d ame     -13.132  15.909  73.160  0.00  0.00    -0.071 C 
ATOM     36  H13 non d ame     -12.617  16.646  72.543  0.00  0.00     0.028 H 
ATOM     37  H14 non d ame     -13.987  16.377  73.647  0.00  0.00     0.028 H 
ATOM     38  H15 non d ame     -12.448  15.525  73.916  0.00  0.00     0.028 H 
ENDBRANCH  33  35
BRANCH  33  39
ATOM     39  C13 non d ame     -14.873  15.149  71.417  0.00  0.00    -0.071 C 
ATOM     40  H16 non d ame     -15.428  14.259  71.124  0.00  0.00     0.028 H 
ATOM     41  H17 non d ame     -15.515  15.798  72.014  0.00  0.00     0.028 H 
ATOM     42  H18 non d ame     -14.546  15.684  70.525  0.00  0.00     0.028 H 
ENDBRANCH  33  39
ENDBRANCH   7  33
ENDBRANCH   4   7
ENDBRANCH   1   3
BRANCH   1  43
ATOM     43  C15 non d ame     -11.480  10.036  68.773  0.00  0.00     0.240 C 
ATOM     44  O5  non d ame     -11.798  10.734  67.865  0.00  0.00    -0.271 OA
ATOM     45  N6  non d ame     -10.815   8.729  68.505  0.00  0.00    -0.355 N 
ATOM     46  H46 non d ame     -10.535   8.130  69.268  0.00  0.00     0.162 HD
BRANCH  45  47
ATOM     47  C20 non d ame     -10.563   8.307  67.110  0.00  0.00     0.013 C 
ATOM     48  H30 non d ame     -11.227   8.878  66.462  0.00  0.00     0.072 H 
BRANCH  47  49
ATOM     49  C21 non d ame     -10.853   6.829  66.975  0.00  0.00    -0.038 C 
ATOM     50  H31 non d ame     -11.848   6.763  66.536  0.00  0.00     0.036 H 
ATOM     51  H32 non d ame      -9.996   6.408  66.449  0.00  0.00     0.036 H 
BRANCH  49  52
ATOM     52  C22 non d ame     -10.927   6.106  68.338  0.00  0.00     0.018 C 
ATOM     53  H33 non d ame     -10.826   6.886  69.092  0.00  0.00     0.048 H 
ATOM     54  H34 non d ame     -11.832   5.499  68.300  0.00  0.00     0.048 H 
BRANCH  52  55
ATOM     55  C23 non d ame      -9.756   5.115  68.586  0.00  0.00     0.259 C 
ATOM     56  O7  non d ame      -9.910   4.161  69.278  0.00  0.00    -0.265 OA
BRANCH  55  57
ATOM     57  O8  non d ame      -8.492   5.367  67.986  0.00  0.00    -0.317 OA
BRANCH  57  58
ATOM     58  C29 non d ame      -8.135   4.431  66.964  0.00  0.00     0.052 C 
ATOM     59  H47 non d ame      -7.249   3.915  67.334  0.00  0.00     0.082 H 
ATOM     60  H48 non d ame      -9.043   3.868  66.750  0.00  0.00     0.082 H 
BRANCH  58  61
ATOM     61  C35 non d ame      -7.743   5.233  65.695  0.00  0.00    -0.034 A 
ATOM     62  C30 non d ame      -6.617   6.049  65.707  0.00  0.00    -0.075 A 
ATOM     63  C31 non d ame      -6.265   6.770  64.567  0.00  0.00    -0.082 A 
ATOM     64  H49 non d ame      -6.010   6.124  66.609  0.00  0.00     0.084 H 
ATOM     65  C32 non d ame      -7.046   6.675  63.412  0.00  0.00    -0.083 A 
ATOM     66  H50 non d ame      -5.380   7.407  64.579  0.00  0.00     0.083 H 
ATOM     67  C33 non d ame      -8.171   5.861  63.406  0.00  0.00    -0.082 A 
ATOM     68  H51 non d ame      -6.777   7.234  62.516  0.00  0.00     0.083 H 
ATOM     69  C34 non d ame      -8.525   5.137  64.542  0.00  0.00    -0.075 A 
ATOM     70  H52 non d ame      -8.779   5.791  62.504  0.00  0.00     0.083 H 
ATOM     71  H53 non d ame      -9.410   4.500  64.529  0.00  0.00     0.084 H 
ENDBRANCH  58  61
ENDBRANCH  57  58
ENDBRANCH  55  57
ENDBRANCH  52  55
ENDBRANCH  49  52
ENDBRANCH  47  49
BRANCH  47  72
ATOM     72  C24 non d ame      -9.104   8.576  66.745  0.00  0.00    -0.039 C 
ATOM     73  H35 non d ame      -8.589   8.719  67.695  0.00  0.00     0.036 H 
ATOM     74  H36 non d ame      -8.815   7.758  66.086  0.00  0.00     0.036 H 
BRANCH  72  75
ATOM     75  C25 non d ame      -8.944   9.934  65.911  0.00  0.00    -0.001 C 
ATOM     76  C26 non d ame      -9.344   9.676  64.337  0.00  0.00    -0.035 C 
ATOM     77  C27 non d ame      -8.343  10.138  63.550  0.00  0.00     0.085 C 
ATOM     78  H38 non d ame      -9.361   8.607  64.126  0.00  0.00     0.036 H 
ATOM     79  H39 non d ame     -10.194  10.299  64.060  0.00  0.00     0.036 H 
ATOM     80  N5  non d ame      -7.156  10.390  64.449  0.00  0.00    -0.049 N 
ATOM     81  H40 non d ame      -8.106   9.320  62.869  0.00  0.00     0.075 H 
ATOM     82  H41 non d ame      -8.698  11.090  63.157  0.00  0.00     0.075 H 
ATOM     83  C28 non d ame      -7.729  10.371  65.958  0.00  0.00     0.193 C 
ATOM     84  H42 non d ame      -6.535   9.602  64.330  0.00  0.00     0.280 HD
ATOM     85  H43 non d ame      -6.832  11.323  64.240  0.00  0.00     0.280 HD
ATOM     86  H44 non d ame      -7.874  11.301  66.507  0.00  0.00     0.129 H 
ATOM     87  H37 non d ame      -9.413  10.783  66.409  0.00  0.00     0.046 H 
BRANCH  83  88
ATOM     88  O6  non d ame      -6.897   9.561  66.791  0.00  0.00    -0.369 OA
ATOM     89  H45 non d ame      -5.975   9.743  66.596  0.00  0.00     0.212 HD
ENDBRANCH  83  88
ENDBRANCH  72  75
ENDBRANCH  47  72
ENDBRANCH  45  47
ENDBRANCH   1  43
BRANCH   1  90
ATOM     90  C16 non d ame     -13.121  10.009  70.677  0.00  0.00    -0.035 C 
ATOM     91  H21 non d ame     -13.446  10.716  71.441  0.00  0.00     0.037 H 
ATOM     92  H22 non d ame     -13.698   9.896  69.759  0.00  0.00     0.037 H 
BRANCH  90  93
ATOM     93  C17 non d ame     -13.097   8.604  71.358  0.00  0.00    -0.059 C 
ATOM     94  H23 non d ame     -13.051   7.854  70.569  0.00  0.00     0.038 H 
BRANCH  93  95
ATOM     95  C18 non d ame     -11.844   8.412  72.271  0.00  0.00    -0.073 C 
ATOM     96  H24 non d ame     -11.524   9.380  72.656  0.00  0.00     0.028 H 
ATOM     97  H25 non d ame     -12.097   7.755  73.103  0.00  0.00     0.028 H 
ATOM     98  H26 non d ame     -11.036   7.968  71.689  0.00  0.00     0.028 H 
ENDBRANCH  93  95
BRANCH  93  99
ATOM     99  C19 non d ame     -14.387   8.356  72.146  0.00  0.00    -0.073 C 
ATOM    100  H27 non d ame     -14.225   8.602  73.195  0.00  0.00     0.028 H 
ATOM    101  H28 non d ame     -15.184   8.982  71.744  0.00  0.00     0.028 H 
ATOM    102  H29 non d ame     -14.670   7.307  72.058  0.00  0.00     0.028 H 
ENDBRANCH  93  99
ENDBRANCH  90  93
ENDBRANCH   1  90
TORSDOF 26
ENDMDL
MODEL 3
REMARK VINA RESULT:      -6.7      2.763      6.974
REMARK  26 active torsions:
REMARK  status: ('A' for Active; 'I' for Inactive)
REMARK    1  A    between atoms: C2_2  and  C3_3 
REMARK    2  A    between atoms: C4_6  and  C5_7 
REMARK       I    between atoms: C5_7  and  N2_9 
REMARK    3  A    between atoms: N2_9  and  C6_10 
REMARK    4  A    between atoms: C6_10  and  C7_11 
REMARK    5  A    between atoms: C6_10  and  C8_13 
REMARK       I    between atoms: C7_11  and  N3_14 
REMARK    6  A    between atoms: N3_14  and  C9_15 
REMARK    7  A    between atoms: C9_15  and  C10_16 
REMARK    8  A    between atoms: C9_15  and  C11_18 
REMARK       I    between atoms: C10_16  and  N4_21 
REMARK    9  A    between atoms: C11_18  and  C12_19 
REMARK   10  A    between atoms: C11_18  and  C13_20 
REMARK   11  A    between atoms: N4_21  and  C14_22 
REMARK   12  A    between atoms: C14_22  and  C15_23 
REMARK   13  A    between atoms: C14_22  and  C16_25 
REMARK       I    between atoms: C15_23  and  N6_40 
REMARK   14  A    between atoms: C16_25  and  C17_26 
REMARK   15  A    between atoms: C17_26  and  C18_27 
REMARK   16  A    between atoms: C17_26  and  C19_28 
REMARK   17  A    between atoms: C20_29  and  C21_30 
REMARK   18  A    between atoms: C20_29  and  C24_33 
REMARK   19  A    between atoms: C20_29  and  N6_40 
REMARK   20  A    between atoms: C21_30  and  C22_31 
REMARK   21  A    between atoms: C22_31  and  C23_32 
REMARK   22  A    between atoms: C23_32  and  O8_43 
REMARK   23  A    between atoms: C24_33  and  C25_34 
REMARK   24  A    between atoms: C28_38  and  O6_39 
REMARK   25  A    between atoms: C29_42  and  O8_43 
REMARK   26  A    between atoms: C29_42  and  C35_49 
ROOT
ATOM      1  C14 non d ame      -8.237   8.416  62.992  0.00  0.00     0.089 C 
ATOM      2  H20 non d ame      -9.109   8.675  62.391  0.00  0.00     0.087 H 
ENDROOT
BRANCH   1   3
ATOM      3  N4  non d ame      -8.317   9.176  64.230  0.00  0.00    -0.346 N 
ATOM      4  C10 non d ame      -9.355  10.257  64.395  0.00  0.00     0.241 C 
ATOM      5  O4  non d ame     -10.114  10.500  63.515  0.00  0.00    -0.271 OA
ATOM      6  H19 non d ame      -7.661   8.955  64.966  0.00  0.00     0.163 HD
BRANCH   4   7
ATOM      7  C9  non d ame      -9.427  11.030  65.686  0.00  0.00     0.092 C 
ATOM      8  H11 non d ame      -8.658  11.802  65.685  0.00  0.00     0.088 H 
BRANCH   7   9
ATOM      9  N3  non d ame     -10.723  11.710  65.777  0.00  0.00    -0.346 N 
ATOM     10  C7  non d ame     -10.776  13.148  65.882  0.00  0.00     0.240 C 
ATOM     11  O3  non d ame      -9.786  13.772  65.896  0.00  0.00    -0.271 OA
ATOM     12  H10 non d ame     -11.585  11.185  65.767  0.00  0.00     0.163 HD
BRANCH  10  13
ATOM     13  C6  non d ame     -12.157  13.866  65.982  0.00  0.00     0.086 C 
ATOM     14  H6  non d ame     -12.996  13.170  65.980  0.00  0.00     0.086 H 
BRANCH  13  15
ATOM     15  N2  non d ame     -12.222  14.591  67.240  0.00  0.00    -0.343 N 
ATOM     16  C5  non d ame     -12.084  13.861  68.501  0.00  0.00     0.273 C 
ATOM     17  O2  non d ame     -11.924  12.690  68.494  0.00  0.00    -0.266 OA
ATOM     18  H5  non d ame     -12.361  15.592  67.237  0.00  0.00     0.163 HD
BRANCH  16  19
ATOM     19  C4  non d ame     -12.149  14.615  69.839  0.00  0.00     0.154 A 
ATOM     20  C1  non d ame     -12.400  14.059  71.133  0.00  0.00    -0.017 A 
ATOM     21  C2  non d ame     -12.353  15.161  72.017  0.00  0.00     0.077 A 
ATOM     22  H1  non d ame     -12.587  13.017  71.392  0.00  0.00     0.091 H 
ATOM     23  O1  non d ame     -12.103  16.219  71.303  0.00  0.00    -0.218 OA
ATOM     24  N1  non d ame     -11.980  15.926  70.029  0.00  0.00    -0.123 NA
BRANCH  21  25
ATOM     25  C3  non d ame     -12.558  15.116  73.525  0.00  0.00    -0.029 C 
ATOM     26  H2  non d ame     -11.637  14.787  74.008  0.00  0.00     0.036 H 
ATOM     27  H3  non d ame     -12.822  16.110  73.886  0.00  0.00     0.036 H 
ATOM     28  H4  non d ame     -13.362  14.418  73.763  0.00  0.00     0.036 H 
ENDBRANCH  21  25
ENDBRANCH  16  19
ENDBRANCH  13  15
BRANCH  13  29
ATOM     29  C8  non d ame     -12.315  14.821  64.826  0.00  0.00    -0.049 C 
ATOM     30  H7  non d ame     -13.179  14.531  64.229  0.00  0.00     0.030 H 
ATOM     31  H8  non d ame     -12.460  15.832  65.207  0.00  0.00     0.030 H 
ATOM     32  H9  non d ame     -11.419  14.791  64.206  0.00  0.00     0.030 H 
ENDBRANCH  13  29
ENDBRANCH  10  13
ENDBRANCH   7   9
BRANCH   7  33
ATOM     33  C11 non d ame      -9.274  10.050  66.886  0.00  0.00    -0.033 C 
ATOM     34  H12 non d ame      -8.670   9.208  66.547  0.00  0.00     0.042 H 
BRANCH  33  35
ATOM     35  C12 non d ame      -8.517  10.722  68.074  0.00  0.00    -0.071 C 
ATOM     36  H13 non d ame      -8.879  10.307  69.015  0.00  0.00     0.028 H 
ATOM     37  H14 non d ame      -7.449  10.528  67.980  0.00  0.00     0.028 H 
ATOM     38  H15 non d ame      -8.696  11.796  68.057  0.00  0.00     0.028 H 
ENDBRANCH  33  35
BRANCH  33  39
ATOM     39  C13 non d ame     -10.664   9.498  67.338  0.00  0.00    -0.071 C 
ATOM     40  H16 non d ame     -10.548   8.477  67.701  0.00  0.00     0.028 H 
ATOM     41  H17 non d ame     -11.061  10.125  68.137  0.00  0.00     0.028 H 
ATOM     42  H18 non d ame     -11.351   9.508  66.493  0.00  0.00     0.028 H 
ENDBRANCH  33  39
ENDBRANCH   7  33
ENDBRANCH   4   7
ENDBRANCH   1   3
BRANCH   1  43
ATOM     43  C15 non d ame      -8.195   6.901  63.342  0.00  0.00     0.240 C 
ATOM     44  O5  non d ame      -7.907   6.108  62.504  0.00  0.00    -0.271 OA
ATOM     45  N6  non d ame      -8.505   6.438  64.725  0.00  0.00    -0.355 N 
ATOM     46  H46 non d ame      -8.746   7.103  65.446  0.00  0.00     0.162 HD
BRANCH  45  47
ATOM     47  C20 non d ame      -8.459   4.995  65.042  0.00  0.00     0.013 C 
ATOM     48  H30 non d ame      -8.317   4.450  64.109  0.00  0.00     0.072 H 
BRANCH  47  49
ATOM     49  C21 non d ame      -9.763   4.583  65.688  0.00  0.00    -0.038 C 
ATOM     50  H31 non d ame     -10.468   5.384  65.465  0.00  0.00     0.036 H 
ATOM     51  H32 non d ame      -9.958   3.570  65.335  0.00  0.00     0.036 H 
BRANCH  49  52
ATOM     52  C22 non d ame      -9.669   4.500  67.227  0.00  0.00     0.018 C 
ATOM     53  H33 non d ame     -10.047   3.512  67.493  0.00  0.00     0.048 H 
ATOM     54  H34 non d ame      -8.645   4.777  67.476  0.00  0.00     0.048 H 
BRANCH  52  55
ATOM     55  C23 non d ame     -10.580   5.519  67.966  0.00  0.00     0.259 C 
ATOM     56  O7  non d ame     -11.246   6.289  67.352  0.00  0.00    -0.265 OA
BRANCH  55  57
ATOM     57  O8  non d ame     -10.601   5.532  69.388  0.00  0.00    -0.317 OA
BRANCH  57  58
ATOM     58  C29 non d ame      -9.977   6.681  69.969  0.00  0.00     0.052 C 
ATOM     59  H47 non d ame      -9.319   6.296  70.748  0.00  0.00     0.082 H 
ATOM     60  H48 non d ame      -9.561   7.245  69.134  0.00  0.00     0.082 H 
BRANCH  58  61
ATOM     61  C35 non d ame     -11.083   7.539  70.639  0.00  0.00    -0.034 A 
ATOM     62  C30 non d ame     -10.877   8.898  70.851  0.00  0.00    -0.075 A 
ATOM     63  C31 non d ame     -11.870   9.670  71.453  0.00  0.00    -0.082 A 
ATOM     64  H49 non d ame      -9.937   9.360  70.545  0.00  0.00     0.084 H 
ATOM     65  C32 non d ame     -13.072   9.076  71.846  0.00  0.00    -0.083 A 
ATOM     66  H50 non d ame     -11.706  10.735  71.616  0.00  0.00     0.083 H 
ATOM     67  C33 non d ame     -13.272   7.718  71.635  0.00  0.00    -0.082 A 
ATOM     68  H51 non d ame     -13.854   9.672  72.317  0.00  0.00     0.083 H 
ATOM     69  C34 non d ame     -12.283   6.944  71.032  0.00  0.00    -0.075 A 
ATOM     70  H52 non d ame     -14.210   7.257  71.945  0.00  0.00     0.083 H 
ATOM     71  H53 non d ame     -12.448   5.879  70.869  0.00  0.00     0.084 H 
ENDBRANCH  58  61
ENDBRANCH  57  58
ENDBRANCH  55  57
ENDBRANCH  52  55
ENDBRANCH  49  52
ENDBRANCH  47  49
BRANCH  47  72
ATOM     72  C24 non d ame      -7.304   4.713  66.001  0.00  0.00    -0.039 C 
ATOM     73  H35 non d ame      -7.715   4.856  67.001  0.00  0.00     0.036 H 
ATOM     74  H36 non d ame      -6.913   3.739  65.706  0.00  0.00     0.036 H 
BRANCH  72  75
ATOM     75  C25 non d ame      -6.115   5.773  65.824  0.00  0.00    -0.001 C 
ATOM     76  C26 non d ame      -4.930   5.132  64.881  0.00  0.00    -0.035 C 
ATOM     77  C27 non d ame      -3.743   5.271  65.518  0.00  0.00     0.085 C 
ATOM     78  H38 non d ame      -5.055   4.052  64.806  0.00  0.00     0.036 H 
ATOM     79  H39 non d ame      -4.806   5.730  63.978  0.00  0.00     0.036 H 
ATOM     80  N5  non d ame      -4.050   5.649  66.947  0.00  0.00    -0.049 N 
ATOM     81  H40 non d ame      -3.286   4.280  65.503  0.00  0.00     0.075 H 
ATOM     82  H41 non d ame      -3.245   6.107  65.028  0.00  0.00     0.075 H 
ATOM     83  C28 non d ame      -5.602   6.094  66.964  0.00  0.00     0.193 C 
ATOM     84  H42 non d ame      -3.951   4.807  67.494  0.00  0.00     0.280 HD
ATOM     85  H43 non d ame      -3.482   6.458  67.157  0.00  0.00     0.280 HD
ATOM     86  H44 non d ame      -5.875   7.148  67.015  0.00  0.00     0.129 H 
ATOM     87  H37 non d ame      -6.482   6.763  65.555  0.00  0.00     0.046 H 
BRANCH  83  88
ATOM     88  O6  non d ame      -6.281   5.471  68.056  0.00  0.00    -0.369 OA
ATOM     89  H45 non d ame      -7.183   5.794  68.098  0.00  0.00     0.212 HD
ENDBRANCH  83  88
ENDBRANCH  72  75
ENDBRANCH  47  72
ENDBRANCH  45  47
ENDBRANCH   1  43
BRANCH   1  90
ATOM     90  C16 non d ame      -6.968   8.805  62.252  0.00  0.00    -0.035 C 
ATOM     91  H21 non d ame      -6.692   7.927  61.668  0.00  0.00     0.037 H 
ATOM     92  H22 non d ame      -7.203   9.743  61.747  0.00  0.00     0.037 H 
BRANCH  90  93
ATOM     93  C17 non d ame      -5.759   9.104  63.195  0.00  0.00    -0.059 C 
ATOM     94  H23 non d ame      -6.077   8.894  64.217  0.00  0.00     0.038 H 
BRANCH  93  95
ATOM     95  C18 non d ame      -4.528   8.194  62.883  0.00  0.00    -0.073 C 
ATOM     96  H24 non d ame      -4.797   7.472  62.112  0.00  0.00     0.028 H 
ATOM     97  H25 non d ame      -3.701   8.810  62.531  0.00  0.00     0.028 H 
ATOM     98  H26 non d ame      -4.228   7.666  63.788  0.00  0.00     0.028 H 
ENDBRANCH  93  95
BRANCH  93  99
ATOM     99  C19 non d ame      -5.371  10.584  63.135  0.00  0.00    -0.073 C 
ATOM    100  H27 non d ame      -4.397  10.685  62.657  0.00  0.00     0.028 H 
ATOM    101  H28 non d ame      -6.118  11.132  62.559  0.00  0.00     0.028 H 
ATOM    102  H29 non d ame      -5.324  10.989  64.146  0.00  0.00     0.028 H 
ENDBRANCH  93  99
ENDBRANCH  90  93
ENDBRANCH   1  90
TORSDOF 26
ENDMDL
MODEL 4
REMARK VINA RESULT:      -6.6      2.821      5.664
REMARK  26 active torsions:
REMARK  status: ('A' for Active; 'I' for Inactive)
REMARK    1  A    between atoms: C2_2  and  C3_3 
REMARK    2  A    between atoms: C4_6  and  C5_7 
REMARK       I    between atoms: C5_7  and  N2_9 
REMARK    3  A    between atoms: N2_9  and  C6_10 
REMARK    4  A    between atoms: C6_10  and  C7_11 
REMARK    5  A    between atoms: C6_10  and  C8_13 
REMARK       I    between atoms: C7_11  and  N3_14 
REMARK    6  A    between atoms: N3_14  and  C9_15 
REMARK    7  A    between atoms: C9_15  and  C10_16 
REMARK    8  A    between atoms: C9_15  and  C11_18 
REMARK       I    between atoms: C10_16  and  N4_21 
REMARK    9  A    between atoms: C11_18  and  C12_19 
REMARK   10  A    between atoms: C11_18  and  C13_20 
REMARK   11  A    between atoms: N4_21  and  C14_22 
REMARK   12  A    between atoms: C14_22  and  C15_23 
REMARK   13  A    between atoms: C14_22  and  C16_25 
REMARK       I    between atoms: C15_23  and  N6_40 
REMARK   14  A    between atoms: C16_25  and  C17_26 
REMARK   15  A    between atoms: C17_26  and  C18_27 
REMARK   16  A    between atoms: C17_26  and  C19_28 
REMARK   17  A    between atoms: C20_29  and  C21_30 
REMARK   18  A    between atoms: C20_29  and  C24_33 
REMARK   19  A    between atoms: C20_29  and  N6_40 
REMARK   20  A    between atoms: C21_30  and  C22_31 
REMARK   21  A    between atoms: C22_31  and  C23_32 
REMARK   22  A    between atoms: C23_32  and  O8_43 
REMARK   23  A    between atoms: C24_33  and  C25_34 
REMARK   24  A    between atoms: C28_38  and  O6_39 
REMARK   25  A    between atoms: C29_42  and  O8_43 
REMARK   26  A    between atoms: C29_42  and  C35_49 
ROOT
ATOM      1  C14 non d ame     -10.658   9.892  69.867  0.00  0.00     0.089 C 
ATOM      2  H20 non d ame     -10.735   8.886  69.454  0.00  0.00     0.087 H 
ENDROOT
BRANCH   1   3
ATOM      3  N4  non d ame      -9.243  10.216  69.972  0.00  0.00    -0.346 N 
ATOM      4  C10 non d ame      -8.237   9.533  69.079  0.00  0.00     0.241 C 
ATOM      5  O4  non d ame      -8.590   8.723  68.286  0.00  0.00    -0.271 OA
ATOM      6  H19 non d ame      -8.962  10.906  70.654  0.00  0.00     0.163 HD
BRANCH   4   7
ATOM      7  C9  non d ame      -6.777   9.884  69.198  0.00  0.00     0.092 C 
ATOM      8  H11 non d ame      -6.352   9.988  68.200  0.00  0.00     0.088 H 
BRANCH   7   9
ATOM      9  N3  non d ame      -6.639  11.181  69.866  0.00  0.00    -0.346 N 
ATOM     10  C7  non d ame      -5.875  12.235  69.243  0.00  0.00     0.240 C 
ATOM     11  O3  non d ame      -5.365  12.055  68.205  0.00  0.00    -0.271 OA
ATOM     12  H10 non d ame      -7.072  11.351  70.762  0.00  0.00     0.163 HD
BRANCH  10  13
ATOM     13  C6  non d ame      -5.729  13.613  69.960  0.00  0.00     0.086 C 
ATOM     14  H6  non d ame      -4.840  14.159  69.646  0.00  0.00     0.086 H 
BRANCH  13  15
ATOM     15  N2  non d ame      -6.871  14.445  69.620  0.00  0.00    -0.343 N 
ATOM     16  C5  non d ame      -6.653  15.829  69.194  0.00  0.00     0.273 C 
ATOM     17  O2  non d ame      -5.556  16.265  69.132  0.00  0.00    -0.266 OA
ATOM     18  H5  non d ame      -7.805  14.066  69.678  0.00  0.00     0.163 HD
BRANCH  16  19
ATOM     19  C4  non d ame      -7.851  16.720  68.829  0.00  0.00     0.154 A 
ATOM     20  C1  non d ame      -7.834  18.128  68.571  0.00  0.00    -0.017 A 
ATOM     21  C2  non d ame      -9.177  18.460  68.285  0.00  0.00     0.077 A 
ATOM     22  H1  non d ame      -6.979  18.804  68.588  0.00  0.00     0.091 H 
ATOM     23  O1  non d ame      -9.874  17.365  68.371  0.00  0.00    -0.218 OA
ATOM     24  N1  non d ame      -9.122  16.336  68.687  0.00  0.00    -0.123 NA
BRANCH  21  25
ATOM     25  C3  non d ame      -9.709  19.845  67.940  0.00  0.00    -0.029 C 
ATOM     26  H2  non d ame     -10.752  19.767  67.632  0.00  0.00     0.036 H 
ATOM     27  H3  non d ame      -9.635  20.491  68.814  0.00  0.00     0.036 H 
ATOM     28  H4  non d ame      -9.121  20.268  67.125  0.00  0.00     0.036 H 
ENDBRANCH  21  25
ENDBRANCH  16  19
ENDBRANCH  13  15
BRANCH  13  29
ATOM     29  C8  non d ame      -5.670  13.402  71.452  0.00  0.00    -0.049 C 
ATOM     30  H7  non d ame      -5.035  14.164  71.902  0.00  0.00     0.030 H 
ATOM     31  H8  non d ame      -6.675  13.473  71.869  0.00  0.00     0.030 H 
ATOM     32  H9  non d ame      -5.258  12.415  71.663  0.00  0.00     0.030 H 
ENDBRANCH  13  29
ENDBRANCH  10  13
ENDBRANCH   7   9
BRANCH   7  33
ATOM     33  C11 non d ame      -6.047   8.792  70.034  0.00  0.00    -0.033 C 
ATOM     34  H12 non d ame      -6.390   7.821  69.678  0.00  0.00     0.042 H 
BRANCH  33  35
ATOM     35  C12 non d ame      -4.502   8.851  69.821  0.00  0.00    -0.071 C 
ATOM     36  H13 non d ame      -4.262   9.656  69.126  0.00  0.00     0.028 H 
ATOM     37  H14 non d ame      -4.011   9.038  70.775  0.00  0.00     0.028 H 
ATOM     38  H15 non d ame      -4.156   7.903  69.412  0.00  0.00     0.028 H 
ENDBRANCH  33  35
BRANCH  33  39
ATOM     39  C13 non d ame      -6.415   8.909  71.548  0.00  0.00    -0.071 C 
ATOM     40  H16 non d ame      -5.555   8.623  72.154  0.00  0.00     0.028 H 
ATOM     41  H17 non d ame      -6.694   9.938  71.776  0.00  0.00     0.028 H 
ATOM     42  H18 non d ame      -7.252   8.248  71.770  0.00  0.00     0.028 H 
ENDBRANCH  33  39
ENDBRANCH   7  33
ENDBRANCH   4   7
ENDBRANCH   1   3
BRANCH   1  43
ATOM     43  C15 non d ame     -11.343  10.954  68.959  0.00  0.00     0.240 C 
ATOM     44  O5  non d ame     -11.968  10.605  68.011  0.00  0.00    -0.271 OA
ATOM     45  N6  non d ame     -11.226  12.405  69.278  0.00  0.00    -0.355 N 
ATOM     46  H46 non d ame     -10.701  12.713  70.084  0.00  0.00     0.162 HD
BRANCH  45  47
ATOM     47  C20 non d ame     -11.884  13.402  68.406  0.00  0.00     0.013 C 
ATOM     48  H30 non d ame     -12.790  12.949  68.003  0.00  0.00     0.072 H 
BRANCH  47  49
ATOM     49  C21 non d ame     -10.948  13.776  67.279  0.00  0.00    -0.038 C 
ATOM     50  H31 non d ame     -10.077  14.225  67.755  0.00  0.00     0.036 H 
ATOM     51  H32 non d ame     -10.837  12.873  66.678  0.00  0.00     0.036 H 
BRANCH  49  52
ATOM     52  C22 non d ame     -11.538  14.853  66.342  0.00  0.00     0.018 C 
ATOM     53  H33 non d ame     -12.404  15.257  66.866  0.00  0.00     0.048 H 
ATOM     54  H34 non d ame     -10.704  15.506  66.083  0.00  0.00     0.048 H 
BRANCH  52  55
ATOM     55  C23 non d ame     -12.074  14.289  64.998  0.00  0.00     0.259 C 
ATOM     56  O7  non d ame     -12.299  15.016  64.085  0.00  0.00    -0.265 OA
BRANCH  55  57
ATOM     57  O8  non d ame     -12.307  12.891  64.872  0.00  0.00    -0.317 OA
BRANCH  57  58
ATOM     58  C29 non d ame     -11.943  12.352  63.598  0.00  0.00     0.052 C 
ATOM     59  H47 non d ame     -12.784  11.733  63.288  0.00  0.00     0.082 H 
ATOM     60  H48 non d ame     -11.643  13.206  62.991  0.00  0.00     0.082 H 
BRANCH  58  61
ATOM     61  C35 non d ame     -10.707  11.436  63.801  0.00  0.00    -0.034 A 
ATOM     62  C30 non d ame      -9.719  11.371  62.823  0.00  0.00    -0.075 A 
ATOM     63  C31 non d ame      -8.609  10.548  63.005  0.00  0.00    -0.082 A 
ATOM     64  H49 non d ame      -9.815  11.966  61.914  0.00  0.00     0.084 H 
ATOM     65  C32 non d ame      -8.489   9.785  64.169  0.00  0.00    -0.083 A 
ATOM     66  H50 non d ame      -7.836  10.502  62.238  0.00  0.00     0.083 H 
ATOM     67  C33 non d ame      -9.479   9.851  65.141  0.00  0.00    -0.082 A 
ATOM     68  H51 non d ame      -7.624   9.140  64.320  0.00  0.00     0.083 H 
ATOM     69  C34 non d ame     -10.589  10.674  64.964  0.00  0.00    -0.075 A 
ATOM     70  H52 non d ame      -9.383   9.252  66.048  0.00  0.00     0.083 H 
ATOM     71  H53 non d ame     -11.361  10.720  65.732  0.00  0.00     0.084 H 
ENDBRANCH  58  61
ENDBRANCH  57  58
ENDBRANCH  55  57
ENDBRANCH  52  55
ENDBRANCH  49  52
ENDBRANCH  47  49
BRANCH  47  72
ATOM     72  C24 non d ame     -12.230  14.650  69.216  0.00  0.00    -0.039 C 
ATOM     73  H35 non d ame     -11.523  15.413  68.889  0.00  0.00     0.036 H 
ATOM     74  H36 non d ame     -13.300  14.801  69.074  0.00  0.00     0.036 H 
BRANCH  72  75
ATOM     75  C25 non d ame     -11.989  14.423  70.784  0.00  0.00    -0.001 C 
ATOM     76  C26 non d ame     -13.378  13.901  71.494  0.00  0.00    -0.035 C 
ATOM     77  C27 non d ame     -13.639  14.682  72.569  0.00  0.00     0.085 C 
ATOM     78  H38 non d ame     -14.226  14.083  70.834  0.00  0.00     0.036 H 
ATOM     79  H39 non d ame     -13.227  12.912  71.928  0.00  0.00     0.036 H 
ATOM     80  N5  non d ame     -12.738  15.889  72.467  0.00  0.00    -0.049 N 
ATOM     81  H40 non d ame     -14.675  15.002  72.452  0.00  0.00     0.075 H 
ATOM     82  H41 non d ame     -13.345  14.092  73.436  0.00  0.00     0.075 H 
ATOM     83  C28 non d ame     -11.620  15.517  71.363  0.00  0.00     0.193 C 
ATOM     84  H42 non d ame     -13.307  16.642  72.107  0.00  0.00     0.280 HD
ATOM     85  H43 non d ame     -12.284  15.984  73.364  0.00  0.00     0.280 HD
ATOM     86  H44 non d ame     -10.609  15.247  71.668  0.00  0.00     0.129 H 
ATOM     87  H37 non d ame     -11.084  13.850  70.984  0.00  0.00     0.046 H 
BRANCH  83  88
ATOM     88  O6  non d ame     -11.466  16.592  70.435  0.00  0.00    -0.369 OA
ATOM     89  H45 non d ame     -11.079  16.260  69.622  0.00  0.00     0.212 HD
ENDBRANCH  83  88
ENDBRANCH  72  75
ENDBRANCH  47  72
ENDBRANCH  45  47
ENDBRANCH   1  43
BRANCH   1  90
ATOM     90  C16 non d ame     -11.279   9.928  71.254  0.00  0.00    -0.035 C 
ATOM     91  H21 non d ame     -10.439  10.016  71.944  0.00  0.00     0.037 H 
ATOM     92  H22 non d ame     -12.034  10.714  71.212  0.00  0.00     0.037 H 
BRANCH  90  93
ATOM     93  C17 non d ame     -12.030   8.614  71.638  0.00  0.00    -0.059 C 
ATOM     94  H23 non d ame     -12.129   8.013  70.735  0.00  0.00     0.038 H 
BRANCH  93  95
ATOM     95  C18 non d ame     -11.240   7.769  72.689  0.00  0.00    -0.073 C 
ATOM     96  H24 non d ame     -10.314   8.283  72.945  0.00  0.00     0.028 H 
ATOM     97  H25 non d ame     -11.848   7.645  73.586  0.00  0.00     0.028 H 
ATOM     98  H26 non d ame     -11.010   6.790  72.268  0.00  0.00     0.028 H 
ENDBRANCH  93  95
BRANCH  93  99
ATOM     99  C19 non d ame     -13.445   8.919  72.138  0.00  0.00    -0.073 C 
ATOM    100  H27 non d ame     -14.157   8.769  71.326  0.00  0.00     0.028 H 
ATOM    101  H28 non d ame     -13.690   8.252  72.964  0.00  0.00     0.028 H 
ATOM    102  H29 non d ame     -13.495   9.953  72.479  0.00  0.00     0.028 H 
ENDBRANCH  93  99
ENDBRANCH  90  93
ENDBRANCH   1  90
TORSDOF 26
ENDMDL
MODEL 5
REMARK VINA RESULT:      -6.6      2.616      6.008
REMARK  26 active torsions:
REMARK  status: ('A' for Active; 'I' for Inactive)
REMARK    1  A    between atoms: C2_2  and  C3_3 
REMARK    2  A    between atoms: C4_6  and  C5_7 
REMARK       I    between atoms: C5_7  and  N2_9 
REMARK    3  A    between atoms: N2_9  and  C6_10 
REMARK    4  A    between atoms: C6_10  and  C7_11 
REMARK    5  A    between atoms: C6_10  and  C8_13 
REMARK       I    between atoms: C7_11  and  N3_14 
REMARK    6  A    between atoms: N3_14  and  C9_15 
REMARK    7  A    between atoms: C9_15  and  C10_16 
REMARK    8  A    between atoms: C9_15  and  C11_18 
REMARK       I    between atoms: C10_16  and  N4_21 
REMARK    9  A    between atoms: C11_18  and  C12_19 
REMARK   10  A    between atoms: C11_18  and  C13_20 
REMARK   11  A    between atoms: N4_21  and  C14_22 
REMARK   12  A    between atoms: C14_22  and  C15_23 
REMARK   13  A    between atoms: C14_22  and  C16_25 
REMARK       I    between atoms: C15_23  and  N6_40 
REMARK   14  A    between atoms: C16_25  and  C17_26 
REMARK   15  A    between atoms: C17_26  and  C18_27 
REMARK   16  A    between atoms: C17_26  and  C19_28 
REMARK   17  A    between atoms: C20_29  and  C21_30 
REMARK   18  A    between atoms: C20_29  and  C24_33 
REMARK   19  A    between atoms: C20_29  and  N6_40 
REMARK   20  A    between atoms: C21_30  and  C22_31 
REMARK   21  A    between atoms: C22_31  and  C23_32 
REMARK   22  A    between atoms: C23_32  and  O8_43 
REMARK   23  A    between atoms: C24_33  and  C25_34 
REMARK   24  A    between atoms: C28_38  and  O6_39 
REMARK   25  A    between atoms: C29_42  and  O8_43 
REMARK   26  A    between atoms: C29_42  and  C35_49 
ROOT
ATOM      1  C14 non d ame      -5.933  11.107  66.586  0.00  0.00     0.089 C 
ATOM      2  H20 non d ame      -5.265  11.797  67.102  0.00  0.00     0.087 H 
ENDROOT
BRANCH   1   3
ATOM      3  N4  non d ame      -7.227  11.760  66.462  0.00  0.00    -0.346 N 
ATOM      4  C10 non d ame      -7.644  12.819  67.452  0.00  0.00     0.241 C 
ATOM      5  O4  non d ame      -6.922  13.126  68.342  0.00  0.00    -0.271 OA
ATOM      6  H19 non d ame      -7.829  11.482  65.699  0.00  0.00     0.163 HD
BRANCH   4   7
ATOM      7  C9  non d ame      -8.986  13.488  67.305  0.00  0.00     0.092 C 
ATOM      8  H11 non d ame      -9.494  13.085  66.429  0.00  0.00     0.088 H 
BRANCH   7   9
ATOM      9  N3  non d ame      -9.818  13.176  68.470  0.00  0.00    -0.346 N 
ATOM     10  C7  non d ame     -11.119  12.581  68.288  0.00  0.00     0.240 C 
ATOM     11  O3  non d ame     -11.512  12.347  67.210  0.00  0.00    -0.271 OA
ATOM     12  H10 non d ame      -9.493  13.374  69.406  0.00  0.00     0.163 HD
BRANCH  10  13
ATOM     13  C6  non d ame     -12.002  12.254  69.532  0.00  0.00     0.086 C 
ATOM     14  H6  non d ame     -12.977  11.848  69.263  0.00  0.00     0.086 H 
BRANCH  13  15
ATOM     15  N2  non d ame     -11.335  11.239  70.330  0.00  0.00    -0.343 N 
ATOM     16  C5  non d ame     -12.118  10.143  70.904  0.00  0.00     0.273 C 
ATOM     17  O2  non d ame     -13.285  10.088  70.721  0.00  0.00    -0.266 OA
ATOM     18  H5  non d ame     -10.338  11.294  70.484  0.00  0.00     0.163 HD
BRANCH  16  19
ATOM     19  C4  non d ame     -11.426   9.061  71.748  0.00  0.00     0.154 A 
ATOM     20  C1  non d ame     -10.025   8.778  71.810  0.00  0.00    -0.017 A 
ATOM     21  C2  non d ame      -9.910   7.706  72.723  0.00  0.00     0.077 A 
ATOM     22  H1  non d ame      -9.215   9.274  71.275  0.00  0.00     0.091 H 
ATOM     23  O1  non d ame     -11.111   7.416  73.133  0.00  0.00    -0.218 OA
ATOM     24  N1  non d ame     -12.012   8.193  72.578  0.00  0.00    -0.123 NA
BRANCH  21  25
ATOM     25  C3  non d ame      -8.620   7.018  73.149  0.00  0.00    -0.029 C 
ATOM     26  H2  non d ame      -8.017   6.797  72.267  0.00  0.00     0.036 H 
ATOM     27  H3  non d ame      -8.062   7.674  73.816  0.00  0.00     0.036 H 
ATOM     28  H4  non d ame      -8.857   6.089  73.668  0.00  0.00     0.036 H 
ENDBRANCH  21  25
ENDBRANCH  16  19
ENDBRANCH  13  15
BRANCH  13  29
ATOM     29  C8  non d ame     -12.204  13.504  70.351  0.00  0.00    -0.049 C 
ATOM     30  H7  non d ame     -11.318  13.687  70.959  0.00  0.00     0.030 H 
ATOM     31  H8  non d ame     -12.370  14.351  69.685  0.00  0.00     0.030 H 
ATOM     32  H9  non d ame     -13.070  13.377  71.000  0.00  0.00     0.030 H 
ENDBRANCH  13  29
ENDBRANCH  10  13
ENDBRANCH   7   9
BRANCH   7  33
ATOM     33  C11 non d ame      -8.788  15.029  67.209  0.00  0.00    -0.033 C 
ATOM     34  H12 non d ame      -7.722  15.217  67.084  0.00  0.00     0.042 H 
BRANCH  33  35
ATOM     35  C12 non d ame      -9.517  15.620  65.962  0.00  0.00    -0.071 C 
ATOM     36  H13 non d ame     -10.591  15.648  66.149  0.00  0.00     0.028 H 
ATOM     37  H14 non d ame      -9.155  16.630  65.774  0.00  0.00     0.028 H 
ATOM     38  H15 non d ame      -9.315  14.993  65.094  0.00  0.00     0.028 H 
ENDBRANCH  33  35
BRANCH  33  39
ATOM     39  C13 non d ame      -9.252  15.735  68.523  0.00  0.00    -0.071 C 
ATOM     40  H16 non d ame      -8.584  16.567  68.745  0.00  0.00     0.028 H 
ATOM     41  H17 non d ame     -10.268  16.110  68.395  0.00  0.00     0.028 H 
ATOM     42  H18 non d ame      -9.230  15.021  69.346  0.00  0.00     0.028 H 
ENDBRANCH  33  39
ENDBRANCH   7  33
ENDBRANCH   4   7
ENDBRANCH   1   3
BRANCH   1  43
ATOM     43  C15 non d ame      -5.420  10.748  65.162  0.00  0.00     0.240 C 
ATOM     44  O5  non d ame      -4.460  11.296  64.724  0.00  0.00    -0.271 OA
ATOM     45  N6  non d ame      -6.121   9.716  64.347  0.00  0.00    -0.355 N 
ATOM     46  H46 non d ame      -6.935   9.241  64.710  0.00  0.00     0.162 HD
BRANCH  45  47
ATOM     47  C20 non d ame      -5.621   9.385  62.995  0.00  0.00     0.013 C 
ATOM     48  H30 non d ame      -4.995  10.212  62.658  0.00  0.00     0.072 H 
BRANCH  47  49
ATOM     49  C21 non d ame      -6.794   9.209  62.057  0.00  0.00    -0.038 C 
ATOM     50  H31 non d ame      -6.360   8.980  61.083  0.00  0.00     0.036 H 
ATOM     51  H32 non d ame      -7.453   8.490  62.543  0.00  0.00     0.036 H 
BRANCH  49  52
ATOM     52  C22 non d ame      -7.616  10.503  61.876  0.00  0.00     0.018 C 
ATOM     53  H33 non d ame      -6.998  11.305  62.281  0.00  0.00     0.048 H 
ATOM     54  H34 non d ame      -7.912  10.521  60.826  0.00  0.00     0.048 H 
BRANCH  52  55
ATOM     55  C23 non d ame      -8.937  10.526  62.694  0.00  0.00     0.259 C 
ATOM     56  O7  non d ame      -9.727  11.401  62.540  0.00  0.00    -0.265 OA
BRANCH  55  57
ATOM     57  O8  non d ame      -9.188   9.494  63.640  0.00  0.00    -0.317 OA
BRANCH  57  58
ATOM     58  C29 non d ame      -9.816   9.947  64.843  0.00  0.00     0.052 C 
ATOM     59  H47 non d ame      -9.367  10.915  65.063  0.00  0.00     0.082 H 
ATOM     60  H48 non d ame     -10.888   9.872  64.662  0.00  0.00     0.082 H 
BRANCH  58  61
ATOM     61  C35 non d ame      -9.439   8.961  65.980  0.00  0.00    -0.034 A 
ATOM     62  C30 non d ame      -8.701   7.817  65.694  0.00  0.00    -0.075 A 
ATOM     63  C31 non d ame      -8.363   6.930  66.716  0.00  0.00    -0.082 A 
ATOM     64  H49 non d ame      -8.387   7.615  64.670  0.00  0.00     0.084 H 
ATOM     65  C32 non d ame      -8.768   7.191  68.028  0.00  0.00    -0.083 A 
ATOM     66  H50 non d ame      -7.783   6.036  66.489  0.00  0.00     0.083 H 
ATOM     67  C33 non d ame      -9.508   8.332  68.308  0.00  0.00    -0.082 A 
ATOM     68  H51 non d ame      -8.508   6.503  68.833  0.00  0.00     0.083 H 
ATOM     69  C34 non d ame      -9.846   9.221  67.290  0.00  0.00    -0.075 A 
ATOM     70  H52 non d ame      -9.824   8.531  69.332  0.00  0.00     0.083 H 
ATOM     71  H53 non d ame     -10.426  10.116  67.518  0.00  0.00     0.084 H 
ENDBRANCH  58  61
ENDBRANCH  57  58
ENDBRANCH  55  57
ENDBRANCH  52  55
ENDBRANCH  49  52
ENDBRANCH  47  49
BRANCH  47  72
ATOM     72  C24 non d ame      -4.810   8.092  63.046  0.00  0.00    -0.039 C 
ATOM     73  H35 non d ame      -5.058   7.558  62.129  0.00  0.00     0.036 H 
ATOM     74  H36 non d ame      -3.782   8.402  63.235  0.00  0.00     0.036 H 
BRANCH  72  75
ATOM     75  C25 non d ame      -5.256   7.161  64.271  0.00  0.00    -0.001 C 
ATOM     76  C26 non d ame      -4.104   7.190  65.445  0.00  0.00    -0.035 C 
ATOM     77  C27 non d ame      -3.784   5.915  65.772  0.00  0.00     0.085 C 
ATOM     78  H38 non d ame      -3.173   7.592  65.045  0.00  0.00     0.036 H 
ATOM     79  H39 non d ame      -4.520   7.593  66.368  0.00  0.00     0.036 H 
ATOM     80  N5  non d ame      -4.370   5.024  64.705  0.00  0.00    -0.049 N 
ATOM     81  H40 non d ame      -2.695   5.865  65.719  0.00  0.00     0.075 H 
ATOM     82  H41 non d ame      -4.292   5.721  66.716  0.00  0.00     0.075 H 
ATOM     83  C28 non d ame      -5.424   5.938  63.892  0.00  0.00     0.193 C 
ATOM     84  H42 non d ame      -3.611   4.781  64.085  0.00  0.00     0.280 HD
ATOM     85  H43 non d ame      -4.881   4.297  65.187  0.00  0.00     0.280 HD
ATOM     86  H44 non d ame      -6.496   5.826  64.055  0.00  0.00     0.129 H 
ATOM     87  H37 non d ame      -6.284   7.351  64.581  0.00  0.00     0.046 H 
BRANCH  83  88
ATOM     88  O6  non d ame      -5.233   5.779  62.485  0.00  0.00    -0.369 OA
ATOM     89  H45 non d ame      -5.035   6.631  62.091  0.00  0.00     0.212 HD
ENDBRANCH  83  88
ENDBRANCH  72  75
ENDBRANCH  47  72
ENDBRANCH  45  47
ENDBRANCH   1  43
BRANCH   1  90
ATOM     90  C16 non d ame      -6.094   9.837  67.406  0.00  0.00    -0.035 C 
ATOM     91  H21 non d ame      -7.148   9.805  67.685  0.00  0.00     0.037 H 
ATOM     92  H22 non d ame      -5.669   9.042  66.793  0.00  0.00     0.037 H 
BRANCH  90  93
ATOM     93  C17 non d ame      -5.285   9.846  68.742  0.00  0.00    -0.059 C 
ATOM     94  H23 non d ame      -4.738   8.905  68.803  0.00  0.00     0.038 H 
BRANCH  93  95
ATOM     95  C18 non d ame      -4.241  11.008  68.790  0.00  0.00    -0.073 C 
ATOM     96  H24 non d ame      -3.672  10.945  69.717  0.00  0.00     0.028 H 
ATOM     97  H25 non d ame      -3.564  10.923  67.941  0.00  0.00     0.028 H 
ATOM     98  H26 non d ame      -4.761  11.965  68.747  0.00  0.00     0.028 H 
ENDBRANCH  93  95
BRANCH  93  99
ATOM     99  C19 non d ame      -6.223   9.906  69.950  0.00  0.00    -0.073 C 
ATOM    100  H27 non d ame      -6.874  10.776  69.862  0.00  0.00     0.028 H 
ATOM    101  H28 non d ame      -6.830   9.000  69.983  0.00  0.00     0.028 H 
ATOM    102  H29 non d ame      -5.635   9.982  70.864  0.00  0.00     0.028 H 
ENDBRANCH  93  99
ENDBRANCH  90  93
ENDBRANCH   1  90
TORSDOF 26
ENDMDL
MODEL 6
REMARK VINA RESULT:      -6.5      3.084      9.078
REMARK  26 active torsions:
REMARK  status: ('A' for Active; 'I' for Inactive)
REMARK    1  A    between atoms: C2_2  and  C3_3 
REMARK    2  A    between atoms: C4_6  and  C5_7 
REMARK       I    between atoms: C5_7  and  N2_9 
REMARK    3  A    between atoms: N2_9  and  C6_10 
REMARK    4  A    between atoms: C6_10  and  C7_11 
REMARK    5  A    between atoms: C6_10  and  C8_13 
REMARK       I    between atoms: C7_11  and  N3_14 
REMARK    6  A    between atoms: N3_14  and  C9_15 
REMARK    7  A    between atoms: C9_15  and  C10_16 
REMARK    8  A    between atoms: C9_15  and  C11_18 
REMARK       I    between atoms: C10_16  and  N4_21 
REMARK    9  A    between atoms: C11_18  and  C12_19 
REMARK   10  A    between atoms: C11_18  and  C13_20 
REMARK   11  A    between atoms: N4_21  and  C14_22 
REMARK   12  A    between atoms: C14_22  and  C15_23 
REMARK   13  A    between atoms: C14_22  and  C16_25 
REMARK       I    between atoms: C15_23  and  N6_40 
REMARK   14  A    between atoms: C16_25  and  C17_26 
REMARK   15  A    between atoms: C17_26  and  C18_27 
REMARK   16  A    between atoms: C17_26  and  C19_28 
REMARK   17  A    between atoms: C20_29  and  C21_30 
REMARK   18  A    between atoms: C20_29  and  C24_33 
REMARK   19  A    between atoms: C20_29  and  N6_40 
REMARK   20  A    between atoms: C21_30  and  C22_31 
REMARK   21  A    between atoms: C22_31  and  C23_32 
REMARK   22  A    between atoms: C23_32  and  O8_43 
REMARK   23  A    between atoms: C24_33  and  C25_34 
REMARK   24  A    between atoms: C28_38  and  O6_39 
REMARK   25  A    between atoms: C29_42  and  O8_43 
REMARK   26  A    between atoms: C29_42  and  C35_49 
ROOT
ATOM      1  C14 non d ame      -9.004  10.258  65.093  0.00  0.00     0.089 C 
ATOM      2  H20 non d ame      -7.945  10.474  65.232  0.00  0.00     0.087 H 
ENDROOT
BRANCH   1   3
ATOM      3  N4  non d ame      -9.314   9.067  65.871  0.00  0.00    -0.346 N 
ATOM      4  C10 non d ame      -8.216   8.119  66.282  0.00  0.00     0.241 C 
ATOM      5  O4  non d ame      -7.091   8.334  65.973  0.00  0.00    -0.271 OA
ATOM      6  H19 non d ame     -10.279   8.901  66.122  0.00  0.00     0.163 HD
BRANCH   4   7
ATOM      7  C9  non d ame      -8.554   6.894  67.091  0.00  0.00     0.092 C 
ATOM      8  H11 non d ame      -7.724   6.190  67.040  0.00  0.00     0.088 H 
BRANCH   7   9
ATOM      9  N3  non d ame      -8.719   7.269  68.499  0.00  0.00    -0.346 N 
ATOM     10  C7  non d ame      -7.772   6.806  69.483  0.00  0.00     0.240 C 
ATOM     11  O3  non d ame      -6.872   6.130  69.160  0.00  0.00    -0.271 OA
ATOM     12  H10 non d ame      -9.491   7.850  68.793  0.00  0.00     0.163 HD
BRANCH  10  13
ATOM     13  C6  non d ame      -7.954   7.205  70.981  0.00  0.00     0.086 C 
ATOM     14  H6  non d ame      -7.499   8.166  71.219  0.00  0.00     0.086 H 
BRANCH  13  15
ATOM     15  N2  non d ame      -9.374   7.336  71.264  0.00  0.00    -0.343 N 
ATOM     16  C5  non d ame     -10.032   8.630  71.068  0.00  0.00     0.273 C 
ATOM     17  O2  non d ame      -9.411   9.559  70.685  0.00  0.00    -0.266 OA
ATOM     18  H5  non d ame      -9.897   6.537  71.594  0.00  0.00     0.163 HD
BRANCH  16  19
ATOM     19  C4  non d ame     -11.533   8.782  71.363  0.00  0.00     0.154 A 
ATOM     20  C1  non d ame     -12.500   7.735  71.487  0.00  0.00    -0.017 A 
ATOM     21  C2  non d ame     -13.719   8.396  71.757  0.00  0.00     0.077 A 
ATOM     22  H1  non d ame     -12.342   6.660  71.396  0.00  0.00     0.091 H 
ATOM     23  O1  non d ame     -13.469   9.672  71.784  0.00  0.00    -0.218 OA
ATOM     24  N1  non d ame     -12.201   9.922  71.556  0.00  0.00    -0.123 NA
BRANCH  21  25
ATOM     25  C3  non d ame     -15.073   7.736  71.977  0.00  0.00    -0.029 C 
ATOM     26  H2  non d ame     -15.307   7.093  71.128  0.00  0.00     0.036 H 
ATOM     27  H3  non d ame     -15.042   7.138  72.888  0.00  0.00     0.036 H 
ATOM     28  H4  non d ame     -15.841   8.504  72.074  0.00  0.00     0.036 H 
ENDBRANCH  21  25
ENDBRANCH  16  19
ENDBRANCH  13  15
BRANCH  13  29
ATOM     29  C8  non d ame      -7.346   6.145  71.864  0.00  0.00    -0.049 C 
ATOM     30  H7  non d ame      -6.318   5.959  71.553  0.00  0.00     0.030 H 
ATOM     31  H8  non d ame      -7.357   6.485  72.900  0.00  0.00     0.030 H 
ATOM     32  H9  non d ame      -7.924   5.226  71.777  0.00  0.00     0.030 H 
ENDBRANCH  13  29
ENDBRANCH  10  13
ENDBRANCH   7   9
BRANCH   7  33
ATOM     33  C11 non d ame      -9.881   6.274  66.564  0.00  0.00    -0.033 C 
ATOM     34  H12 non d ame     -10.236   6.902  65.747  0.00  0.00     0.042 H 
BRANCH  33  35
ATOM     35  C12 non d ame      -9.649   4.842  65.988  0.00  0.00    -0.071 C 
ATOM     36  H13 non d ame      -9.938   4.100  66.733  0.00  0.00     0.028 H 
ATOM     37  H14 non d ame     -10.254   4.710  65.091  0.00  0.00     0.028 H 
ATOM     38  H15 non d ame      -8.596   4.717  65.740  0.00  0.00     0.028 H 
ENDBRANCH  33  35
BRANCH  33  39
ATOM     39  C13 non d ame     -10.977   6.266  67.678  0.00  0.00    -0.071 C 
ATOM     40  H16 non d ame     -11.768   6.967  67.414  0.00  0.00     0.028 H 
ATOM     41  H17 non d ame     -11.394   5.263  67.770  0.00  0.00     0.028 H 
ATOM     42  H18 non d ame     -10.531   6.563  68.627  0.00  0.00     0.028 H 
ENDBRANCH  33  39
ENDBRANCH   7  33
ENDBRANCH   4   7
ENDBRANCH   1   3
BRANCH   1  43
ATOM     43  C15 non d ame      -9.911  11.421  65.587  0.00  0.00     0.240 C 
ATOM     44  O5  non d ame     -11.059  11.219  65.820  0.00  0.00    -0.271 OA
ATOM     45  N6  non d ame      -9.346  12.788  65.777  0.00  0.00    -0.355 N 
ATOM     46  H46 non d ame      -8.372  12.971  65.588  0.00  0.00     0.162 HD
BRANCH  45  47
ATOM     47  C20 non d ame     -10.221  13.883  66.249  0.00  0.00     0.013 C 
ATOM     48  H30 non d ame     -11.233  13.678  65.899  0.00  0.00     0.072 H 
BRANCH  47  49
ATOM     49  C21 non d ame      -9.732  15.194  65.676  0.00  0.00    -0.038 C 
ATOM     50  H31 non d ame      -8.651  15.090  65.581  0.00  0.00     0.036 H 
ATOM     51  H32 non d ame     -10.342  15.374  64.791  0.00  0.00     0.036 H 
BRANCH  49  52
ATOM     52  C22 non d ame      -9.974  16.389  66.624  0.00  0.00     0.018 C 
ATOM     53  H33 non d ame     -10.974  16.754  66.390  0.00  0.00     0.048 H 
ATOM     54  H34 non d ame      -9.748  16.022  67.625  0.00  0.00     0.048 H 
BRANCH  52  55
ATOM     55  C23 non d ame      -9.013  17.586  66.380  0.00  0.00     0.259 C 
ATOM     56  O7  non d ame      -8.005  17.436  65.770  0.00  0.00    -0.265 OA
BRANCH  55  57
ATOM     57  O8  non d ame      -9.347  18.866  66.905  0.00  0.00    -0.317 OA
BRANCH  57  58
ATOM     58  C29 non d ame      -8.989  19.042  68.279  0.00  0.00     0.052 C 
ATOM     59  H47 non d ame      -9.724  19.734  68.689  0.00  0.00     0.082 H 
ATOM     60  H48 non d ame      -8.896  18.038  68.691  0.00  0.00     0.082 H 
BRANCH  58  61
ATOM     61  C35 non d ame      -7.594  19.722  68.326  0.00  0.00    -0.034 A 
ATOM     62  C30 non d ame      -7.229  20.633  67.340  0.00  0.00    -0.075 A 
ATOM     63  C31 non d ame      -5.977  21.243  67.382  0.00  0.00    -0.082 A 
ATOM     64  H49 non d ame      -7.924  20.868  66.534  0.00  0.00     0.084 H 
ATOM     65  C32 non d ame      -5.086  20.939  68.415  0.00  0.00    -0.083 A 
ATOM     66  H50 non d ame      -5.695  21.958  66.609  0.00  0.00     0.083 H 
ATOM     67  C33 non d ame      -5.454  20.027  69.396  0.00  0.00    -0.082 A 
ATOM     68  H51 non d ame      -4.105  21.412  68.456  0.00  0.00     0.083 H 
ATOM     69  C34 non d ame      -6.705  19.416  69.358  0.00  0.00    -0.075 A 
ATOM     70  H52 non d ame      -4.756  19.789  70.199  0.00  0.00     0.083 H 
ATOM     71  H53 non d ame      -6.987  18.702  70.133  0.00  0.00     0.084 H 
ENDBRANCH  58  61
ENDBRANCH  57  58
ENDBRANCH  55  57
ENDBRANCH  52  55
ENDBRANCH  49  52
ENDBRANCH  47  49
BRANCH  47  72
ATOM     72  C24 non d ame     -10.189  13.949  67.774  0.00  0.00    -0.039 C 
ATOM     73  H35 non d ame      -9.493  13.170  68.084  0.00  0.00     0.036 H 
ATOM     74  H36 non d ame      -9.982  14.992  68.015  0.00  0.00     0.036 H 
BRANCH  72  75
ATOM     75  C25 non d ame     -11.614  13.591  68.413  0.00  0.00    -0.001 C 
ATOM     76  C26 non d ame     -12.049  14.749  69.496  0.00  0.00    -0.035 C 
ATOM     77  C27 non d ame     -12.391  14.149  70.662  0.00  0.00     0.085 C 
ATOM     78  H38 non d ame     -11.183  15.354  69.765  0.00  0.00     0.036 H 
ATOM     79  H39 non d ame     -12.973  15.232  69.178  0.00  0.00     0.036 H 
ATOM     80  N5  non d ame     -11.917  12.718  70.578  0.00  0.00    -0.049 N 
ATOM     81  H40 non d ame     -11.821  14.667  71.434  0.00  0.00     0.075 H 
ATOM     82  H41 non d ame     -13.480  14.162  70.688  0.00  0.00     0.075 H 
ATOM     83  C28 non d ame     -11.581  12.453  69.021  0.00  0.00     0.193 C 
ATOM     84  H42 non d ame     -11.057  12.670  71.105  0.00  0.00     0.280 HD
ATOM     85  H43 non d ame     -12.703  12.141  70.840  0.00  0.00     0.280 HD
ATOM     86  H44 non d ame     -12.265  11.875  68.398  0.00  0.00     0.129 H 
ATOM     87  H37 non d ame     -12.350  13.320  67.655  0.00  0.00     0.046 H 
BRANCH  83  88
ATOM     88  O6  non d ame     -10.312  11.810  68.893  0.00  0.00    -0.369 OA
ATOM     89  H45 non d ame      -9.939  11.664  69.765  0.00  0.00     0.212 HD
ENDBRANCH  83  88
ENDBRANCH  72  75
ENDBRANCH  47  72
ENDBRANCH  45  47
ENDBRANCH   1  43
BRANCH   1  90
ATOM     90  C16 non d ame      -9.285   9.978  63.625  0.00  0.00    -0.035 C 
ATOM     91  H21 non d ame      -9.916   9.090  63.616  0.00  0.00     0.037 H 
ATOM     92  H22 non d ame      -9.661  10.918  63.220  0.00  0.00     0.037 H 
BRANCH  90  93
ATOM     93  C17 non d ame      -8.008   9.621  62.801  0.00  0.00    -0.059 C 
ATOM     94  H23 non d ame      -7.141   9.818  63.431  0.00  0.00     0.038 H 
BRANCH  93  95
ATOM     95  C18 non d ame      -7.970   8.112  62.397  0.00  0.00    -0.073 C 
ATOM     96  H24 non d ame      -7.912   8.028  61.312  0.00  0.00     0.028 H 
ATOM     97  H25 non d ame      -7.098   7.637  62.846  0.00  0.00     0.028 H 
ATOM     98  H26 non d ame      -8.875   7.619  62.752  0.00  0.00     0.028 H 
ENDBRANCH  93  95
BRANCH  93  99
ATOM     99  C19 non d ame      -7.885  10.518  61.566  0.00  0.00    -0.073 C 
ATOM    100  H27 non d ame      -8.623  11.319  61.624  0.00  0.00     0.028 H 
ATOM    101  H28 non d ame      -6.884  10.948  61.528  0.00  0.00     0.028 H 
ATOM    102  H29 non d ame      -8.060   9.926  60.668  0.00  0.00     0.028 H 
ENDBRANCH  93  99
ENDBRANCH  90  93
ENDBRANCH   1  90
TORSDOF 26
ENDMDL
MODEL 7
REMARK VINA RESULT:      -6.5      2.685      8.808
REMARK  26 active torsions:
REMARK  status: ('A' for Active; 'I' for Inactive)
REMARK    1  A    between atoms: C2_2  and  C3_3 
REMARK    2  A    between atoms: C4_6  and  C5_7 
REMARK       I    between atoms: C5_7  and  N2_9 
REMARK    3  A    between atoms: N2_9  and  C6_10 
REMARK    4  A    between atoms: C6_10  and  C7_11 
REMARK    5  A    between atoms: C6_10  and  C8_13 
REMARK       I    between atoms: C7_11  and  N3_14 
REMARK    6  A    between atoms: N3_14  and  C9_15 
REMARK    7  A    between atoms: C9_15  and  C10_16 
REMARK    8  A    between atoms: C9_15  and  C11_18 
REMARK       I    between atoms: C10_16  and  N4_21 
REMARK    9  A    between atoms: C11_18  and  C12_19 
REMARK   10  A    between atoms: C11_18  and  C13_20 
REMARK   11  A    between atoms: N4_21  and  C14_22 
REMARK   12  A    between atoms: C14_22  and  C15_23 
REMARK   13  A    between atoms: C14_22  and  C16_25 
REMARK       I    between atoms: C15_23  and  N6_40 
REMARK   14  A    between atoms: C16_25  and  C17_26 
REMARK   15  A    between atoms: C17_26  and  C18_27 
REMARK   16  A    between atoms: C17_26  and  C19_28 
REMARK   17  A    between atoms: C20_29  and  C21_30 
REMARK   18  A    between atoms: C20_29  and  C24_33 
REMARK   19  A    between atoms: C20_29  and  N6_40 
REMARK   20  A    between atoms: C21_30  and  C22_31 
REMARK   21  A    between atoms: C22_31  and  C23_32 
REMARK   22  A    between atoms: C23_32  and  O8_43 
REMARK   23  A    between atoms: C24_33  and  C25_34 
REMARK   24  A    between atoms: C28_38  and  O6_39 
REMARK   25  A    between atoms: C29_42  and  O8_43 
REMARK   26  A    between atoms: C29_42  and  C35_49 
ROOT
ATOM      1  C14 non d ame      -7.875   9.330  65.156  0.00  0.00     0.089 C 
ATOM      2  H20 non d ame      -7.152   9.306  65.971  0.00  0.00     0.087 H 
ENDROOT
BRANCH   1   3
ATOM      3  N4  non d ame      -8.308   7.962  64.913  0.00  0.00    -0.346 N 
ATOM      4  C10 non d ame      -7.345   6.816  65.093  0.00  0.00     0.241 C 
ATOM      5  O4  non d ame      -6.226   7.019  65.431  0.00  0.00    -0.271 OA
ATOM      6  H19 non d ame      -9.264   7.811  64.624  0.00  0.00     0.163 HD
BRANCH   4   7
ATOM      7  C9  non d ame      -7.812   5.405  64.843  0.00  0.00     0.092 C 
ATOM      8  H11 non d ame      -6.945   4.758  64.717  0.00  0.00     0.088 H 
BRANCH   7   9
ATOM      9  N3  non d ame      -8.550   4.920  66.013  0.00  0.00    -0.346 N 
ATOM     10  C7  non d ame      -7.880   4.113  67.003  0.00  0.00     0.240 C 
ATOM     11  O3  non d ame      -6.748   3.843  66.873  0.00  0.00    -0.271 OA
ATOM     12  H10 non d ame      -9.527   5.143  66.138  0.00  0.00     0.163 HD
BRANCH  10  13
ATOM     13  C6  non d ame      -8.671   3.596  68.245  0.00  0.00     0.086 C 
ATOM     14  H6  non d ame      -8.028   3.401  69.103  0.00  0.00     0.086 H 
BRANCH  13  15
ATOM     15  N2  non d ame      -9.618   4.618  68.659  0.00  0.00    -0.343 N 
ATOM     16  C5  non d ame      -9.240   5.570  69.705  0.00  0.00     0.273 C 
ATOM     17  O2  non d ame      -8.173   5.504  70.209  0.00  0.00    -0.266 OA
ATOM     18  H5  non d ame     -10.529   4.665  68.224  0.00  0.00     0.163 HD
BRANCH  16  19
ATOM     19  C4  non d ame     -10.231   6.657  70.151  0.00  0.00     0.154 A 
ATOM     20  C1  non d ame     -11.444   6.471  70.886  0.00  0.00    -0.017 A 
ATOM     21  C2  non d ame     -11.979   7.770  71.040  0.00  0.00     0.077 A 
ATOM     22  H1  non d ame     -11.871   5.537  71.253  0.00  0.00     0.091 H 
ATOM     23  O1  non d ame     -11.160   8.597  70.458  0.00  0.00    -0.218 OA
ATOM     24  N1  non d ame     -10.133   7.971  69.932  0.00  0.00    -0.123 NA
BRANCH  21  25
ATOM     25  C3  non d ame     -13.274   8.133  71.754  0.00  0.00    -0.029 C 
ATOM     26  H2  non d ame     -14.096   7.552  71.336  0.00  0.00     0.036 H 
ATOM     27  H3  non d ame     -13.177   7.912  72.817  0.00  0.00     0.036 H 
ATOM     28  H4  non d ame     -13.477   9.196  71.622  0.00  0.00     0.036 H 
ENDBRANCH  21  25
ENDBRANCH  16  19
ENDBRANCH  13  15
BRANCH  13  29
ATOM     29  C8  non d ame      -9.403   2.328  67.886  0.00  0.00    -0.049 C 
ATOM     30  H7  non d ame      -9.852   2.435  66.898  0.00  0.00     0.030 H 
ATOM     31  H8  non d ame      -8.702   1.493  67.878  0.00  0.00     0.030 H 
ATOM     32  H9  non d ame     -10.185   2.140  68.621  0.00  0.00     0.030 H 
ENDBRANCH  13  29
ENDBRANCH  10  13
ENDBRANCH   7   9
BRANCH   7  33
ATOM     33  C11 non d ame      -8.747   5.382  63.598  0.00  0.00    -0.033 C 
ATOM     34  H12 non d ame      -9.296   6.323  63.581  0.00  0.00     0.042 H 
BRANCH  33  35
ATOM     35  C12 non d ame      -7.926   5.294  62.273  0.00  0.00    -0.071 C 
ATOM     36  H13 non d ame      -8.557   5.589  61.435  0.00  0.00     0.028 H 
ATOM     37  H14 non d ame      -7.067   5.962  62.333  0.00  0.00     0.028 H 
ATOM     38  H15 non d ame      -7.582   4.270  62.127  0.00  0.00     0.028 H 
ENDBRANCH  33  35
BRANCH  33  39
ATOM     39  C13 non d ame      -9.785   4.218  63.699  0.00  0.00    -0.071 C 
ATOM     40  H16 non d ame      -9.528   3.575  64.541  0.00  0.00     0.028 H 
ATOM     41  H17 non d ame     -10.782   4.633  63.850  0.00  0.00     0.028 H 
ATOM     42  H18 non d ame      -9.768   3.636  62.778  0.00  0.00     0.028 H 
ENDBRANCH  33  39
ENDBRANCH   7  33
ENDBRANCH   4   7
ENDBRANCH   1   3
BRANCH   1  43
ATOM     43  C15 non d ame      -9.123  10.191  65.503  0.00  0.00     0.240 C 
ATOM     44  O5  non d ame     -10.158   9.660  65.746  0.00  0.00    -0.271 OA
ATOM     45  N6  non d ame      -9.026  11.678  65.541  0.00  0.00    -0.355 N 
ATOM     46  H46 non d ame      -8.151  12.141  65.341  0.00  0.00     0.162 HD
BRANCH  45  47
ATOM     47  C20 non d ame     -10.222  12.482  65.874  0.00  0.00     0.013 C 
ATOM     48  H30 non d ame     -11.103  11.878  65.658  0.00  0.00     0.072 H 
BRANCH  47  49
ATOM     49  C21 non d ame     -10.234  13.734  65.027  0.00  0.00    -0.038 C 
ATOM     50  H31 non d ame      -9.338  14.289  65.307  0.00  0.00     0.036 H 
ATOM     51  H32 non d ame     -10.366  13.393  63.999  0.00  0.00     0.036 H 
BRANCH  49  52
ATOM     52  C22 non d ame     -11.433  14.657  65.337  0.00  0.00     0.018 C 
ATOM     53  H33 non d ame     -12.230  14.342  64.663  0.00  0.00     0.048 H 
ATOM     54  H34 non d ame     -11.578  14.599  66.416  0.00  0.00     0.048 H 
BRANCH  52  55
ATOM     55  C23 non d ame     -11.169  16.155  65.020  0.00  0.00     0.259 C 
ATOM     56  O7  non d ame     -11.413  16.595  63.943  0.00  0.00    -0.265 OA
BRANCH  55  57
ATOM     57  O8  non d ame     -10.621  16.995  66.028  0.00  0.00    -0.317 OA
BRANCH  57  58
ATOM     58  C29 non d ame      -9.196  17.112  65.977  0.00  0.00     0.052 C 
ATOM     59  H47 non d ame      -8.896  16.650  65.036  0.00  0.00     0.082 H 
ATOM     60  H48 non d ame      -8.980  18.164  66.161  0.00  0.00     0.082 H 
BRANCH  58  61
ATOM     61  C35 non d ame      -8.605  16.277  67.144  0.00  0.00    -0.034 A 
ATOM     62  C30 non d ame      -9.248  16.252  68.378  0.00  0.00    -0.075 A 
ATOM     63  C31 non d ame      -8.716  15.502  69.427  0.00  0.00    -0.082 A 
ATOM     64  H49 non d ame     -10.168  16.818  68.523  0.00  0.00     0.084 H 
ATOM     65  C32 non d ame      -7.536  14.779  69.239  0.00  0.00    -0.083 A 
ATOM     66  H50 non d ame      -9.224  15.482  70.391  0.00  0.00     0.083 H 
ATOM     67  C33 non d ame      -6.896  14.810  68.007  0.00  0.00    -0.082 A 
ATOM     68  H51 non d ame      -7.114  14.190  70.054  0.00  0.00     0.083 H 
ATOM     69  C34 non d ame      -7.425  15.556  66.956  0.00  0.00    -0.075 A 
ATOM     70  H52 non d ame      -5.974  14.246  67.865  0.00  0.00     0.083 H 
ATOM     71  H53 non d ame      -6.917  15.574  65.991  0.00  0.00     0.084 H 
ENDBRANCH  58  61
ENDBRANCH  57  58
ENDBRANCH  55  57
ENDBRANCH  52  55
ENDBRANCH  49  52
ENDBRANCH  47  49
BRANCH  47  72
ATOM     72  C24 non d ame     -10.191  12.867  67.352  0.00  0.00    -0.039 C 
ATOM     73  H35 non d ame      -9.409  12.250  67.795  0.00  0.00     0.036 H 
ATOM     74  H36 non d ame     -10.102  13.953  67.367  0.00  0.00     0.036 H 
BRANCH  72  75
ATOM     75  C25 non d ame     -11.562  12.494  68.090  0.00  0.00    -0.001 C 
ATOM     76  C26 non d ame     -11.970  13.684  69.149  0.00  0.00    -0.035 C 
ATOM     77  C27 non d ame     -12.221  13.125  70.358  0.00  0.00     0.085 C 
ATOM     78  H38 non d ame     -11.110  14.325  69.339  0.00  0.00     0.036 H 
ATOM     79  H39 non d ame     -12.927  14.124  68.868  0.00  0.00     0.036 H 
ATOM     80  N5  non d ame     -11.706  11.707  70.304  0.00  0.00    -0.049 N 
ATOM     81  H40 non d ame     -11.623  13.694  71.072  0.00  0.00     0.075 H 
ATOM     82  H41 non d ame     -13.306  13.106  70.449  0.00  0.00     0.075 H 
ATOM     83  C28 non d ame     -11.456  11.384  68.742  0.00  0.00     0.193 C 
ATOM     84  H42 non d ame     -10.815  11.708  70.780  0.00  0.00     0.280 HD
ATOM     85  H43 non d ame     -12.456  11.118  70.638  0.00  0.00     0.280 HD
ATOM     86  H44 non d ame     -12.155  10.760  68.187  0.00  0.00     0.129 H 
ATOM     87  H37 non d ame     -12.333  12.167  67.391  0.00  0.00     0.046 H 
BRANCH  83  88
ATOM     88  O6  non d ame     -10.176  10.775  68.564  0.00  0.00    -0.369 OA
ATOM     89  H45 non d ame      -9.890  10.384  69.393  0.00  0.00     0.212 HD
ENDBRANCH  83  88
ENDBRANCH  72  75
ENDBRANCH  47  72
ENDBRANCH  45  47
ENDBRANCH   1  43
BRANCH   1  90
ATOM     90  C16 non d ame      -7.214   9.872  63.898  0.00  0.00    -0.035 C 
ATOM     91  H21 non d ame      -7.097  10.942  64.071  0.00  0.00     0.037 H 
ATOM     92  H22 non d ame      -6.335   9.247  63.741  0.00  0.00     0.037 H 
BRANCH  90  93
ATOM     93  C17 non d ame      -8.094   9.726  62.616  0.00  0.00    -0.059 C 
ATOM     94  H23 non d ame      -8.994   9.178  62.893  0.00  0.00     0.038 H 
BRANCH  93  95
ATOM     95  C18 non d ame      -8.536  11.111  62.043  0.00  0.00    -0.073 C 
ATOM     96  H24 non d ame      -8.391  11.880  62.802  0.00  0.00     0.028 H 
ATOM     97  H25 non d ame      -7.936  11.349  61.164  0.00  0.00     0.028 H 
ATOM     98  H26 non d ame      -9.589  11.069  61.764  0.00  0.00     0.028 H 
ENDBRANCH  93  95
BRANCH  93  99
ATOM     99  C19 non d ame      -7.371   8.901  61.548  0.00  0.00    -0.073 C 
ATOM    100  H27 non d ame      -7.519   9.361  60.570  0.00  0.00     0.028 H 
ATOM    101  H28 non d ame      -6.305   8.867  61.776  0.00  0.00     0.028 H 
ATOM    102  H29 non d ame      -7.772   7.888  61.537  0.00  0.00     0.028 H 
ENDBRANCH  93  99
ENDBRANCH  90  93
ENDBRANCH   1  90
TORSDOF 26
ENDMDL
MODEL 8
REMARK VINA RESULT:      -6.5      2.450      7.450
REMARK  26 active torsions:
REMARK  status: ('A' for Active; 'I' for Inactive)
REMARK    1  A    between atoms: C2_2  and  C3_3 
REMARK    2  A    between atoms: C4_6  and  C5_7 
REMARK       I    between atoms: C5_7  and  N2_9 
REMARK    3  A    between atoms: N2_9  and  C6_10 
REMARK    4  A    between atoms: C6_10  and  C7_11 
REMARK    5  A    between atoms: C6_10  and  C8_13 
REMARK       I    between atoms: C7_11  and  N3_14 
REMARK    6  A    between atoms: N3_14  and  C9_15 
REMARK    7  A    between atoms: C9_15  and  C10_16 
REMARK    8  A    between atoms: C9_15  and  C11_18 
REMARK       I    between atoms: C10_16  and  N4_21 
REMARK    9  A    between atoms: C11_18  and  C12_19 
REMARK   10  A    between atoms: C11_18  and  C13_20 
REMARK   11  A    between atoms: N4_21  and  C14_22 
REMARK   12  A    between atoms: C14_22  and  C15_23 
REMARK   13  A    between atoms: C14_22  and  C16_25 
REMARK       I    between atoms: C15_23  and  N6_40 
REMARK   14  A    between atoms: C16_25  and  C17_26 
REMARK   15  A    between atoms: C17_26  and  C18_27 
REMARK   16  A    between atoms: C17_26  and  C19_28 
REMARK   17  A    between atoms: C20_29  and  C21_30 
REMARK   18  A    between atoms: C20_29  and  C24_33 
REMARK   19  A    between atoms: C20_29  and  N6_40 
REMARK   20  A    between atoms: C21_30  and  C22_31 
REMARK   21  A    between atoms: C22_31  and  C23_32 
REMARK   22  A    between atoms: C23_32  and  O8_43 
REMARK   23  A    between atoms: C24_33  and  C25_34 
REMARK   24  A    between atoms: C28_38  and  O6_39 
REMARK   25  A    between atoms: C29_42  and  O8_43 
REMARK   26  A    between atoms: C29_42  and  C35_49 
ROOT
ATOM      1  C14 non d ame      -6.934  10.200  63.019  0.00  0.00     0.089 C 
ATOM      2  H20 non d ame      -6.317  10.912  62.468  0.00  0.00     0.087 H 
ENDROOT
BRANCH   1   3
ATOM      3  N4  non d ame      -6.403  10.116  64.372  0.00  0.00    -0.346 N 
ATOM      4  C10 non d ame      -5.075  10.746  64.710  0.00  0.00     0.241 C 
ATOM      5  O4  non d ame      -4.451  11.315  63.875  0.00  0.00    -0.271 OA
ATOM      6  H19 non d ame      -6.948   9.625  65.066  0.00  0.00     0.163 HD
BRANCH   4   7
ATOM      7  C9  non d ame      -4.544  10.654  66.116  0.00  0.00     0.092 C 
ATOM      8  H11 non d ame      -3.659  11.284  66.207  0.00  0.00     0.088 H 
BRANCH   7   9
ATOM      9  N3  non d ame      -5.545  11.173  67.052  0.00  0.00    -0.346 N 
ATOM     10  C7  non d ame      -5.517  12.563  67.439  0.00  0.00     0.240 C 
ATOM     11  O3  non d ame      -4.696  13.276  67.006  0.00  0.00    -0.271 OA
ATOM     12  H10 non d ame      -6.258  10.570  67.435  0.00  0.00     0.163 HD
BRANCH  10  13
ATOM     13  C6  non d ame      -6.583  13.110  68.438  0.00  0.00     0.086 C 
ATOM     14  H6  non d ame      -6.137  13.587  69.310  0.00  0.00     0.086 H 
BRANCH  13  15
ATOM     15  N2  non d ame      -7.379  14.125  67.769  0.00  0.00    -0.343 N 
ATOM     16  C5  non d ame      -7.144  15.539  68.069  0.00  0.00     0.273 C 
ATOM     17  O2  non d ame      -6.314  15.849  68.852  0.00  0.00    -0.266 OA
ATOM     18  H5  non d ame      -8.088  13.851  67.104  0.00  0.00     0.163 HD
BRANCH  16  19
ATOM     19  C4  non d ame      -7.977  16.624  67.368  0.00  0.00     0.154 A 
ATOM     20  C1  non d ame      -8.888  17.544  67.979  0.00  0.00    -0.017 A 
ATOM     21  C2  non d ame      -9.389  18.321  66.911  0.00  0.00     0.077 A 
ATOM     22  H1  non d ame      -9.145  17.634  69.034  0.00  0.00     0.091 H 
ATOM     23  O1  non d ame      -8.825  17.891  65.820  0.00  0.00    -0.218 OA
ATOM     24  N1  non d ame      -7.998  16.900  66.062  0.00  0.00    -0.123 NA
BRANCH  21  25
ATOM     25  C3  non d ame     -10.401  19.454  67.018  0.00  0.00    -0.029 C 
ATOM     26  H2  non d ame      -9.903  20.406  66.832  0.00  0.00     0.036 H 
ATOM     27  H3  non d ame     -11.191  19.307  66.281  0.00  0.00     0.036 H 
ATOM     28  H4  non d ame     -10.835  19.461  68.019  0.00  0.00     0.036 H 
ENDBRANCH  21  25
ENDBRANCH  16  19
ENDBRANCH  13  15
BRANCH  13  29
ATOM     29  C8  non d ame      -7.469  11.980  68.900  0.00  0.00    -0.049 C 
ATOM     30  H7  non d ame      -8.500  12.329  68.962  0.00  0.00     0.030 H 
ATOM     31  H8  non d ame      -7.406  11.155  68.190  0.00  0.00     0.030 H 
ATOM     32  H9  non d ame      -7.141  11.641  69.882  0.00  0.00     0.030 H 
ENDBRANCH  13  29
ENDBRANCH  10  13
ENDBRANCH   7   9
BRANCH   7  33
ATOM     33  C11 non d ame      -4.240   9.166  66.458  0.00  0.00    -0.033 C 
ATOM     34  H12 non d ame      -5.159   8.600  66.308  0.00  0.00     0.042 H 
BRANCH  33  35
ATOM     35  C12 non d ame      -3.160   8.571  65.501  0.00  0.00    -0.071 C 
ATOM     36  H13 non d ame      -3.596   8.416  64.514  0.00  0.00     0.028 H 
ATOM     37  H14 non d ame      -2.323   9.264  65.423  0.00  0.00     0.028 H 
ATOM     38  H15 non d ame      -2.809   7.619  65.897  0.00  0.00     0.028 H 
ENDBRANCH  33  35
BRANCH  33  39
ATOM     39  C13 non d ame      -3.817   9.012  67.955  0.00  0.00    -0.071 C 
ATOM     40  H16 non d ame      -4.459   8.277  68.440  0.00  0.00     0.028 H 
ATOM     41  H17 non d ame      -2.780   8.678  68.007  0.00  0.00     0.028 H 
ATOM     42  H18 non d ame      -3.916   9.972  68.461  0.00  0.00     0.028 H 
ENDBRANCH  33  39
ENDBRANCH   7  33
ENDBRANCH   4   7
ENDBRANCH   1   3
BRANCH   1  43
ATOM     43  C15 non d ame      -8.421  10.650  63.098  0.00  0.00     0.240 C 
ATOM     44  O5  non d ame      -9.124  10.536  62.147  0.00  0.00    -0.271 OA
ATOM     45  N6  non d ame      -8.971  11.215  64.363  0.00  0.00    -0.355 N 
ATOM     46  H46 non d ame      -8.384  11.312  65.180  0.00  0.00     0.162 HD
BRANCH  45  47
ATOM     47  C20 non d ame     -10.387  11.636  64.423  0.00  0.00     0.013 C 
ATOM     48  H30 non d ame     -10.839  11.430  63.453  0.00  0.00     0.072 H 
BRANCH  47  49
ATOM     49  C21 non d ame     -10.456  13.117  64.722  0.00  0.00    -0.038 C 
ATOM     50  H31 non d ame      -9.534  13.541  64.324  0.00  0.00     0.036 H 
ATOM     51  H32 non d ame     -11.420  13.450  64.337  0.00  0.00     0.036 H 
BRANCH  49  52
ATOM     52  C22 non d ame     -10.460  13.423  66.235  0.00  0.00     0.018 C 
ATOM     53  H33 non d ame     -11.112  12.675  66.686  0.00  0.00     0.048 H 
ATOM     54  H34 non d ame      -9.411  13.479  66.528  0.00  0.00     0.048 H 
BRANCH  52  55
ATOM     55  C23 non d ame     -11.079  14.803  66.593  0.00  0.00     0.259 C 
ATOM     56  O7  non d ame     -11.284  15.610  65.745  0.00  0.00    -0.265 OA
BRANCH  55  57
ATOM     57  O8  non d ame     -11.388  15.097  67.950  0.00  0.00    -0.317 OA
BRANCH  57  58
ATOM     58  C29 non d ame     -11.593  13.939  68.765  0.00  0.00     0.052 C 
ATOM     59  H47 non d ame     -12.445  13.419  68.328  0.00  0.00     0.082 H 
ATOM     60  H48 non d ame     -10.624  13.444  68.823  0.00  0.00     0.082 H 
BRANCH  58  61
ATOM     61  C35 non d ame     -11.986  14.418  70.188  0.00  0.00    -0.034 A 
ATOM     62  C30 non d ame     -12.737  13.593  71.018  0.00  0.00    -0.075 A 
ATOM     63  C31 non d ame     -13.091  14.023  72.296  0.00  0.00    -0.082 A 
ATOM     64  H49 non d ame     -13.049  12.609  70.668  0.00  0.00     0.084 H 
ATOM     65  C32 non d ame     -12.692  15.286  72.742  0.00  0.00    -0.083 A 
ATOM     66  H50 non d ame     -13.677  13.373  72.945  0.00  0.00     0.083 H 
ATOM     67  C33 non d ame     -11.945  16.108  71.909  0.00  0.00    -0.082 A 
ATOM     68  H51 non d ame     -12.963  15.630  73.740  0.00  0.00     0.083 H 
ATOM     69  C34 non d ame     -11.587  15.681  70.632  0.00  0.00    -0.075 A 
ATOM     70  H52 non d ame     -11.637  17.093  72.259  0.00  0.00     0.083 H 
ATOM     71  H53 non d ame     -11.000  16.331  69.983  0.00  0.00     0.084 H 
ENDBRANCH  58  61
ENDBRANCH  57  58
ENDBRANCH  55  57
ENDBRANCH  52  55
ENDBRANCH  49  52
ENDBRANCH  47  49
BRANCH  47  72
ATOM     72  C24 non d ame     -11.111  10.860  65.521  0.00  0.00    -0.039 C 
ATOM     73  H35 non d ame     -11.620  11.614  66.122  0.00  0.00     0.036 H 
ATOM     74  H36 non d ame     -11.690  10.096  65.003  0.00  0.00     0.036 H 
BRANCH  72  75
ATOM     75  C25 non d ame     -10.083  10.100  66.486  0.00  0.00    -0.001 C 
ATOM     76  C26 non d ame      -9.761   8.601  65.892  0.00  0.00    -0.035 C 
ATOM     77  C27 non d ame      -9.952   7.691  66.877  0.00  0.00     0.085 C 
ATOM     78  H38 non d ame     -10.504   8.328  65.144  0.00  0.00     0.036 H 
ATOM     79  H39 non d ame      -8.698   8.510  65.664  0.00  0.00     0.036 H 
ATOM     80  N5  non d ame     -10.689   8.394  67.991  0.00  0.00    -0.049 N 
ATOM     81  H40 non d ame     -10.602   6.928  66.447  0.00  0.00     0.075 H 
ATOM     82  H41 non d ame      -8.955   7.424  67.224  0.00  0.00     0.075 H 
ATOM     83  C28 non d ame     -10.566   9.973  67.677  0.00  0.00     0.193 C 
ATOM     84  H42 non d ame     -11.659   8.124  67.908  0.00  0.00     0.280 HD
ATOM     85  H43 non d ame     -10.180   8.195  68.841  0.00  0.00     0.280 HD
ATOM     86  H44 non d ame      -9.873  10.598  68.240  0.00  0.00     0.129 H 
ATOM     87  H37 non d ame      -9.229  10.723  66.752  0.00  0.00     0.046 H 
BRANCH  83  88
ATOM     88  O6  non d ame     -11.842  10.603  67.811  0.00  0.00    -0.369 OA
ATOM     89  H45 non d ame     -11.939  10.942  68.703  0.00  0.00     0.212 HD
ENDBRANCH  83  88
ENDBRANCH  72  75
ENDBRANCH  47  72
ENDBRANCH  45  47
ENDBRANCH   1  43
BRANCH   1  90
ATOM     90  C16 non d ame      -6.848   8.830  62.366  0.00  0.00    -0.035 C 
ATOM     91  H21 non d ame      -7.795   8.700  61.842  0.00  0.00     0.037 H 
ATOM     92  H22 non d ame      -5.912   8.836  61.806  0.00  0.00     0.037 H 
BRANCH  90  93
ATOM     93  C17 non d ame      -6.743   7.654  63.388  0.00  0.00    -0.059 C 
ATOM     94  H23 non d ame      -6.706   8.087  64.387  0.00  0.00     0.038 H 
BRANCH  93  95
ATOM     95  C18 non d ame      -7.983   6.706  63.324  0.00  0.00    -0.073 C 
ATOM     96  H24 non d ame      -7.863   6.005  62.499  0.00  0.00     0.028 H 
ATOM     97  H25 non d ame      -8.067   6.154  64.261  0.00  0.00     0.028 H 
ATOM     98  H26 non d ame      -8.885   7.298  63.170  0.00  0.00     0.028 H 
ENDBRANCH  93  95
BRANCH  93  99
ATOM     99  C19 non d ame      -5.445   6.867  63.185  0.00  0.00    -0.073 C 
ATOM    100  H27 non d ame      -5.667   5.924  62.685  0.00  0.00     0.028 H 
ATOM    101  H28 non d ame      -4.759   7.452  62.572  0.00  0.00     0.028 H 
ATOM    102  H29 non d ame      -4.987   6.667  64.153  0.00  0.00     0.028 H 
ENDBRANCH  93  99
ENDBRANCH  90  93
ENDBRANCH   1  90
TORSDOF 26
ENDMDL
MODEL 9
REMARK VINA RESULT:      -6.4      2.514      6.705
REMARK  26 active torsions:
REMARK  status: ('A' for Active; 'I' for Inactive)
REMARK    1  A    between atoms: C2_2  and  C3_3 
REMARK    2  A    between atoms: C4_6  and  C5_7 
REMARK       I    between atoms: C5_7  and  N2_9 
REMARK    3  A    between atoms: N2_9  and  C6_10 
REMARK    4  A    between atoms: C6_10  and  C7_11 
REMARK    5  A    between atoms: C6_10  and  C8_13 
REMARK       I    between atoms: C7_11  and  N3_14 
REMARK    6  A    between atoms: N3_14  and  C9_15 
REMARK    7  A    between atoms: C9_15  and  C10_16 
REMARK    8  A    between atoms: C9_15  and  C11_18 
REMARK       I    between atoms: C10_16  and  N4_21 
REMARK    9  A    between atoms: C11_18  and  C12_19 
REMARK   10  A    between atoms: C11_18  and  C13_20 
REMARK   11  A    between atoms: N4_21  and  C14_22 
REMARK   12  A    between atoms: C14_22  and  C15_23 
REMARK   13  A    between atoms: C14_22  and  C16_25 
REMARK       I    between atoms: C15_23  and  N6_40 
REMARK   14  A    between atoms: C16_25  and  C17_26 
REMARK   15  A    between atoms: C17_26  and  C18_27 
REMARK   16  A    between atoms: C17_26  and  C19_28 
REMARK   17  A    between atoms: C20_29  and  C21_30 
REMARK   18  A    between atoms: C20_29  and  C24_33 
REMARK   19  A    between atoms: C20_29  and  N6_40 
REMARK   20  A    between atoms: C21_30  and  C22_31 
REMARK   21  A    between atoms: C22_31  and  C23_32 
REMARK   22  A    between atoms: C23_32  and  O8_43 
REMARK   23  A    between atoms: C24_33  and  C25_34 
REMARK   24  A    between atoms: C28_38  and  O6_39 
REMARK   25  A    between atoms: C29_42  and  O8_43 
REMARK   26  A    between atoms: C29_42  and  C35_49 
ROOT
ATOM      1  C14 non d ame      -7.359   9.801  65.013  0.00  0.00     0.089 C 
ATOM      2  H20 non d ame      -7.834   8.907  64.606  0.00  0.00     0.087 H 
ENDROOT
BRANCH   1   3
ATOM      3  N4  non d ame      -8.379  10.835  65.106  0.00  0.00    -0.346 N 
ATOM      4  C10 non d ame      -9.797  10.476  65.473  0.00  0.00     0.241 C 
ATOM      5  O4  non d ame     -10.094   9.347  65.688  0.00  0.00    -0.271 OA
ATOM      6  H19 non d ame      -8.106  11.789  64.917  0.00  0.00     0.163 HD
BRANCH   4   7
ATOM      7  C9  non d ame     -10.838  11.560  65.570  0.00  0.00     0.092 C 
ATOM      8  H11 non d ame     -11.822  11.103  65.681  0.00  0.00     0.088 H 
BRANCH   7   9
ATOM      9  N3  non d ame     -10.596  12.365  66.771  0.00  0.00    -0.346 N 
ATOM     10  C7  non d ame     -11.460  12.226  67.918  0.00  0.00     0.240 C 
ATOM     11  O3  non d ame     -12.355  11.473  67.890  0.00  0.00    -0.271 OA
ATOM     12  H10 non d ame      -9.828  13.020  66.809  0.00  0.00     0.163 HD
BRANCH  10  13
ATOM     13  C6  non d ame     -11.199  13.088  69.192  0.00  0.00     0.086 C 
ATOM     14  H6  non d ame     -10.190  12.965  69.585  0.00  0.00     0.086 H 
BRANCH  13  15
ATOM     15  N2  non d ame     -11.342  14.493  68.848  0.00  0.00    -0.343 N 
ATOM     16  C5  non d ame     -10.173  15.246  68.387  0.00  0.00     0.273 C 
ATOM     17  O2  non d ame      -9.122  14.712  68.299  0.00  0.00    -0.266 OA
ATOM     18  H5  non d ame     -12.244  14.942  68.929  0.00  0.00     0.163 HD
BRANCH  16  19
ATOM     19  C4  non d ame     -10.310  16.731  68.019  0.00  0.00     0.154 A 
ATOM     20  C1  non d ame     -10.278  17.303  66.708  0.00  0.00    -0.017 A 
ATOM     21  C2  non d ame     -10.447  18.691  66.912  0.00  0.00     0.077 A 
ATOM     22  H1  non d ame     -10.152  16.791  65.754  0.00  0.00     0.091 H 
ATOM     23  O1  non d ame     -10.562  18.882  68.194  0.00  0.00    -0.218 OA
ATOM     24  N1  non d ame     -10.486  17.754  68.861  0.00  0.00    -0.123 NA
BRANCH  21  25
ATOM     25  C3  non d ame     -10.486  19.764  65.832  0.00  0.00    -0.029 C 
ATOM     26  H2  non d ame      -9.481  20.154  65.670  0.00  0.00     0.036 H 
ATOM     27  H3  non d ame     -10.862  19.331  64.905  0.00  0.00     0.036 H 
ATOM     28  H4  non d ame     -11.144  20.574  66.148  0.00  0.00     0.036 H 
ENDBRANCH  21  25
ENDBRANCH  16  19
ENDBRANCH  13  15
BRANCH  13  29
ATOM     29  C8  non d ame     -12.190  12.716  70.265  0.00  0.00    -0.049 C 
ATOM     30  H7  non d ame     -12.689  11.786  69.992  0.00  0.00     0.030 H 
ATOM     31  H8  non d ame     -11.667  12.583  71.212  0.00  0.00     0.030 H 
ATOM     32  H9  non d ame     -12.930  13.509  70.367  0.00  0.00     0.030 H 
ENDBRANCH  13  29
ENDBRANCH  10  13
ENDBRANCH   7   9
BRANCH   7  33
ATOM     33  C11 non d ame     -10.755  12.473  64.312  0.00  0.00    -0.033 C 
ATOM     34  H12 non d ame      -9.892  12.151  63.729  0.00  0.00     0.042 H 
BRANCH  33  35
ATOM     35  C12 non d ame     -12.017  12.313  63.409  0.00  0.00    -0.071 C 
ATOM     36  H13 non d ame     -11.709  12.040  62.399  0.00  0.00     0.028 H 
ATOM     37  H14 non d ame     -12.658  11.531  63.816  0.00  0.00     0.028 H 
ATOM     38  H15 non d ame     -12.565  13.254  63.380  0.00  0.00     0.028 H 
ENDBRANCH  33  35
BRANCH  33  39
ATOM     39  C13 non d ame     -10.534  13.966  64.717  0.00  0.00    -0.071 C 
ATOM     40  H16 non d ame     -10.142  14.520  63.864  0.00  0.00     0.028 H 
ATOM     41  H17 non d ame     -11.484  14.402  65.029  0.00  0.00     0.028 H 
ATOM     42  H18 non d ame      -9.823  14.016  65.542  0.00  0.00     0.028 H 
ENDBRANCH  33  39
ENDBRANCH   7  33
ENDBRANCH   4   7
ENDBRANCH   1   3
BRANCH   1  43
ATOM     43  C15 non d ame      -6.770   9.558  66.432  0.00  0.00     0.240 C 
ATOM     44  O5  non d ame      -5.596   9.621  66.603  0.00  0.00    -0.271 OA
ATOM     45  N6  non d ame      -7.671   9.255  67.580  0.00  0.00    -0.355 N 
ATOM     46  H46 non d ame      -8.671   9.203  67.448  0.00  0.00     0.162 HD
BRANCH  45  47
ATOM     47  C20 non d ame      -7.096   9.028  68.924  0.00  0.00     0.013 C 
ATOM     48  H30 non d ame      -6.029   8.838  68.804  0.00  0.00     0.072 H 
BRANCH  47  49
ATOM     49  C21 non d ame      -7.765   7.829  69.558  0.00  0.00    -0.038 C 
ATOM     50  H31 non d ame      -8.774   7.802  69.145  0.00  0.00     0.036 H 
ATOM     51  H32 non d ame      -7.086   6.992  69.395  0.00  0.00     0.036 H 
BRANCH  49  52
ATOM     52  C22 non d ame      -7.924   7.971  71.087  0.00  0.00     0.018 C 
ATOM     53  H33 non d ame      -7.435   7.097  71.517  0.00  0.00     0.048 H 
ATOM     54  H34 non d ame      -7.564   8.972  71.330  0.00  0.00     0.048 H 
BRANCH  52  55
ATOM     55  C23 non d ame      -9.400   7.919  71.571  0.00  0.00     0.259 C 
ATOM     56  O7  non d ame     -10.071   8.899  71.567  0.00  0.00    -0.265 OA
BRANCH  55  57
ATOM     57  O8  non d ame      -9.938   6.685  72.033  0.00  0.00    -0.317 OA
BRANCH  57  58
ATOM     58  C29 non d ame     -11.121   6.272  71.344  0.00  0.00     0.052 C 
ATOM     59  H47 non d ame     -11.490   5.402  71.888  0.00  0.00     0.082 H 
ATOM     60  H48 non d ame     -11.740   7.164  71.258  0.00  0.00     0.082 H 
BRANCH  58  61
ATOM     61  C35 non d ame     -10.710   5.820  69.917  0.00  0.00    -0.034 A 
ATOM     62  C30 non d ame     -11.226   6.474  68.803  0.00  0.00    -0.075 A 
ATOM     63  C31 non d ame     -10.857   6.068  67.522  0.00  0.00    -0.082 A 
ATOM     64  H49 non d ame     -11.919   7.305  68.934  0.00  0.00     0.084 H 
ATOM     65  C32 non d ame      -9.970   5.001  67.356  0.00  0.00    -0.083 A 
ATOM     66  H50 non d ame     -11.262   6.584  66.651  0.00  0.00     0.083 H 
ATOM     67  C33 non d ame      -9.460   4.349  68.470  0.00  0.00    -0.082 A 
ATOM     68  H51 non d ame      -9.676   4.678  66.357  0.00  0.00     0.083 H 
ATOM     69  C34 non d ame      -9.824   4.753  69.753  0.00  0.00    -0.075 A 
ATOM     70  H52 non d ame      -8.770   3.515  68.337  0.00  0.00     0.083 H 
ATOM     71  H53 non d ame      -9.419   4.236  70.623  0.00  0.00     0.084 H 
ENDBRANCH  58  61
ENDBRANCH  57  58
ENDBRANCH  55  57
ENDBRANCH  52  55
ENDBRANCH  49  52
ENDBRANCH  47  49
BRANCH  47  72
ATOM     72  C24 non d ame      -7.321  10.260  69.797  0.00  0.00    -0.039 C 
ATOM     73  H35 non d ame      -8.259  10.694  69.450  0.00  0.00     0.036 H 
ATOM     74  H36 non d ame      -7.232   9.907  70.825  0.00  0.00     0.036 H 
BRANCH  72  75
ATOM     75  C25 non d ame      -6.180  11.361  69.574  0.00  0.00    -0.001 C 
ATOM     76  C26 non d ame      -5.580  11.848  71.026  0.00  0.00    -0.035 C 
ATOM     77  C27 non d ame      -5.610  13.201  71.079  0.00  0.00     0.085 C 
ATOM     78  H38 non d ame      -6.253  11.547  71.828  0.00  0.00     0.036 H 
ATOM     79  H39 non d ame      -4.517  11.614  71.089  0.00  0.00     0.036 H 
ATOM     80  N5  non d ame      -6.475  13.669  69.933  0.00  0.00    -0.049 N 
ATOM     81  H40 non d ame      -6.104  13.446  72.020  0.00  0.00     0.075 H 
ATOM     82  H41 non d ame      -4.583  13.522  70.903  0.00  0.00     0.075 H 
ATOM     83  C28 non d ame      -6.643  12.396  68.955  0.00  0.00     0.193 C 
ATOM     84  H42 non d ame      -7.377  13.893  70.329  0.00  0.00     0.280 HD
ATOM     85  H43 non d ame      -5.946  14.380  69.447  0.00  0.00     0.280 HD
ATOM     86  H44 non d ame      -6.082  12.336  68.022  0.00  0.00     0.129 H 
ATOM     87  H37 non d ame      -5.458  11.060  68.815  0.00  0.00     0.046 H 
BRANCH  83  88
ATOM     88  O6  non d ame      -8.014  12.235  68.587  0.00  0.00    -0.369 OA
ATOM     89  H45 non d ame      -8.067  11.892  67.693  0.00  0.00     0.212 HD
ENDBRANCH  83  88
ENDBRANCH  72  75
ENDBRANCH  47  72
ENDBRANCH  45  47
ENDBRANCH   1  43
BRANCH   1  90
ATOM     90  C16 non d ame      -6.259  10.272  64.076  0.00  0.00    -0.035 C 
ATOM     91  H21 non d ame      -6.590  11.243  63.707  0.00  0.00     0.037 H 
ATOM     92  H22 non d ame      -5.336  10.194  64.653  0.00  0.00     0.037 H 
BRANCH  90  93
ATOM     93  C17 non d ame      -6.072   9.362  62.821  0.00  0.00    -0.059 C 
ATOM     94  H23 non d ame      -5.213   9.737  62.265  0.00  0.00     0.038 H 
BRANCH  93  95
ATOM     95  C18 non d ame      -5.777   7.877  63.208  0.00  0.00    -0.073 C 
ATOM     96  H24 non d ame      -4.892   7.532  62.674  0.00  0.00     0.028 H 
ATOM     97  H25 non d ame      -5.604   7.809  64.282  0.00  0.00     0.028 H 
ATOM     98  H26 non d ame      -6.630   7.255  62.937  0.00  0.00     0.028 H 
ENDBRANCH  93  95
BRANCH  93  99
ATOM     99  C19 non d ame      -7.288   9.452  61.895  0.00  0.00    -0.073 C 
ATOM    100  H27 non d ame      -8.137   9.855  62.448  0.00  0.00     0.028 H 
ATOM    101  H28 non d ame      -7.057  10.108  61.055  0.00  0.00     0.028 H 
ATOM    102  H29 non d ame      -7.535   8.458  61.522  0.00  0.00     0.028 H 
ENDBRANCH  93  99
ENDBRANCH  90  93
ENDBRANCH   1  90
TORSDOF 26
ENDMDL
MODEL 10
REMARK VINA RESULT:      -6.3      2.975      8.975
REMARK  26 active torsions:
REMARK  status: ('A' for Active; 'I' for Inactive)
REMARK    1  A    between atoms: C2_2  and  C3_3 
REMARK    2  A    between atoms: C4_6  and  C5_7 
REMARK       I    between atoms: C5_7  and  N2_9 
REMARK    3  A    between atoms: N2_9  and  C6_10 
REMARK    4  A    between atoms: C6_10  and  C7_11 
REMARK    5  A    between atoms: C6_10  and  C8_13 
REMARK       I    between atoms: C7_11  and  N3_14 
REMARK    6  A    between atoms: N3_14  and  C9_15 
REMARK    7  A    between atoms: C9_15  and  C10_16 
REMARK    8  A    between atoms: C9_15  and  C11_18 
REMARK       I    between atoms: C10_16  and  N4_21 
REMARK    9  A    between atoms: C11_18  and  C12_19 
REMARK   10  A    between atoms: C11_18  and  C13_20 
REMARK   11  A    between atoms: N4_21  and  C14_22 
REMARK   12  A    between atoms: C14_22  and  C15_23 
REMARK   13  A    between atoms: C14_22  and  C16_25 
REMARK       I    between atoms: C15_23  and  N6_40 
REMARK   14  A    between atoms: C16_25  and  C17_26 
REMARK   15  A    between atoms: C17_26  and  C18_27 
REMARK   16  A    between atoms: C17_26  and  C19_28 
REMARK   17  A    between atoms: C20_29  and  C21_30 
REMARK   18  A    between atoms: C20_29  and  C24_33 
REMARK   19  A    between atoms: C20_29  and  N6_40 
REMARK   20  A    between atoms: C21_30  and  C22_31 
REMARK   21  A    between atoms: C22_31  and  C23_32 
REMARK   22  A    between atoms: C23_32  and  O8_43 
REMARK   23  A    between atoms: C24_33  and  C25_34 
REMARK   24  A    between atoms: C28_38  and  O6_39 
REMARK   25  A    between atoms: C29_42  and  O8_43 
REMARK   26  A    between atoms: C29_42  and  C35_49 
ROOT
ATOM      1  C14 non d ame      -7.637  13.038  68.689  0.00  0.00     0.089 C 
ATOM      2  H20 non d ame      -7.494  12.308  69.486  0.00  0.00     0.087 H 
ENDROOT
BRANCH   1   3
ATOM      3  N4  non d ame      -7.089  12.466  67.468  0.00  0.00    -0.346 N 
ATOM      4  C10 non d ame      -6.771  10.994  67.392  0.00  0.00     0.241 C 
ATOM      5  O4  non d ame      -6.962  10.290  68.329  0.00  0.00    -0.271 OA
ATOM      6  H19 non d ame      -6.932  13.082  66.683  0.00  0.00     0.163 HD
BRANCH   4   7
ATOM      7  C9  non d ame      -6.211  10.417  66.119  0.00  0.00     0.092 C 
ATOM      8  H11 non d ame      -6.177   9.331  66.201  0.00  0.00     0.088 H 
BRANCH   7   9
ATOM      9  N3  non d ame      -7.103  10.740  65.001  0.00  0.00    -0.346 N 
ATOM     10  C7  non d ame      -7.640   9.683  64.180  0.00  0.00     0.240 C 
ATOM     11  O3  non d ame      -7.363   8.568  64.403  0.00  0.00    -0.271 OA
ATOM     12  H10 non d ame      -7.350  11.697  64.796  0.00  0.00     0.163 HD
BRANCH  10  13
ATOM     13  C6  non d ame      -8.587  10.032  62.990  0.00  0.00     0.086 C 
ATOM     14  H6  non d ame      -9.452   9.372  62.931  0.00  0.00     0.086 H 
BRANCH  13  15
ATOM     15  N2  non d ame      -9.104  11.378  63.179  0.00  0.00    -0.343 N 
ATOM     16  C5  non d ame     -10.309  11.581  63.987  0.00  0.00     0.273 C 
ATOM     17  O2  non d ame     -10.856  10.655  64.478  0.00  0.00    -0.266 OA
ATOM     18  H5  non d ame      -8.632  12.163  62.753  0.00  0.00     0.163 HD
BRANCH  16  19
ATOM     19  C4  non d ame     -10.865  12.998  64.196  0.00  0.00     0.154 A 
ATOM     20  C1  non d ame     -10.168  14.132  64.721  0.00  0.00    -0.017 A 
ATOM     21  C2  non d ame     -11.116  15.179  64.707  0.00  0.00     0.077 A 
ATOM     22  H1  non d ame      -9.134  14.187  65.060  0.00  0.00     0.091 H 
ATOM     23  O1  non d ame     -12.224  14.693  64.228  0.00  0.00    -0.218 OA
ATOM     24  N1  non d ame     -12.102  13.422  63.922  0.00  0.00    -0.123 NA
BRANCH  21  25
ATOM     25  C3  non d ame     -10.883  16.612  65.168  0.00  0.00    -0.029 C 
ATOM     26  H2  non d ame      -9.854  16.901  64.952  0.00  0.00     0.036 H 
ATOM     27  H3  non d ame     -11.566  17.279  64.641  0.00  0.00     0.036 H 
ATOM     28  H4  non d ame     -11.063  16.683  66.241  0.00  0.00     0.036 H 
ENDBRANCH  21  25
ENDBRANCH  16  19
ENDBRANCH  13  15
BRANCH  13  29
ATOM     29  C8  non d ame      -7.821   9.950  61.694  0.00  0.00    -0.049 C 
ATOM     30  H7  non d ame      -8.460  10.277  60.873  0.00  0.00     0.030 H 
ATOM     31  H8  non d ame      -6.943  10.593  61.750  0.00  0.00     0.030 H 
ATOM     32  H9  non d ame      -7.509   8.921  61.522  0.00  0.00     0.030 H 
ENDBRANCH  13  29
ENDBRANCH  10  13
ENDBRANCH   7   9
BRANCH   7  33
ATOM     33  C11 non d ame      -4.804  11.028  65.849  0.00  0.00    -0.033 C 
ATOM     34  H12 non d ame      -4.920  12.110  65.798  0.00  0.00     0.042 H 
BRANCH  33  35
ATOM     35  C12 non d ame      -3.816  10.716  67.015  0.00  0.00    -0.071 C 
ATOM     36  H13 non d ame      -4.349  10.760  67.965  0.00  0.00     0.028 H 
ATOM     37  H14 non d ame      -3.397   9.719  66.880  0.00  0.00     0.028 H 
ATOM     38  H15 non d ame      -3.011  11.451  67.015  0.00  0.00     0.028 H 
ENDBRANCH  33  35
BRANCH  33  39
ATOM     39  C13 non d ame      -4.236  10.538  64.478  0.00  0.00    -0.071 C 
ATOM     40  H16 non d ame      -4.751   9.627  64.176  0.00  0.00     0.028 H 
ATOM     41  H17 non d ame      -4.390  11.310  63.724  0.00  0.00     0.028 H 
ATOM     42  H18 non d ame      -3.169  10.337  64.579  0.00  0.00     0.028 H 
ENDBRANCH  33  39
ENDBRANCH   7  33
ENDBRANCH   4   7
ENDBRANCH   1   3
BRANCH   1  43
ATOM     43  C15 non d ame      -9.140  13.363  68.453  0.00  0.00     0.240 C 
ATOM     44  O5  non d ame      -9.749  12.770  67.622  0.00  0.00    -0.271 OA
ATOM     45  N6  non d ame      -9.822  14.407  69.269  0.00  0.00    -0.355 N 
ATOM     46  H46 non d ame      -9.316  14.914  69.981  0.00  0.00     0.162 HD
BRANCH  45  47
ATOM     47  C20 non d ame     -11.251  14.704  69.034  0.00  0.00     0.013 C 
ATOM     48  H30 non d ame     -11.569  14.145  68.153  0.00  0.00     0.072 H 
BRANCH  47  49
ATOM     49  C21 non d ame     -11.422  16.187  68.794  0.00  0.00    -0.038 C 
ATOM     50  H31 non d ame     -11.599  16.294  67.724  0.00  0.00     0.036 H 
ATOM     51  H32 non d ame     -12.178  16.515  69.507  0.00  0.00     0.036 H 
BRANCH  49  52
ATOM     52  C22 non d ame     -10.144  16.995  69.109  0.00  0.00     0.018 C 
ATOM     53  H33 non d ame     -10.168  17.179  70.183  0.00  0.00     0.048 H 
ATOM     54  H34 non d ame      -9.321  16.429  68.670  0.00  0.00     0.048 H 
BRANCH  52  55
ATOM     55  C23 non d ame     -10.107  18.395  68.435  0.00  0.00     0.259 C 
ATOM     56  O7  non d ame     -10.980  18.736  67.704  0.00  0.00    -0.265 OA
BRANCH  55  57
ATOM     57  O8  non d ame      -9.011  19.263  68.693  0.00  0.00    -0.317 OA
BRANCH  57  58
ATOM     58  C29 non d ame      -8.706  20.152  67.614  0.00  0.00     0.052 C 
ATOM     59  H47 non d ame      -9.471  19.973  66.859  0.00  0.00     0.082 H 
ATOM     60  H48 non d ame      -8.605  21.139  68.064  0.00  0.00     0.082 H 
BRANCH  58  61
ATOM     61  C35 non d ame      -7.330  19.738  67.027  0.00  0.00    -0.034 A 
ATOM     62  C30 non d ame      -6.215  19.656  67.855  0.00  0.00    -0.075 A 
ATOM     63  C31 non d ame      -4.979  19.284  67.328  0.00  0.00    -0.082 A 
ATOM     64  H49 non d ame      -6.310  19.882  68.917  0.00  0.00     0.084 H 
ATOM     65  C32 non d ame      -4.860  18.997  65.966  0.00  0.00    -0.083 A 
ATOM     66  H50 non d ame      -4.108  19.218  67.980  0.00  0.00     0.083 H 
ATOM     67  C33 non d ame      -5.974  19.083  65.142  0.00  0.00    -0.082 A 
ATOM     68  H51 non d ame      -3.898  18.705  65.545  0.00  0.00     0.083 H 
ATOM     69  C34 non d ame      -7.212  19.452  65.665  0.00  0.00    -0.075 A 
ATOM     70  H52 non d ame      -5.877  18.861  64.079  0.00  0.00     0.083 H 
ATOM     71  H53 non d ame      -8.083  19.517  65.013  0.00  0.00     0.084 H 
ENDBRANCH  58  61
ENDBRANCH  57  58
ENDBRANCH  55  57
ENDBRANCH  52  55
ENDBRANCH  49  52
ENDBRANCH  47  49
BRANCH  47  72
ATOM     72  C24 non d ame     -12.073  14.286  70.252  0.00  0.00    -0.039 C 
ATOM     73  H35 non d ame     -12.998  13.873  69.850  0.00  0.00     0.036 H 
ATOM     74  H36 non d ame     -11.410  13.659  70.848  0.00  0.00     0.036 H 
BRANCH  72  75
ATOM     75  C25 non d ame     -12.472  15.546  71.157  0.00  0.00    -0.001 C 
ATOM     76  C26 non d ame     -11.604  15.529  72.555  0.00  0.00    -0.035 C 
ATOM     77  C27 non d ame     -12.457  15.655  73.599  0.00  0.00     0.085 C 
ATOM     78  H38 non d ame     -11.160  14.546  72.706  0.00  0.00     0.036 H 
ATOM     79  H39 non d ame     -10.985  16.424  72.621  0.00  0.00     0.036 H 
ATOM     80  N5  non d ame     -13.850  15.428  73.062  0.00  0.00    -0.049 N 
ATOM     81  H40 non d ame     -12.203  14.844  74.283  0.00  0.00     0.075 H 
ATOM     82  H41 non d ame     -12.367  16.691  73.925  0.00  0.00     0.075 H 
ATOM     83  C28 non d ame     -13.728  15.529  71.456  0.00  0.00     0.193 C 
ATOM     84  H42 non d ame     -14.100  14.481  73.307  0.00  0.00     0.280 HD
ATOM     85  H43 non d ame     -14.413  16.200  73.391  0.00  0.00     0.280 HD
ATOM     86  H44 non d ame     -14.069  16.420  70.929  0.00  0.00     0.129 H 
ATOM     87  H37 non d ame     -12.479  16.477  70.590  0.00  0.00     0.046 H 
BRANCH  83  88
ATOM     88  O6  non d ame     -14.413  14.436  70.840  0.00  0.00    -0.369 OA
ATOM     89  H45 non d ame     -14.745  13.844  71.519  0.00  0.00     0.212 HD
ENDBRANCH  83  88
ENDBRANCH  72  75
ENDBRANCH  47  72
ENDBRANCH  45  47
ENDBRANCH   1  43
BRANCH   1  90
ATOM     90  C16 non d ame      -6.883  14.316  69.019  0.00  0.00    -0.035 C 
ATOM     91  H21 non d ame      -7.638  15.007  69.396  0.00  0.00     0.037 H 
ATOM     92  H22 non d ame      -6.058  14.007  69.661  0.00  0.00     0.037 H 
BRANCH  90  93
ATOM     93  C17 non d ame      -6.239  15.003  67.773  0.00  0.00    -0.059 C 
ATOM     94  H23 non d ame      -6.059  14.231  67.025  0.00  0.00     0.038 H 
BRANCH  93  95
ATOM     95  C18 non d ame      -7.183  16.073  67.136  0.00  0.00    -0.073 C 
ATOM     96  H24 non d ame      -6.617  16.684  66.433  0.00  0.00     0.028 H 
ATOM     97  H25 non d ame      -7.996  15.572  66.609  0.00  0.00     0.028 H 
ATOM     98  H26 non d ame      -7.595  16.708  67.920  0.00  0.00     0.028 H 
ENDBRANCH  93  95
BRANCH  93  99
ATOM     99  C19 non d ame      -4.882  15.617  68.128  0.00  0.00    -0.073 C 
ATOM    100  H27 non d ame      -4.678  16.457  67.463  0.00  0.00     0.028 H 
ATOM    101  H28 non d ame      -4.901  15.967  69.160  0.00  0.00     0.028 H 
ATOM    102  H29 non d ame      -4.102  14.865  68.014  0.00  0.00     0.028 H 
ENDBRANCH  93  99
ENDBRANCH  90  93
ENDBRANCH   1  90
TORSDOF 26
ENDMDL
MODEL 11
REMARK VINA RESULT:      -6.3      2.425      4.993
REMARK  26 active torsions:
REMARK  status: ('A' for Active; 'I' for Inactive)
REMARK    1  A    between atoms: C2_2  and  C3_3 
REMARK    2  A    between atoms: C4_6  and  C5_7 
REMARK       I    between atoms: C5_7  and  N2_9 
REMARK    3  A    between atoms: N2_9  and  C6_10 
REMARK    4  A    between atoms: C6_10  and  C7_11 
REMARK    5  A    between atoms: C6_10  and  C8_13 
REMARK       I    between atoms: C7_11  and  N3_14 
REMARK    6  A    between atoms: N3_14  and  C9_15 
REMARK    7  A    between atoms: C9_15  and  C10_16 
REMARK    8  A    between atoms: C9_15  and  C11_18 
REMARK       I    between atoms: C10_16  and  N4_21 
REMARK    9  A    between atoms: C11_18  and  C12_19 
REMARK   10  A    between atoms: C11_18  and  C13_20 
REMARK   11  A    between atoms: N4_21  and  C14_22 
REMARK   12  A    between atoms: C14_22  and  C15_23 
REMARK   13  A    between atoms: C14_22  and  C16_25 
REMARK       I    between atoms: C15_23  and  N6_40 
REMARK   14  A    between atoms: C16_25  and  C17_26 
REMARK   15  A    between atoms: C17_26  and  C18_27 
REMARK   16  A    between atoms: C17_26  and  C19_28 
REMARK   17  A    between atoms: C20_29  and  C21_30 
REMARK   18  A    between atoms: C20_29  and  C24_33 
REMARK   19  A    between atoms: C20_29  and  N6_40 
REMARK   20  A    between atoms: C21_30  and  C22_31 
REMARK   21  A    between atoms: C22_31  and  C23_32 
REMARK   22  A    between atoms: C23_32  and  O8_43 
REMARK   23  A    between atoms: C24_33  and  C25_34 
REMARK   24  A    between atoms: C28_38  and  O6_39 
REMARK   25  A    between atoms: C29_42  and  O8_43 
REMARK   26  A    between atoms: C29_42  and  C35_49 
ROOT
ATOM      1  C14 non d ame      -8.698  10.246  66.946  0.00  0.00     0.089 C 
ATOM      2  H20 non d ame      -9.735  10.500  66.729  0.00  0.00     0.087 H 
ENDROOT
BRANCH   1   3
ATOM      3  N4  non d ame      -7.955  11.492  67.061  0.00  0.00    -0.346 N 
ATOM      4  C10 non d ame      -8.632  12.737  67.577  0.00  0.00     0.241 C 
ATOM      5  O4  non d ame      -9.776  12.712  67.892  0.00  0.00    -0.271 OA
ATOM      6  H19 non d ame      -6.983  11.493  66.786  0.00  0.00     0.163 HD
BRANCH   4   7
ATOM      7  C9  non d ame      -7.847  14.017  67.695  0.00  0.00     0.092 C 
ATOM      8  H11 non d ame      -7.450  14.285  66.716  0.00  0.00     0.088 H 
BRANCH   7   9
ATOM      9  N3  non d ame      -8.740  15.102  68.113  0.00  0.00    -0.346 N 
ATOM     10  C7  non d ame      -9.172  16.089  67.154  0.00  0.00     0.240 C 
ATOM     11  O3  non d ame      -8.810  16.026  66.043  0.00  0.00    -0.271 OA
ATOM     12  H10 non d ame      -9.059  15.170  69.069  0.00  0.00     0.163 HD
BRANCH  10  13
ATOM     13  C6  non d ame     -10.120  17.243  67.605  0.00  0.00     0.086 C 
ATOM     14  H6  non d ame     -10.987  17.356  66.954  0.00  0.00     0.086 H 
BRANCH  13  15
ATOM     15  N2  non d ame     -10.633  16.940  68.931  0.00  0.00    -0.343 N 
ATOM     16  C5  non d ame     -11.608  15.860  69.098  0.00  0.00     0.273 C 
ATOM     17  O2  non d ame     -11.975  15.243  68.159  0.00  0.00    -0.266 OA
ATOM     18  H5  non d ame     -10.316  17.475  69.727  0.00  0.00     0.163 HD
BRANCH  16  19
ATOM     19  C4  non d ame     -12.158  15.528  70.494  0.00  0.00     0.154 A 
ATOM     20  C1  non d ame     -11.619  15.937  71.755  0.00  0.00    -0.017 A 
ATOM     21  C2  non d ame     -12.485  15.375  72.720  0.00  0.00     0.077 A 
ATOM     22  H1  non d ame     -10.735  16.547  71.942  0.00  0.00     0.091 H 
ATOM     23  O1  non d ame     -13.410  14.724  72.078  0.00  0.00    -0.218 OA
ATOM     24  N1  non d ame     -13.240  14.798  70.778  0.00  0.00    -0.123 NA
BRANCH  21  25
ATOM     25  C3  non d ame     -12.359  15.509  74.232  0.00  0.00    -0.029 C 
ATOM     26  H2  non d ame     -11.356  15.856  74.484  0.00  0.00     0.036 H 
ATOM     27  H3  non d ame     -13.094  16.227  74.595  0.00  0.00     0.036 H 
ATOM     28  H4  non d ame     -12.536  14.540  74.699  0.00  0.00     0.036 H 
ENDBRANCH  21  25
ENDBRANCH  16  19
ENDBRANCH  13  15
BRANCH  13  29
ATOM     29  C8  non d ame      -9.357  18.543  67.631  0.00  0.00    -0.049 C 
ATOM     30  H7  non d ame      -9.941  19.296  68.160  0.00  0.00     0.030 H 
ATOM     31  H8  non d ame      -8.406  18.395  68.141  0.00  0.00     0.030 H 
ATOM     32  H9  non d ame      -9.175  18.877  66.610  0.00  0.00     0.030 H 
ENDBRANCH  13  29
ENDBRANCH  10  13
ENDBRANCH   7   9
BRANCH   7  33
ATOM     33  C11 non d ame      -6.720  13.839  68.755  0.00  0.00    -0.033 C 
ATOM     34  H12 non d ame      -6.916  12.909  69.289  0.00  0.00     0.042 H 
BRANCH  33  35
ATOM     35  C12 non d ame      -5.320  13.706  68.079  0.00  0.00    -0.071 C 
ATOM     36  H13 non d ame      -5.294  14.315  67.175  0.00  0.00     0.028 H 
ATOM     37  H14 non d ame      -4.550  14.048  68.770  0.00  0.00     0.028 H 
ATOM     38  H15 non d ame      -5.140  12.663  67.820  0.00  0.00     0.028 H 
ENDBRANCH  33  35
BRANCH  33  39
ATOM     39  C13 non d ame      -6.740  15.006  69.793  0.00  0.00    -0.071 C 
ATOM     40  H16 non d ame      -5.969  14.838  70.544  0.00  0.00     0.028 H 
ATOM     41  H17 non d ame      -6.549  15.951  69.282  0.00  0.00     0.028 H 
ATOM     42  H18 non d ame      -7.716  15.046  70.277  0.00  0.00     0.028 H 
ENDBRANCH  33  39
ENDBRANCH   7  33
ENDBRANCH   4   7
ENDBRANCH   1   3
BRANCH   1  43
ATOM     43  C15 non d ame      -8.553   9.459  68.280  0.00  0.00     0.240 C 
ATOM     44  O5  non d ame      -7.500   9.413  68.829  0.00  0.00    -0.271 OA
ATOM     45  N6  non d ame      -9.732   8.769  68.879  0.00  0.00    -0.355 N 
ATOM     46  H46 non d ame     -10.633   8.805  68.426  0.00  0.00     0.162 HD
BRANCH  45  47
ATOM     47  C20 non d ame      -9.579   8.026  70.149  0.00  0.00     0.013 C 
ATOM     48  H30 non d ame      -8.514   7.961  70.373  0.00  0.00     0.072 H 
BRANCH  47  49
ATOM     49  C21 non d ame     -10.159   6.639  69.989  0.00  0.00    -0.038 C 
ATOM     50  H31 non d ame      -9.403   5.957  70.379  0.00  0.00     0.036 H 
ATOM     51  H32 non d ame     -11.147   6.679  70.448  0.00  0.00     0.036 H 
BRANCH  49  52
ATOM     52  C22 non d ame     -10.379   6.248  68.512  0.00  0.00     0.018 C 
ATOM     53  H33 non d ame     -11.458   6.150  68.389  0.00  0.00     0.048 H 
ATOM     54  H34 non d ame      -9.828   6.985  67.926  0.00  0.00     0.048 H 
BRANCH  52  55
ATOM     55  C23 non d ame      -9.778   4.866  68.133  0.00  0.00     0.259 C 
ATOM     56  O7  non d ame      -9.696   4.001  68.945  0.00  0.00    -0.265 OA
BRANCH  55  57
ATOM     57  O8  non d ame      -9.313   4.647  66.807  0.00  0.00    -0.317 OA
BRANCH  57  58
ATOM     58  C29 non d ame      -9.385   5.803  65.967  0.00  0.00     0.052 C 
ATOM     59  H47 non d ame     -10.275   5.667  65.353  0.00  0.00     0.082 H 
ATOM     60  H48 non d ame      -9.311   6.660  66.637  0.00  0.00     0.082 H 
BRANCH  58  61
ATOM     61  C35 non d ame      -8.142   5.798  65.038  0.00  0.00    -0.034 A 
ATOM     62  C30 non d ame      -8.302   5.676  63.661  0.00  0.00    -0.075 A 
ATOM     63  C31 non d ame      -7.185   5.672  62.827  0.00  0.00    -0.082 A 
ATOM     64  H49 non d ame      -9.301   5.585  63.237  0.00  0.00     0.084 H 
ATOM     65  C32 non d ame      -5.904   5.787  63.374  0.00  0.00    -0.083 A 
ATOM     66  H50 non d ame      -7.314   5.579  61.748  0.00  0.00     0.083 H 
ATOM     67  C33 non d ame      -5.750   5.905  64.748  0.00  0.00    -0.082 A 
ATOM     68  H51 non d ame      -5.026   5.785  62.728  0.00  0.00     0.083 H 
ATOM     69  C34 non d ame      -6.863   5.912  65.586  0.00  0.00    -0.075 A 
ATOM     70  H52 non d ame      -4.749   5.992  65.172  0.00  0.00     0.083 H 
ATOM     71  H53 non d ame      -6.733   6.006  66.665  0.00  0.00     0.084 H 
ENDBRANCH  58  61
ENDBRANCH  57  58
ENDBRANCH  55  57
ENDBRANCH  52  55
ENDBRANCH  49  52
ENDBRANCH  47  49
BRANCH  47  72
ATOM     72  C24 non d ame     -10.313   8.760  71.269  0.00  0.00    -0.039 C 
ATOM     73  H35 non d ame     -10.335   8.063  72.107  0.00  0.00     0.036 H 
ATOM     74  H36 non d ame      -9.803   9.718  71.371  0.00  0.00     0.036 H 
BRANCH  72  75
ATOM     75  C25 non d ame     -11.834   9.073  70.875  0.00  0.00    -0.001 C 
ATOM     76  C26 non d ame     -12.046  10.695  70.707  0.00  0.00    -0.035 C 
ATOM     77  C27 non d ame     -13.112  11.075  71.452  0.00  0.00     0.085 C 
ATOM     78  H38 non d ame     -11.213  11.230  71.162  0.00  0.00     0.036 H 
ATOM     79  H39 non d ame     -12.353  10.929  69.687  0.00  0.00     0.036 H 
ATOM     80  N5  non d ame     -13.444   9.922  72.367  0.00  0.00    -0.049 N 
ATOM     81  H40 non d ame     -12.763  11.916  72.052  0.00  0.00     0.075 H 
ATOM     82  H41 non d ame     -13.928  11.213  70.744  0.00  0.00     0.075 H 
ATOM     83  C28 non d ame     -12.649   8.645  71.780  0.00  0.00     0.193 C 
ATOM     84  H42 non d ame     -13.058  10.153  73.271  0.00  0.00     0.280 HD
ATOM     85  H43 non d ame     -14.436   9.755  72.270  0.00  0.00     0.280 HD
ATOM     86  H44 non d ame     -13.178   7.873  71.221  0.00  0.00     0.129 H 
ATOM     87  H37 non d ame     -12.188   8.440  70.061  0.00  0.00     0.046 H 
BRANCH  83  88
ATOM     88  O6  non d ame     -11.972   7.959  72.834  0.00  0.00    -0.369 OA
ATOM     89  H45 non d ame     -11.240   7.455  72.470  0.00  0.00     0.212 HD
ENDBRANCH  83  88
ENDBRANCH  72  75
ENDBRANCH  47  72
ENDBRANCH  45  47
ENDBRANCH   1  43
BRANCH   1  90
ATOM     90  C16 non d ame      -8.118   9.427  65.804  0.00  0.00    -0.035 C 
ATOM     91  H21 non d ame      -7.212   9.952  65.503  0.00  0.00     0.037 H 
ATOM     92  H22 non d ame      -8.056   8.406  66.183  0.00  0.00     0.037 H 
BRANCH  90  93
ATOM     93  C17 non d ame      -9.037   9.373  64.542  0.00  0.00    -0.059 C 
ATOM     94  H23 non d ame      -9.624   8.457  64.599  0.00  0.00     0.038 H 
BRANCH  93  95
ATOM     95  C18 non d ame     -10.034  10.575  64.488  0.00  0.00    -0.073 C 
ATOM     96  H24 non d ame      -9.885  11.210  65.361  0.00  0.00     0.028 H 
ATOM     97  H25 non d ame      -9.855  11.155  63.582  0.00  0.00     0.028 H 
ATOM     98  H26 non d ame     -11.057  10.198  64.482  0.00  0.00     0.028 H 
ENDBRANCH  93  95
BRANCH  93  99
ATOM     99  C19 non d ame      -8.202   9.299  63.261  0.00  0.00    -0.073 C 
ATOM    100  H27 non d ame      -8.692   8.639  62.546  0.00  0.00     0.028 H 
ATOM    101  H28 non d ame      -8.109  10.297  62.830  0.00  0.00     0.028 H 
ATOM    102  H29 non d ame      -7.211   8.912  63.495  0.00  0.00     0.028 H 
ENDBRANCH  93  99
ENDBRANCH  90  93
ENDBRANCH   1  90
TORSDOF 26
ENDMDL
MODEL 12
REMARK VINA RESULT:      -6.2      2.415      7.122
REMARK  26 active torsions:
REMARK  status: ('A' for Active; 'I' for Inactive)
REMARK    1  A    between atoms: C2_2  and  C3_3 
REMARK    2  A    between atoms: C4_6  and  C5_7 
REMARK       I    between atoms: C5_7  and  N2_9 
REMARK    3  A    between atoms: N2_9  and  C6_10 
REMARK    4  A    between atoms: C6_10  and  C7_11 
REMARK    5  A    between atoms: C6_10  and  C8_13 
REMARK       I    between atoms: C7_11  and  N3_14 
REMARK    6  A    between atoms: N3_14  and  C9_15 
REMARK    7  A    between atoms: C9_15  and  C10_16 
REMARK    8  A    between atoms: C9_15  and  C11_18 
REMARK       I    between atoms: C10_16  and  N4_21 
REMARK    9  A    between atoms: C11_18  and  C12_19 
REMARK   10  A    between atoms: C11_18  and  C13_20 
REMARK   11  A    between atoms: N4_21  and  C14_22 
REMARK   12  A    between atoms: C14_22  and  C15_23 
REMARK   13  A    between atoms: C14_22  and  C16_25 
REMARK       I    between atoms: C15_23  and  N6_40 
REMARK   14  A    between atoms: C16_25  and  C17_26 
REMARK   15  A    between atoms: C17_26  and  C18_27 
REMARK   16  A    between atoms: C17_26  and  C19_28 
REMARK   17  A    between atoms: C20_29  and  C21_30 
REMARK   18  A    between atoms: C20_29  and  C24_33 
REMARK   19  A    between atoms: C20_29  and  N6_40 
REMARK   20  A    between atoms: C21_30  and  C22_31 
REMARK   21  A    between atoms: C22_31  and  C23_32 
REMARK   22  A    between atoms: C23_32  and  O8_43 
REMARK   23  A    between atoms: C24_33  and  C25_34 
REMARK   24  A    between atoms: C28_38  and  O6_39 
REMARK   25  A    between atoms: C29_42  and  O8_43 
REMARK   26  A    between atoms: C29_42  and  C35_49 
ROOT
ATOM      1  C14 non d ame      -7.395   9.662  64.951  0.00  0.00     0.089 C 
ATOM      2  H20 non d ame      -7.880   8.785  64.521  0.00  0.00     0.087 H 
ENDROOT
BRANCH   1   3
ATOM      3  N4  non d ame      -8.405  10.701  65.083  0.00  0.00    -0.346 N 
ATOM      4  C10 non d ame      -9.812  10.348  65.496  0.00  0.00     0.241 C 
ATOM      5  O4  non d ame     -10.108   9.219  65.714  0.00  0.00    -0.271 OA
ATOM      6  H19 non d ame      -8.134  11.655  64.891  0.00  0.00     0.163 HD
BRANCH   4   7
ATOM      7  C9  non d ame     -10.843  11.436  65.633  0.00  0.00     0.092 C 
ATOM      8  H11 non d ame     -11.825  10.984  65.773  0.00  0.00     0.088 H 
BRANCH   7   9
ATOM      9  N3  non d ame     -10.558  12.232  66.832  0.00  0.00    -0.346 N 
ATOM     10  C7  non d ame     -11.425  12.139  67.981  0.00  0.00     0.240 C 
ATOM     11  O3  non d ame     -12.357  11.432  67.958  0.00  0.00    -0.271 OA
ATOM     12  H10 non d ame      -9.759  12.848  66.866  0.00  0.00     0.163 HD
BRANCH  10  13
ATOM     13  C6  non d ame     -11.118  12.991  69.252  0.00  0.00     0.086 C 
ATOM     14  H6  non d ame     -10.112  12.826  69.636  0.00  0.00     0.086 H 
BRANCH  13  15
ATOM     15  N2  non d ame     -11.207  14.400  68.908  0.00  0.00    -0.343 N 
ATOM     16  C5  non d ame      -9.985  15.145  68.597  0.00  0.00     0.273 C 
ATOM     17  O2  non d ame      -8.936  14.602  68.629  0.00  0.00    -0.266 OA
ATOM     18  H5  non d ame     -12.108  14.857  68.886  0.00  0.00     0.163 HD
BRANCH  16  19
ATOM     19  C4  non d ame     -10.064  16.635  68.231  0.00  0.00     0.154 A 
ATOM     20  C1  non d ame      -8.971  17.520  67.966  0.00  0.00    -0.017 A 
ATOM     21  C2  non d ame      -9.572  18.766  67.681  0.00  0.00     0.077 A 
ATOM     22  H1  non d ame      -7.905  17.292  67.978  0.00  0.00     0.091 H 
ATOM     23  O1  non d ame     -10.860  18.605  67.772  0.00  0.00    -0.218 OA
ATOM     24  N1  non d ame     -11.171  17.370  68.092  0.00  0.00    -0.123 NA
BRANCH  21  25
ATOM     25  C3  non d ame      -8.847  20.058  67.330  0.00  0.00    -0.029 C 
ATOM     26  H2  non d ame      -7.788  19.958  67.572  0.00  0.00     0.036 H 
ATOM     27  H3  non d ame      -8.958  20.260  66.265  0.00  0.00     0.036 H 
ATOM     28  H4  non d ame      -9.274  20.882  67.902  0.00  0.00     0.036 H 
ENDBRANCH  21  25
ENDBRANCH  16  19
ENDBRANCH  13  15
BRANCH  13  29
ATOM     29  C8  non d ame     -12.114  12.659  70.334  0.00  0.00    -0.049 C 
ATOM     30  H7  non d ame     -13.095  13.044  70.056  0.00  0.00     0.030 H 
ATOM     31  H8  non d ame     -12.169  11.578  70.458  0.00  0.00     0.030 H 
ATOM     32  H9  non d ame     -11.797  13.117  71.271  0.00  0.00     0.030 H 
ENDBRANCH  13  29
ENDBRANCH  10  13
ENDBRANCH   7   9
BRANCH   7  33
ATOM     33  C11 non d ame     -10.795  12.358  64.379  0.00  0.00    -0.033 C 
ATOM     34  H12 non d ame      -9.980  12.008  63.746  0.00  0.00     0.042 H 
BRANCH  33  35
ATOM     35  C12 non d ame     -12.112  12.255  63.548  0.00  0.00    -0.071 C 
ATOM     36  H13 non d ame     -11.870  12.239  62.485  0.00  0.00     0.028 H 
ATOM     37  H14 non d ame     -12.638  11.338  63.813  0.00  0.00     0.028 H 
ATOM     38  H15 non d ame     -12.746  13.114  63.764  0.00  0.00     0.028 H 
ENDBRANCH  33  35
BRANCH  33  39
ATOM     39  C13 non d ame     -10.494  13.837  64.783  0.00  0.00    -0.071 C 
ATOM     40  H16 non d ame     -10.227  14.409  63.895  0.00  0.00     0.028 H 
ATOM     41  H17 non d ame     -11.380  14.275  65.244  0.00  0.00     0.028 H 
ATOM     42  H18 non d ame      -9.667  13.858  65.492  0.00  0.00     0.028 H 
ENDBRANCH  33  39
ENDBRANCH   7  33
ENDBRANCH   4   7
ENDBRANCH   1   3
BRANCH   1  43
ATOM     43  C15 non d ame      -6.796   9.372  66.356  0.00  0.00     0.240 C 
ATOM     44  O5  non d ame      -5.622   9.450  66.526  0.00  0.00    -0.271 OA
ATOM     45  N6  non d ame      -7.687   9.004  67.494  0.00  0.00    -0.355 N 
ATOM     46  H46 non d ame      -8.686   8.939  67.363  0.00  0.00     0.162 HD
BRANCH  45  47
ATOM     47  C20 non d ame      -7.102   8.733  68.825  0.00  0.00     0.013 C 
ATOM     48  H30 non d ame      -6.041   8.523  68.688  0.00  0.00     0.072 H 
BRANCH  47  49
ATOM     49  C21 non d ame      -7.790   7.535  69.438  0.00  0.00    -0.038 C 
ATOM     50  H31 non d ame      -7.014   6.780  69.563  0.00  0.00     0.036 H 
ATOM     51  H32 non d ame      -8.324   7.917  70.309  0.00  0.00     0.036 H 
BRANCH  49  52
ATOM     52  C22 non d ame      -8.857   6.916  68.509  0.00  0.00     0.018 C 
ATOM     53  H33 non d ame      -8.709   7.385  67.536  0.00  0.00     0.048 H 
ATOM     54  H34 non d ame      -8.750   5.836  68.615  0.00  0.00     0.048 H 
BRANCH  52  55
ATOM     55  C23 non d ame     -10.317   7.245  68.925  0.00  0.00     0.259 C 
ATOM     56  O7  non d ame     -11.200   6.487  68.680  0.00  0.00    -0.265 OA
BRANCH  55  57
ATOM     57  O8  non d ame     -10.592   8.470  69.594  0.00  0.00    -0.317 OA
BRANCH  57  58
ATOM     58  C29 non d ame     -11.514   8.346  70.681  0.00  0.00     0.052 C 
ATOM     59  H47 non d ame     -11.824   9.363  70.921  0.00  0.00     0.082 H 
ATOM     60  H48 non d ame     -12.253   7.613  70.358  0.00  0.00     0.082 H 
BRANCH  58  61
ATOM     61  C35 non d ame     -10.746   7.765  71.897  0.00  0.00    -0.034 A 
ATOM     62  C30 non d ame      -9.624   8.424  72.392  0.00  0.00    -0.075 A 
ATOM     63  C31 non d ame      -8.933   7.903  73.484  0.00  0.00    -0.082 A 
ATOM     64  H49 non d ame      -9.287   9.349  71.923  0.00  0.00     0.084 H 
ATOM     65  C32 non d ame      -9.366   6.716  74.082  0.00  0.00    -0.083 A 
ATOM     66  H50 non d ame      -8.057   8.423  73.871  0.00  0.00     0.083 H 
ATOM     67  C33 non d ame     -10.484   6.060  73.583  0.00  0.00    -0.082 A 
ATOM     68  H51 non d ame      -8.832   6.302  74.937  0.00  0.00     0.083 H 
ATOM     69  C34 non d ame     -11.178   6.579  72.492  0.00  0.00    -0.075 A 
ATOM     70  H52 non d ame     -10.818   5.133  74.050  0.00  0.00     0.083 H 
ATOM     71  H53 non d ame     -12.056   6.059  72.107  0.00  0.00     0.084 H 
ENDBRANCH  58  61
ENDBRANCH  57  58
ENDBRANCH  55  57
ENDBRANCH  52  55
ENDBRANCH  49  52
ENDBRANCH  47  49
BRANCH  47  72
ATOM     72  C24 non d ame      -7.290   9.949  69.730  0.00  0.00    -0.039 C 
ATOM     73  H35 non d ame      -8.224  10.410  69.405  0.00  0.00     0.036 H 
ATOM     74  H36 non d ame      -7.195   9.570  70.747  0.00  0.00     0.036 H 
BRANCH  72  75
ATOM     75  C25 non d ame      -6.129  11.032  69.517  0.00  0.00    -0.001 C 
ATOM     76  C26 non d ame      -5.478  11.447  70.969  0.00  0.00    -0.035 C 
ATOM     77  C27 non d ame      -5.473  12.797  71.075  0.00  0.00     0.085 C 
ATOM     78  H38 non d ame      -6.136  11.130  71.778  0.00  0.00     0.036 H 
ATOM     79  H39 non d ame      -4.420  11.186  70.992  0.00  0.00     0.036 H 
ATOM     80  N5  non d ame      -6.358  13.330  69.973  0.00  0.00    -0.049 N 
ATOM     81  H40 non d ame      -5.935  13.016  72.038  0.00  0.00     0.075 H 
ATOM     82  H41 non d ame      -4.445  13.101  70.882  0.00  0.00     0.075 H 
ATOM     83  C28 non d ame      -6.584  12.100  68.952  0.00  0.00     0.193 C 
ATOM     84  H42 non d ame      -7.243  13.558  70.402  0.00  0.00     0.280 HD
ATOM     85  H43 non d ame      -5.826  14.046  69.500  0.00  0.00     0.280 HD
ATOM     86  H44 non d ame      -6.051  12.064  68.002  0.00  0.00     0.129 H 
ATOM     87  H37 non d ame      -5.436  10.744  68.727  0.00  0.00     0.046 H 
BRANCH  83  88
ATOM     88  O6  non d ame      -7.968  11.985  68.617  0.00  0.00    -0.369 OA
ATOM     89  H45 non d ame      -8.242  11.069  68.698  0.00  0.00     0.212 HD
ENDBRANCH  83  88
ENDBRANCH  72  75
ENDBRANCH  47  72
ENDBRANCH  45  47
ENDBRANCH   1  43
BRANCH   1  90
ATOM     90  C16 non d ame      -6.298  10.152  64.019  0.00  0.00    -0.035 C 
ATOM     91  H21 non d ame      -6.685  11.070  63.574  0.00  0.00     0.037 H 
ATOM     92  H22 non d ame      -5.394  10.181  64.627  0.00  0.00     0.037 H 
BRANCH  90  93
ATOM     93  C17 non d ame      -6.001   9.179  62.834  0.00  0.00    -0.059 C 
ATOM     94  H23 non d ame      -6.176   9.724  61.906  0.00  0.00     0.038 H 
BRANCH  93  95
ATOM     95  C18 non d ame      -4.517   8.692  62.829  0.00  0.00    -0.073 C 
ATOM     96  H24 non d ame      -4.232   8.406  61.816  0.00  0.00     0.028 H 
ATOM     97  H25 non d ame      -3.869   9.498  63.175  0.00  0.00     0.028 H 
ATOM     98  H26 non d ame      -4.414   7.833  63.492  0.00  0.00     0.028 H 
ENDBRANCH  93  95
BRANCH  93  99
ATOM     99  C19 non d ame      -6.965   7.989  62.849  0.00  0.00    -0.073 C 
ATOM    100  H27 non d ame      -7.755   8.152  62.115  0.00  0.00     0.028 H 
ATOM    101  H28 non d ame      -6.420   7.078  62.601  0.00  0.00     0.028 H 
ATOM    102  H29 non d ame      -7.405   7.891  63.841  0.00  0.00     0.028 H 
ENDBRANCH  93  99
ENDBRANCH  90  93
ENDBRANCH   1  90
TORSDOF 26
ENDMDL
MODEL 13
REMARK VINA RESULT:      -6.2      2.742      7.458
REMARK  26 active torsions:
REMARK  status: ('A' for Active; 'I' for Inactive)
REMARK    1  A    between atoms: C2_2  and  C3_3 
REMARK    2  A    between atoms: C4_6  and  C5_7 
REMARK       I    between atoms: C5_7  and  N2_9 
REMARK    3  A    between atoms: N2_9  and  C6_10 
REMARK    4  A    between atoms: C6_10  and  C7_11 
REMARK    5  A    between atoms: C6_10  and  C8_13 
REMARK       I    between atoms: C7_11  and  N3_14 
REMARK    6  A    between atoms: N3_14  and  C9_15 
REMARK    7  A    between atoms: C9_15  and  C10_16 
REMARK    8  A    between atoms: C9_15  and  C11_18 
REMARK       I    between atoms: C10_16  and  N4_21 
REMARK    9  A    between atoms: C11_18  and  C12_19 
REMARK   10  A    between atoms: C11_18  and  C13_20 
REMARK   11  A    between atoms: N4_21  and  C14_22 
REMARK   12  A    between atoms: C14_22  and  C15_23 
REMARK   13  A    between atoms: C14_22  and  C16_25 
REMARK       I    between atoms: C15_23  and  N6_40 
REMARK   14  A    between atoms: C16_25  and  C17_26 
REMARK   15  A    between atoms: C17_26  and  C18_27 
REMARK   16  A    between atoms: C17_26  and  C19_28 
REMARK   17  A    between atoms: C20_29  and  C21_30 
REMARK   18  A    between atoms: C20_29  and  C24_33 
REMARK   19  A    between atoms: C20_29  and  N6_40 
REMARK   20  A    between atoms: C21_30  and  C22_31 
REMARK   21  A    between atoms: C22_31  and  C23_32 
REMARK   22  A    between atoms: C23_32  and  O8_43 
REMARK   23  A    between atoms: C24_33  and  C25_34 
REMARK   24  A    between atoms: C28_38  and  O6_39 
REMARK   25  A    between atoms: C29_42  and  O8_43 
REMARK   26  A    between atoms: C29_42  and  C35_49 
ROOT
ATOM      1  C14 non d ame      -8.339   8.399  62.648  0.00  0.00     0.089 C 
ATOM      2  H20 non d ame      -8.906   8.446  61.718  0.00  0.00     0.087 H 
ENDROOT
BRANCH   1   3
ATOM      3  N4  non d ame      -9.045   9.205  63.633  0.00  0.00    -0.346 N 
ATOM      4  C10 non d ame      -9.539  10.584  63.275  0.00  0.00     0.241 C 
ATOM      5  O4  non d ame      -9.355  11.024  62.189  0.00  0.00    -0.271 OA
ATOM      6  H19 non d ame      -9.189   8.813  64.553  0.00  0.00     0.163 HD
BRANCH   4   7
ATOM      7  C9  non d ame     -10.272  11.403  64.306  0.00  0.00     0.092 C 
ATOM      8  H11 non d ame     -10.804  10.734  64.983  0.00  0.00     0.088 H 
BRANCH   7   9
ATOM      9  N3  non d ame      -9.306  12.156  65.110  0.00  0.00    -0.346 N 
ATOM     10  C7  non d ame      -9.058  11.777  66.480  0.00  0.00     0.240 C 
ATOM     11  O3  non d ame      -9.630  10.870  66.951  0.00  0.00    -0.271 OA
ATOM     12  H10 non d ame      -8.807  12.941  64.718  0.00  0.00     0.163 HD
BRANCH  10  13
ATOM     13  C6  non d ame      -8.031  12.584  67.332  0.00  0.00     0.086 C 
ATOM     14  H6  non d ame      -7.078  12.724  66.823  0.00  0.00     0.086 H 
BRANCH  13  15
ATOM     15  N2  non d ame      -8.566  13.912  67.584  0.00  0.00    -0.343 N 
ATOM     16  C5  non d ame      -7.725  15.086  67.347  0.00  0.00     0.273 C 
ATOM     17  O2  non d ame      -6.617  14.952  66.956  0.00  0.00    -0.266 OA
ATOM     18  H5  non d ame      -9.513  14.017  67.921  0.00  0.00     0.163 HD
BRANCH  16  19
ATOM     19  C4  non d ame      -8.278  16.496  67.607  0.00  0.00     0.154 A 
ATOM     20  C1  non d ame      -9.367  17.135  66.934  0.00  0.00    -0.017 A 
ATOM     21  C2  non d ame      -9.474  18.406  67.541  0.00  0.00     0.077 A 
ATOM     22  H1  non d ame      -9.985  16.737  66.129  0.00  0.00     0.091 H 
ATOM     23  O1  non d ame      -8.551  18.478  68.455  0.00  0.00    -0.218 OA
ATOM     24  N1  non d ame      -7.840  17.375  68.512  0.00  0.00    -0.123 NA
BRANCH  21  25
ATOM     25  C3  non d ame     -10.484  19.491  67.190  0.00  0.00    -0.029 C 
ATOM     26  H2  non d ame     -10.510  19.628  66.108  0.00  0.00     0.036 H 
ATOM     27  H3  non d ame     -11.472  19.195  67.542  0.00  0.00     0.036 H 
ATOM     28  H4  non d ame     -10.193  20.427  67.668  0.00  0.00     0.036 H 
ENDBRANCH  21  25
ENDBRANCH  16  19
ENDBRANCH  13  15
BRANCH  13  29
ATOM     29  C8  non d ame      -7.785  11.870  68.637  0.00  0.00    -0.049 C 
ATOM     30  H7  non d ame      -8.634  11.226  68.865  0.00  0.00     0.030 H 
ATOM     31  H8  non d ame      -6.882  11.266  68.557  0.00  0.00     0.030 H 
ATOM     32  H9  non d ame      -7.663  12.603  69.434  0.00  0.00     0.030 H 
ENDBRANCH  13  29
ENDBRANCH  10  13
ENDBRANCH   7   9
BRANCH   7  33
ATOM     33  C11 non d ame     -11.233  12.397  63.590  0.00  0.00    -0.033 C 
ATOM     34  H12 non d ame     -10.826  12.590  62.597  0.00  0.00     0.042 H 
BRANCH  33  35
ATOM     35  C12 non d ame     -12.654  11.779  63.402  0.00  0.00    -0.071 C 
ATOM     36  H13 non d ame     -12.559  10.733  63.109  0.00  0.00     0.028 H 
ATOM     37  H14 non d ame     -13.205  11.844  64.340  0.00  0.00     0.028 H 
ATOM     38  H15 non d ame     -13.189  12.327  62.627  0.00  0.00     0.028 H 
ENDBRANCH  33  35
BRANCH  33  39
ATOM     39  C13 non d ame     -11.304  13.756  64.356  0.00  0.00    -0.071 C 
ATOM     40  H16 non d ame     -10.431  13.856  65.001  0.00  0.00     0.028 H 
ATOM     41  H17 non d ame     -11.322  14.578  63.639  0.00  0.00     0.028 H 
ATOM     42  H18 non d ame     -12.209  13.784  64.963  0.00  0.00     0.028 H 
ENDBRANCH  33  39
ENDBRANCH   7  33
ENDBRANCH   4   7
ENDBRANCH   1   3
BRANCH   1  43
ATOM     43  C15 non d ame      -8.221   6.946  63.191  0.00  0.00     0.240 C 
ATOM     44  O5  non d ame      -7.817   6.081  62.482  0.00  0.00    -0.271 OA
ATOM     45  N6  non d ame      -8.604   6.633  64.597  0.00  0.00    -0.355 N 
ATOM     46  H46 non d ame      -8.944   7.360  65.210  0.00  0.00     0.162 HD
BRANCH  45  47
ATOM     47  C20 non d ame      -8.485   5.247  65.099  0.00  0.00     0.013 C 
ATOM     48  H30 non d ame      -8.262   4.601  64.249  0.00  0.00     0.072 H 
BRANCH  47  49
ATOM     49  C21 non d ame      -9.792   4.831  65.735  0.00  0.00    -0.038 C 
ATOM     50  H31 non d ame     -10.543   5.513  65.337  0.00  0.00     0.036 H 
ATOM     51  H32 non d ame      -9.879   3.759  65.556  0.00  0.00     0.036 H 
BRANCH  49  52
ATOM     52  C22 non d ame      -9.799   5.020  67.267  0.00  0.00     0.018 C 
ATOM     53  H33 non d ame     -10.462   4.247  67.657  0.00  0.00     0.048 H 
ATOM     54  H34 non d ame      -8.751   5.041  67.567  0.00  0.00     0.048 H 
BRANCH  52  55
ATOM     55  C23 non d ame     -10.404   6.375  67.729  0.00  0.00     0.259 C 
ATOM     56  O7  non d ame     -10.975   7.075  66.957  0.00  0.00    -0.265 OA
BRANCH  55  57
ATOM     57  O8  non d ame     -10.256   6.778  69.085  0.00  0.00    -0.317 OA
BRANCH  57  58
ATOM     58  C29 non d ame     -11.180   6.154  69.981  0.00  0.00     0.052 C 
ATOM     59  H47 non d ame     -11.865   5.586  69.351  0.00  0.00     0.082 H 
ATOM     60  H48 non d ame     -10.570   5.641  70.724  0.00  0.00     0.082 H 
BRANCH  58  61
ATOM     61  C35 non d ame     -11.984   7.273  70.696  0.00  0.00    -0.034 A 
ATOM     62  C30 non d ame     -11.429   8.540  70.850  0.00  0.00    -0.075 A 
ATOM     63  C31 non d ame     -12.151   9.545  71.493  0.00  0.00    -0.082 A 
ATOM     64  H49 non d ame     -10.429   8.745  70.468  0.00  0.00     0.084 H 
ATOM     65  C32 non d ame     -13.432   9.279  71.984  0.00  0.00    -0.083 A 
ATOM     66  H50 non d ame     -11.714  10.537  71.609  0.00  0.00     0.083 H 
ATOM     67  C33 non d ame     -13.980   8.012  71.831  0.00  0.00    -0.082 A 
ATOM     68  H51 non d ame     -14.003  10.059  72.487  0.00  0.00     0.083 H 
ATOM     69  C34 non d ame     -13.263   7.006  71.188  0.00  0.00    -0.075 A 
ATOM     70  H52 non d ame     -14.979   7.807  72.218  0.00  0.00     0.083 H 
ATOM     71  H53 non d ame     -13.701   6.014  71.070  0.00  0.00     0.084 H 
ENDBRANCH  58  61
ENDBRANCH  57  58
ENDBRANCH  55  57
ENDBRANCH  52  55
ENDBRANCH  49  52
ENDBRANCH  47  49
BRANCH  47  72
ATOM     72  C24 non d ame      -7.365   5.166  66.134  0.00  0.00    -0.039 C 
ATOM     73  H35 non d ame      -7.767   5.636  67.033  0.00  0.00     0.036 H 
ATOM     74  H36 non d ame      -7.064   4.119  66.155  0.00  0.00     0.036 H 
BRANCH  72  75
ATOM     75  C25 non d ame      -6.083   6.018  65.689  0.00  0.00    -0.001 C 
ATOM     76  C26 non d ame      -4.959   5.025  65.013  0.00  0.00    -0.035 C 
ATOM     77  C27 non d ame      -3.766   5.243  65.617  0.00  0.00     0.085 C 
ATOM     78  H38 non d ame      -5.183   3.987  65.257  0.00  0.00     0.036 H 
ATOM     79  H39 non d ame      -4.778   5.316  63.978  0.00  0.00     0.036 H 
ATOM     80  N5  non d ame      -4.042   6.054  66.860  0.00  0.00    -0.049 N 
ATOM     81  H40 non d ame      -3.403   4.257  65.909  0.00  0.00     0.075 H 
ATOM     82  H41 non d ame      -3.192   5.850  64.917  0.00  0.00     0.075 H 
ATOM     83  C28 non d ame      -5.546   6.617  66.698  0.00  0.00     0.193 C 
ATOM     84  H42 non d ame      -4.022   5.407  67.635  0.00  0.00     0.280 HD
ATOM     85  H43 non d ame      -3.402   6.836  66.839  0.00  0.00     0.280 HD
ATOM     86  H44 non d ame      -5.722   7.658  66.427  0.00  0.00     0.129 H 
ATOM     87  H37 non d ame      -6.356   6.912  65.128  0.00  0.00     0.046 H 
BRANCH  83  88
ATOM     88  O6  non d ame      -6.283   6.408  67.904  0.00  0.00    -0.369 OA
ATOM     89  H45 non d ame      -6.631   7.246  68.216  0.00  0.00     0.212 HD
ENDBRANCH  83  88
ENDBRANCH  72  75
ENDBRANCH  47  72
ENDBRANCH  45  47
ENDBRANCH   1  43
BRANCH   1  90
ATOM     90  C16 non d ame      -6.950   8.979  62.435  0.00  0.00    -0.035 C 
ATOM     91  H21 non d ame      -6.501   8.370  61.650  0.00  0.00     0.037 H 
ATOM     92  H22 non d ame      -7.105  10.046  62.276  0.00  0.00     0.037 H 
BRANCH  90  93
ATOM     93  C17 non d ame      -6.019   8.849  63.682  0.00  0.00    -0.059 C 
ATOM     94  H23 non d ame      -6.469   8.122  64.357  0.00  0.00     0.038 H 
BRANCH  93  95
ATOM     95  C18 non d ame      -4.595   8.328  63.302  0.00  0.00    -0.073 C 
ATOM     96  H24 non d ame      -3.844   9.029  63.664  0.00  0.00     0.028 H 
ATOM     97  H25 non d ame      -4.432   7.352  63.760  0.00  0.00     0.028 H 
ATOM     98  H26 non d ame      -4.519   8.238  62.219  0.00  0.00     0.028 H 
ENDBRANCH  93  95
BRANCH  93  99
ATOM     99  C19 non d ame      -5.928  10.177  64.438  0.00  0.00    -0.073 C 
ATOM    100  H27 non d ame      -5.976  11.004  63.728  0.00  0.00     0.028 H 
ATOM    101  H28 non d ame      -6.759  10.253  65.139  0.00  0.00     0.028 H 
ATOM    102  H29 non d ame      -4.987  10.221  64.984  0.00  0.00     0.028 H 
ENDBRANCH  93  99
ENDBRANCH  90  93
ENDBRANCH   1  90
TORSDOF 26
ENDMDL
MODEL 14
REMARK VINA RESULT:      -6.1      2.822      6.315
REMARK  26 active torsions:
REMARK  status: ('A' for Active; 'I' for Inactive)
REMARK    1  A    between atoms: C2_2  and  C3_3 
REMARK    2  A    between atoms: C4_6  and  C5_7 
REMARK       I    between atoms: C5_7  and  N2_9 
REMARK    3  A    between atoms: N2_9  and  C6_10 
REMARK    4  A    between atoms: C6_10  and  C7_11 
REMARK    5  A    between atoms: C6_10  and  C8_13 
REMARK       I    between atoms: C7_11  and  N3_14 
REMARK    6  A    between atoms: N3_14  and  C9_15 
REMARK    7  A    between atoms: C9_15  and  C10_16 
REMARK    8  A    between atoms: C9_15  and  C11_18 
REMARK       I    between atoms: C10_16  and  N4_21 
REMARK    9  A    between atoms: C11_18  and  C12_19 
REMARK   10  A    between atoms: C11_18  and  C13_20 
REMARK   11  A    between atoms: N4_21  and  C14_22 
REMARK   12  A    between atoms: C14_22  and  C15_23 
REMARK   13  A    between atoms: C14_22  and  C16_25 
REMARK       I    between atoms: C15_23  and  N6_40 
REMARK   14  A    between atoms: C16_25  and  C17_26 
REMARK   15  A    between atoms: C17_26  and  C18_27 
REMARK   16  A    between atoms: C17_26  and  C19_28 
REMARK   17  A    between atoms: C20_29  and  C21_30 
REMARK   18  A    between atoms: C20_29  and  C24_33 
REMARK   19  A    between atoms: C20_29  and  N6_40 
REMARK   20  A    between atoms: C21_30  and  C22_31 
REMARK   21  A    between atoms: C22_31  and  C23_32 
REMARK   22  A    between atoms: C23_32  and  O8_43 
REMARK   23  A    between atoms: C24_33  and  C25_34 
REMARK   24  A    between atoms: C28_38  and  O6_39 
REMARK   25  A    between atoms: C29_42  and  O8_43 
REMARK   26  A    between atoms: C29_42  and  C35_49 
ROOT
ATOM      1  C14 non d ame      -7.539  11.292  67.381  0.00  0.00     0.089 C 
ATOM      2  H20 non d ame      -6.657  11.309  68.022  0.00  0.00     0.087 H 
ENDROOT
BRANCH   1   3
ATOM      3  N4  non d ame      -8.339  10.140  67.767  0.00  0.00    -0.346 N 
ATOM      4  C10 non d ame      -7.688   8.940  68.407  0.00  0.00     0.241 C 
ATOM      5  O4  non d ame      -6.517   8.923  68.599  0.00  0.00    -0.271 OA
ATOM      6  H19 non d ame      -9.334  10.173  67.593  0.00  0.00     0.163 HD
BRANCH   4   7
ATOM      7  C9  non d ame      -8.533   7.758  68.805  0.00  0.00     0.092 C 
ATOM      8  H11 non d ame      -7.993   7.164  69.542  0.00  0.00     0.088 H 
BRANCH   7   9
ATOM      9  N3  non d ame      -9.764   8.231  69.447  0.00  0.00    -0.346 N 
ATOM     10  C7  non d ame     -10.207   7.634  70.683  0.00  0.00     0.240 C 
ATOM     11  O3  non d ame      -9.586   6.772  71.174  0.00  0.00    -0.271 OA
ATOM     12  H10 non d ame     -10.311   8.973  69.034  0.00  0.00     0.163 HD
BRANCH  10  13
ATOM     13  C6  non d ame     -11.519   8.139  71.359  0.00  0.00     0.086 C 
ATOM     14  H6  non d ame     -11.516   8.002  72.440  0.00  0.00     0.086 H 
BRANCH  13  15
ATOM     15  N2  non d ame     -11.653   9.567  71.121  0.00  0.00    -0.343 N 
ATOM     16  C5  non d ame     -12.784  10.292  71.703  0.00  0.00     0.273 C 
ATOM     17  O2  non d ame     -13.583   9.717  72.358  0.00  0.00    -0.266 OA
ATOM     18  H5  non d ame     -10.967  10.049  70.558  0.00  0.00     0.163 HD
BRANCH  16  19
ATOM     19  C4  non d ame     -12.937  11.802  71.461  0.00  0.00     0.154 A 
ATOM     20  C1  non d ame     -13.740  12.720  72.209  0.00  0.00    -0.017 A 
ATOM     21  C2  non d ame     -13.533  13.973  71.588  0.00  0.00     0.077 A 
ATOM     22  H1  non d ame     -14.375  12.511  73.070  0.00  0.00     0.091 H 
ATOM     23  O1  non d ame     -12.706  13.784  70.602  0.00  0.00    -0.218 OA
ATOM     24  N1  non d ame     -12.344  12.526  70.507  0.00  0.00    -0.123 NA
BRANCH  21  25
ATOM     25  C3  non d ame     -14.162  15.297  72.000  0.00  0.00    -0.029 C 
ATOM     26  H2  non d ame     -14.255  15.334  73.085  0.00  0.00     0.036 H 
ATOM     27  H3  non d ame     -13.531  16.119  71.661  0.00  0.00     0.036 H 
ATOM     28  H4  non d ame     -15.149  15.388  71.546  0.00  0.00     0.036 H 
ENDBRANCH  21  25
ENDBRANCH  16  19
ENDBRANCH  13  15
BRANCH  13  29
ATOM     29  C8  non d ame     -12.701   7.406  70.778  0.00  0.00    -0.049 C 
ATOM     30  H7  non d ame     -12.732   7.561  69.700  0.00  0.00     0.030 H 
ATOM     31  H8  non d ame     -12.608   6.341  70.990  0.00  0.00     0.030 H 
ATOM     32  H9  non d ame     -13.619   7.786  71.225  0.00  0.00     0.030 H 
ENDBRANCH  13  29
ENDBRANCH  10  13
ENDBRANCH   7   9
BRANCH   7  33
ATOM     33  C11 non d ame      -8.897   6.930  67.538  0.00  0.00    -0.033 C 
ATOM     34  H12 non d ame      -8.132   7.126  66.786  0.00  0.00     0.042 H 
BRANCH  33  35
ATOM     35  C12 non d ame      -8.881   5.399  67.835  0.00  0.00    -0.071 C 
ATOM     36  H13 non d ame      -9.499   5.192  68.709  0.00  0.00     0.028 H 
ATOM     37  H14 non d ame      -9.276   4.858  66.976  0.00  0.00     0.028 H 
ATOM     38  H15 non d ame      -7.858   5.077  68.029  0.00  0.00     0.028 H 
ENDBRANCH  33  35
BRANCH  33  39
ATOM     39  C13 non d ame     -10.275   7.379  66.953  0.00  0.00    -0.071 C 
ATOM     40  H16 non d ame     -10.346   8.466  66.984  0.00  0.00     0.028 H 
ATOM     41  H17 non d ame     -10.360   7.039  65.921  0.00  0.00     0.028 H 
ATOM     42  H18 non d ame     -11.079   6.945  67.546  0.00  0.00     0.028 H 
ENDBRANCH  33  39
ENDBRANCH   7  33
ENDBRANCH   4   7
ENDBRANCH   1   3
BRANCH   1  43
ATOM     43  C15 non d ame      -8.405  12.574  67.542  0.00  0.00     0.240 C 
ATOM     44  O5  non d ame      -8.767  12.911  68.623  0.00  0.00    -0.271 OA
ATOM     45  N6  non d ame      -8.778  13.386  66.349  0.00  0.00    -0.355 N 
ATOM     46  H46 non d ame      -8.472  13.113  65.426  0.00  0.00     0.162 HD
BRANCH  45  47
ATOM     47  C20 non d ame      -9.601  14.603  66.519  0.00  0.00     0.013 C 
ATOM     48  H30 non d ame      -9.949  14.631  67.551  0.00  0.00     0.072 H 
BRANCH  47  49
ATOM     49  C21 non d ame     -10.782  14.543  65.577  0.00  0.00    -0.038 C 
ATOM     50  H31 non d ame     -11.546  15.181  66.021  0.00  0.00     0.036 H 
ATOM     51  H32 non d ame     -10.384  14.775  64.590  0.00  0.00     0.036 H 
BRANCH  49  52
ATOM     52  C22 non d ame     -11.398  13.130  65.478  0.00  0.00     0.018 C 
ATOM     53  H33 non d ame     -10.612  12.443  65.793  0.00  0.00     0.048 H 
ATOM     54  H34 non d ame     -12.336  13.177  66.032  0.00  0.00     0.048 H 
BRANCH  52  55
ATOM     55  C23 non d ame     -11.777  12.712  64.030  0.00  0.00     0.259 C 
ATOM     56  O7  non d ame     -12.342  13.471  63.311  0.00  0.00    -0.265 OA
BRANCH  55  57
ATOM     57  O8  non d ame     -11.452  11.404  63.575  0.00  0.00    -0.317 OA
BRANCH  57  58
ATOM     58  C29 non d ame     -10.470  10.737  64.373  0.00  0.00     0.052 C 
ATOM     59  H47 non d ame     -10.045  11.504  65.020  0.00  0.00     0.082 H 
ATOM     60  H48 non d ame     -10.979   9.877  64.808  0.00  0.00     0.082 H 
BRANCH  58  61
ATOM     61  C35 non d ame      -9.355  10.219  63.426  0.00  0.00    -0.034 A 
ATOM     62  C30 non d ame      -8.855  11.043  62.422  0.00  0.00    -0.075 A 
ATOM     63  C31 non d ame      -7.853  10.578  61.572  0.00  0.00    -0.082 A 
ATOM     64  H49 non d ame      -9.248  12.052  62.302  0.00  0.00     0.084 H 
ATOM     65  C32 non d ame      -7.352   9.282  61.727  0.00  0.00    -0.083 A 
ATOM     66  H50 non d ame      -7.462  11.226  60.788  0.00  0.00     0.083 H 
ATOM     67  C33 non d ame      -7.856   8.463  62.728  0.00  0.00    -0.082 A 
ATOM     68  H51 non d ame      -6.568   8.911  61.066  0.00  0.00     0.083 H 
ATOM     69  C34 non d ame      -8.856   8.924  63.581  0.00  0.00    -0.075 A 
ATOM     70  H52 non d ame      -7.464   7.452  62.844  0.00  0.00     0.083 H 
ATOM     71  H53 non d ame      -9.246   8.275  64.366  0.00  0.00     0.084 H 
ENDBRANCH  58  61
ENDBRANCH  57  58
ENDBRANCH  55  57
ENDBRANCH  52  55
ENDBRANCH  49  52
ENDBRANCH  47  49
BRANCH  47  72
ATOM     72  C24 non d ame      -8.763  15.842  66.207  0.00  0.00    -0.039 C 
ATOM     73  H35 non d ame      -7.735  15.486  66.137  0.00  0.00     0.036 H 
ATOM     74  H36 non d ame      -9.240  16.304  65.342  0.00  0.00     0.036 H 
BRANCH  72  75
ATOM     75  C25 non d ame      -8.814  16.908  67.401  0.00  0.00    -0.001 C 
ATOM     76  C26 non d ame     -10.374  17.328  67.711  0.00  0.00    -0.035 C 
ATOM     77  C27 non d ame     -10.470  18.679  67.710  0.00  0.00     0.085 C 
ATOM     78  H38 non d ame     -11.013  17.027  66.882  0.00  0.00     0.036 H 
ATOM     79  H39 non d ame     -10.639  17.054  68.732  0.00  0.00     0.036 H 
ATOM     80  N5  non d ame      -9.192  19.212  67.108  0.00  0.00    -0.049 N 
ATOM     81  H40 non d ame     -11.301  18.912  67.045  0.00  0.00     0.075 H 
ATOM     82  H41 non d ame     -10.514  18.968  68.760  0.00  0.00     0.075 H 
ATOM     83  C28 non d ame      -8.154  17.977  67.103  0.00  0.00     0.193 C 
ATOM     84  H42 non d ame      -9.407  19.456  66.151  0.00  0.00     0.280 HD
ATOM     85  H43 non d ame      -8.849  19.918  67.743  0.00  0.00     0.280 HD
ATOM     86  H44 non d ame      -7.351  17.925  67.838  0.00  0.00     0.129 H 
ATOM     87  H37 non d ame      -8.204  16.604  68.252  0.00  0.00     0.046 H 
BRANCH  83  88
ATOM     88  O6  non d ame      -7.514  17.876  65.829  0.00  0.00    -0.369 OA
ATOM     89  H45 non d ame      -6.623  18.228  65.891  0.00  0.00     0.212 HD
ENDBRANCH  83  88
ENDBRANCH  72  75
ENDBRANCH  47  72
ENDBRANCH  45  47
ENDBRANCH   1  43
BRANCH   1  90
ATOM     90  C16 non d ame      -7.117  11.140  65.929  0.00  0.00    -0.035 C 
ATOM     91  H21 non d ame      -7.787  10.387  65.511  0.00  0.00     0.037 H 
ATOM     92  H22 non d ame      -7.113  12.151  65.521  0.00  0.00     0.037 H 
BRANCH  90  93
ATOM     93  C17 non d ame      -5.667  10.586  65.752  0.00  0.00    -0.059 C 
ATOM     94  H23 non d ame      -5.670   9.543  66.068  0.00  0.00     0.038 H 
BRANCH  93  95
ATOM     95  C18 non d ame      -5.196  10.632  64.263  0.00  0.00    -0.073 C 
ATOM     96  H24 non d ame      -4.426   9.878  64.103  0.00  0.00     0.028 H 
ATOM     97  H25 non d ame      -6.044  10.430  63.608  0.00  0.00     0.028 H 
ATOM     98  H26 non d ame      -4.792  11.619  64.040  0.00  0.00     0.028 H 
ENDBRANCH  93  95
BRANCH  93  99
ATOM     99  C19 non d ame      -4.683  11.332  66.657  0.00  0.00    -0.073 C 
ATOM    100  H27 non d ame      -4.296  10.650  67.414  0.00  0.00     0.028 H 
ATOM    101  H28 non d ame      -3.857  11.716  66.057  0.00  0.00     0.028 H 
ATOM    102  H29 non d ame      -5.195  12.162  67.143  0.00  0.00     0.028 H 
ENDBRANCH  93  99
ENDBRANCH  90  93
ENDBRANCH   1  90
TORSDOF 26
ENDMDL
MODEL 15
REMARK VINA RESULT:      -6.0      2.103      5.536
REMARK  26 active torsions:
REMARK  status: ('A' for Active; 'I' for Inactive)
REMARK    1  A    between atoms: C2_2  and  C3_3 
REMARK    2  A    between atoms: C4_6  and  C5_7 
REMARK       I    between atoms: C5_7  and  N2_9 
REMARK    3  A    between atoms: N2_9  and  C6_10 
REMARK    4  A    between atoms: C6_10  and  C7_11 
REMARK    5  A    between atoms: C6_10  and  C8_13 
REMARK       I    between atoms: C7_11  and  N3_14 
REMARK    6  A    between atoms: N3_14  and  C9_15 
REMARK    7  A    between atoms: C9_15  and  C10_16 
REMARK    8  A    between atoms: C9_15  and  C11_18 
REMARK       I    between atoms: C10_16  and  N4_21 
REMARK    9  A    between atoms: C11_18  and  C12_19 
REMARK   10  A    between atoms: C11_18  and  C13_20 
REMARK   11  A    between atoms: N4_21  and  C14_22 
REMARK   12  A    between atoms: C14_22  and  C15_23 
REMARK   13  A    between atoms: C14_22  and  C16_25 
REMARK       I    between atoms: C15_23  and  N6_40 
REMARK   14  A    between atoms: C16_25  and  C17_26 
REMARK   15  A    between atoms: C17_26  and  C18_27 
REMARK   16  A    between atoms: C17_26  and  C19_28 
REMARK   17  A    between atoms: C20_29  and  C21_30 
REMARK   18  A    between atoms: C20_29  and  C24_33 
REMARK   19  A    between atoms: C20_29  and  N6_40 
REMARK   20  A    between atoms: C21_30  and  C22_31 
REMARK   21  A    between atoms: C22_31  and  C23_32 
REMARK   22  A    between atoms: C23_32  and  O8_43 
REMARK   23  A    between atoms: C24_33  and  C25_34 
REMARK   24  A    between atoms: C28_38  and  O6_39 
REMARK   25  A    between atoms: C29_42  and  O8_43 
REMARK   26  A    between atoms: C29_42  and  C35_49 
ROOT
ATOM      1  C14 non d ame      -9.502  10.570  64.440  0.00  0.00     0.089 C 
ATOM      2  H20 non d ame     -10.409  10.367  65.011  0.00  0.00     0.087 H 
ENDROOT
BRANCH   1   3
ATOM      3  N4  non d ame      -8.483  11.014  65.378  0.00  0.00    -0.346 N 
ATOM      4  C10 non d ame      -8.811  11.174  66.841  0.00  0.00     0.241 C 
ATOM      5  O4  non d ame      -9.905  10.942  67.239  0.00  0.00    -0.271 OA
ATOM      6  H19 non d ame      -7.559  11.209  65.018  0.00  0.00     0.163 HD
BRANCH   4   7
ATOM      7  C9  non d ame      -7.742  11.630  67.799  0.00  0.00     0.092 C 
ATOM      8  H11 non d ame      -6.823  11.821  67.245  0.00  0.00     0.088 H 
BRANCH   7   9
ATOM      9  N3  non d ame      -8.147  12.895  68.418  0.00  0.00    -0.346 N 
ATOM     10  C7  non d ame      -7.445  14.113  68.093  0.00  0.00     0.240 C 
ATOM     11  O3  non d ame      -6.552  14.092  67.337  0.00  0.00    -0.271 OA
ATOM     12  H10 non d ame      -8.914  12.929  69.074  0.00  0.00     0.163 HD
BRANCH  10  13
ATOM     13  C6  non d ame      -7.879  15.457  68.758  0.00  0.00     0.086 C 
ATOM     14  H6  non d ame      -8.288  16.169  68.041  0.00  0.00     0.086 H 
BRANCH  13  15
ATOM     15  N2  non d ame      -8.931  15.187  69.723  0.00  0.00    -0.343 N 
ATOM     16  C5  non d ame     -10.234  15.840  69.572  0.00  0.00     0.273 C 
ATOM     17  O2  non d ame     -10.423  16.583  68.672  0.00  0.00    -0.266 OA
ATOM     18  H5  non d ame      -8.760  14.553  70.490  0.00  0.00     0.163 HD
BRANCH  16  19
ATOM     19  C4  non d ame     -11.356  15.563  70.585  0.00  0.00     0.154 A 
ATOM     20  C1  non d ame     -12.732  15.296  70.298  0.00  0.00    -0.017 A 
ATOM     21  C2  non d ame     -13.337  15.111  71.561  0.00  0.00     0.077 A 
ATOM     22  H1  non d ame     -13.217  15.243  69.323  0.00  0.00     0.091 H 
ATOM     23  O1  non d ame     -12.409  15.257  72.461  0.00  0.00    -0.218 OA
ATOM     24  N1  non d ame     -11.244  15.521  71.915  0.00  0.00    -0.123 NA
BRANCH  21  25
ATOM     25  C3  non d ame     -14.805  14.800  71.821  0.00  0.00    -0.029 C 
ATOM     26  H2  non d ame     -15.200  14.197  71.002  0.00  0.00     0.036 H 
ATOM     27  H3  non d ame     -14.899  14.248  72.756  0.00  0.00     0.036 H 
ATOM     28  H4  non d ame     -15.368  15.731  71.891  0.00  0.00     0.036 H 
ENDBRANCH  21  25
ENDBRANCH  16  19
ENDBRANCH  13  15
BRANCH  13  29
ATOM     29  C8  non d ame      -6.695  16.085  69.447  0.00  0.00    -0.049 C 
ATOM     30  H7  non d ame      -6.684  15.788  70.495  0.00  0.00     0.030 H 
ATOM     31  H8  non d ame      -5.775  15.751  68.966  0.00  0.00     0.030 H 
ATOM     32  H9  non d ame      -6.768  17.170  69.378  0.00  0.00     0.030 H 
ENDBRANCH  13  29
ENDBRANCH  10  13
ENDBRANCH   7   9
BRANCH   7  33
ATOM     33  C11 non d ame      -7.545  10.553  68.906  0.00  0.00    -0.033 C 
ATOM     34  H12 non d ame      -8.498  10.432  69.420  0.00  0.00     0.042 H 
BRANCH  33  35
ATOM     35  C12 non d ame      -7.164   9.170  68.293  0.00  0.00    -0.071 C 
ATOM     36  H13 non d ame      -6.986   8.453  69.095  0.00  0.00     0.028 H 
ATOM     37  H14 non d ame      -7.979   8.815  67.663  0.00  0.00     0.028 H 
ATOM     38  H15 non d ame      -6.260   9.275  67.693  0.00  0.00     0.028 H 
ENDBRANCH  33  35
BRANCH  33  39
ATOM     39  C13 non d ame      -6.485  11.019  69.956  0.00  0.00    -0.071 C 
ATOM     40  H16 non d ame      -6.236  12.065  69.781  0.00  0.00     0.028 H 
ATOM     41  H17 non d ame      -6.895  10.906  70.960  0.00  0.00     0.028 H 
ATOM     42  H18 non d ame      -5.587  10.409  69.860  0.00  0.00     0.028 H 
ENDBRANCH  33  39
ENDBRANCH   7  33
ENDBRANCH   4   7
ENDBRANCH   1   3
BRANCH   1  43
ATOM     43  C15 non d ame      -8.979   9.304  63.702  0.00  0.00     0.240 C 
ATOM     44  O5  non d ame      -8.890   9.306  62.516  0.00  0.00    -0.271 OA
ATOM     45  N6  non d ame      -8.579   8.093  64.473  0.00  0.00    -0.355 N 
ATOM     46  H46 non d ame      -8.646   8.082  65.481  0.00  0.00     0.162 HD
BRANCH  45  47
ATOM     47  C20 non d ame      -8.082   6.899  63.757  0.00  0.00     0.013 C 
ATOM     48  H30 non d ame      -8.573   6.862  62.785  0.00  0.00     0.072 H 
BRANCH  47  49
ATOM     49  C21 non d ame      -8.422   5.660  64.554  0.00  0.00    -0.038 C 
ATOM     50  H31 non d ame      -9.037   5.046  63.897  0.00  0.00     0.036 H 
ATOM     51  H32 non d ame      -7.470   5.278  64.925  0.00  0.00     0.036 H 
BRANCH  49  52
ATOM     52  C22 non d ame      -9.284   5.966  65.799  0.00  0.00     0.018 C 
ATOM     53  H33 non d ame      -9.366   7.052  65.841  0.00  0.00     0.048 H 
ATOM     54  H34 non d ame     -10.181   5.355  65.694  0.00  0.00     0.048 H 
BRANCH  52  55
ATOM     55  C23 non d ame      -8.626   5.534  67.138  0.00  0.00     0.259 C 
ATOM     56  O7  non d ame      -7.792   4.687  67.155  0.00  0.00    -0.265 OA
BRANCH  55  57
ATOM     57  O8  non d ame      -9.040   6.153  68.350  0.00  0.00    -0.317 OA
BRANCH  57  58
ATOM     58  C29 non d ame     -10.393   5.865  68.718  0.00  0.00     0.052 C 
ATOM     59  H47 non d ame     -10.981   6.009  67.812  0.00  0.00     0.082 H 
ATOM     60  H48 non d ame     -10.366   4.889  69.201  0.00  0.00     0.082 H 
BRANCH  58  61
ATOM     61  C35 non d ame     -10.838   6.919  69.766  0.00  0.00    -0.034 A 
ATOM     62  C30 non d ame     -10.461   8.250  69.619  0.00  0.00    -0.075 A 
ATOM     63  C31 non d ame     -10.861   9.197  70.561  0.00  0.00    -0.082 A 
ATOM     64  H49 non d ame      -9.853   8.552  68.767  0.00  0.00     0.084 H 
ATOM     65  C32 non d ame     -11.640   8.808  71.655  0.00  0.00    -0.083 A 
ATOM     66  H50 non d ame     -10.566  10.240  70.442  0.00  0.00     0.083 H 
ATOM     67  C33 non d ame     -12.011   7.478  71.798  0.00  0.00    -0.082 A 
ATOM     68  H51 non d ame     -11.957   9.542  72.395  0.00  0.00     0.083 H 
ATOM     69  C34 non d ame     -11.615   6.529  70.859  0.00  0.00    -0.075 A 
ATOM     70  H52 non d ame     -12.616   7.177  72.654  0.00  0.00     0.083 H 
ATOM     71  H53 non d ame     -11.911   5.486  70.978  0.00  0.00     0.084 H 
ENDBRANCH  58  61
ENDBRANCH  57  58
ENDBRANCH  55  57
ENDBRANCH  52  55
ENDBRANCH  49  52
ENDBRANCH  47  49
BRANCH  47  72
ATOM     72  C24 non d ame      -6.568   6.994  63.583  0.00  0.00    -0.039 C 
ATOM     73  H35 non d ame      -6.265   6.040  63.151  0.00  0.00     0.036 H 
ATOM     74  H36 non d ame      -6.396   7.920  63.034  0.00  0.00     0.036 H 
BRANCH  72  75
ATOM     75  C25 non d ame      -5.817   7.134  64.992  0.00  0.00    -0.001 C 
ATOM     76  C26 non d ame      -5.176   8.641  65.137  0.00  0.00    -0.035 C 
ATOM     77  C27 non d ame      -3.870   8.528  65.479  0.00  0.00     0.085 C 
ATOM     78  H38 non d ame      -5.144   9.129  64.163  0.00  0.00     0.036 H 
ATOM     79  H39 non d ame      -5.619   9.155  65.990  0.00  0.00     0.036 H 
ATOM     80  N5  non d ame      -3.479   7.087  65.260  0.00  0.00    -0.049 N 
ATOM     81  H40 non d ame      -3.328   9.155  64.769  0.00  0.00     0.075 H 
ATOM     82  H41 non d ame      -3.828   8.750  66.545  0.00  0.00     0.075 H 
ATOM     83  C28 non d ame      -4.863   6.271  65.100  0.00  0.00     0.193 C 
ATOM     84  H42 non d ame      -2.984   7.055  64.380  0.00  0.00     0.280 HD
ATOM     85  H43 non d ame      -3.022   6.782  66.108  0.00  0.00     0.280 HD
ATOM     86  H44 non d ame      -5.242   5.658  65.919  0.00  0.00     0.129 H 
ATOM     87  H37 non d ame      -6.425   6.771  65.821  0.00  0.00     0.046 H 
BRANCH  83  88
ATOM     88  O6  non d ame      -4.793   5.398  63.971  0.00  0.00    -0.369 OA
ATOM     89  H45 non d ame      -3.984   5.569  63.485  0.00  0.00     0.212 HD
ENDBRANCH  83  88
ENDBRANCH  72  75
ENDBRANCH  47  72
ENDBRANCH  45  47
ENDBRANCH   1  43
BRANCH   1  90
ATOM     90  C16 non d ame      -9.766  11.677  63.432  0.00  0.00    -0.035 C 
ATOM     91  H21 non d ame      -8.874  12.304  63.452  0.00  0.00     0.037 H 
ATOM     92  H22 non d ame     -10.052  11.168  62.512  0.00  0.00     0.037 H 
BRANCH  90  93
ATOM     93  C17 non d ame     -10.965  12.601  63.816  0.00  0.00    -0.059 C 
ATOM     94  H23 non d ame     -11.364  13.025  62.895  0.00  0.00     0.038 H 
BRANCH  93  95
ATOM     95  C18 non d ame     -12.117  11.812  64.516  0.00  0.00    -0.073 C 
ATOM     96  H24 non d ame     -12.868  11.535  63.777  0.00  0.00     0.028 H 
ATOM     97  H25 non d ame     -11.712  10.911  64.978  0.00  0.00     0.028 H 
ATOM     98  H26 non d ame     -12.574  12.439  65.282  0.00  0.00     0.028 H 
ENDBRANCH  93  95
BRANCH  93  99
ATOM     99  C19 non d ame     -10.497  13.769  64.689  0.00  0.00    -0.073 C 
ATOM    100  H27 non d ame     -10.083  14.554  64.055  0.00  0.00     0.028 H 
ATOM    101  H28 non d ame     -11.343  14.165  65.251  0.00  0.00     0.028 H 
ATOM    102  H29 non d ame      -9.732  13.421  65.382  0.00  0.00     0.028 H 
ENDBRANCH  93  99
ENDBRANCH  90  93
ENDBRANCH   1  90
TORSDOF 26
ENDMDL
MODEL 16
REMARK VINA RESULT:      -5.9      2.963      8.923
REMARK  26 active torsions:
REMARK  status: ('A' for Active; 'I' for Inactive)
REMARK    1  A    between atoms: C2_2  and  C3_3 
REMARK    2  A    between atoms: C4_6  and  C5_7 
REMARK       I    between atoms: C5_7  and  N2_9 
REMARK    3  A    between atoms: N2_9  and  C6_10 
REMARK    4  A    between atoms: C6_10  and  C7_11 
REMARK    5  A    between atoms: C6_10  and  C8_13 
REMARK       I    between atoms: C7_11  and  N3_14 
REMARK    6  A    between atoms: N3_14  and  C9_15 
REMARK    7  A    between atoms: C9_15  and  C10_16 
REMARK    8  A    between atoms: C9_15  and  C11_18 
REMARK       I    between atoms: C10_16  and  N4_21 
REMARK    9  A    between atoms: C11_18  and  C12_19 
REMARK   10  A    between atoms: C11_18  and  C13_20 
REMARK   11  A    between atoms: N4_21  and  C14_22 
REMARK   12  A    between atoms: C14_22  and  C15_23 
REMARK   13  A    between atoms: C14_22  and  C16_25 
REMARK       I    between atoms: C15_23  and  N6_40 
REMARK   14  A    between atoms: C16_25  and  C17_26 
REMARK   15  A    between atoms: C17_26  and  C18_27 
REMARK   16  A    between atoms: C17_26  and  C19_28 
REMARK   17  A    between atoms: C20_29  and  C21_30 
REMARK   18  A    between atoms: C20_29  and  C24_33 
REMARK   19  A    between atoms: C20_29  and  N6_40 
REMARK   20  A    between atoms: C21_30  and  C22_31 
REMARK   21  A    between atoms: C22_31  and  C23_32 
REMARK   22  A    between atoms: C23_32  and  O8_43 
REMARK   23  A    between atoms: C24_33  and  C25_34 
REMARK   24  A    between atoms: C28_38  and  O6_39 
REMARK   25  A    between atoms: C29_42  and  O8_43 
REMARK   26  A    between atoms: C29_42  and  C35_49 
ROOT
ATOM      1  C14 non d ame      -6.773   9.897  65.578  0.00  0.00     0.089 C 
ATOM      2  H20 non d ame      -5.951  10.072  66.273  0.00  0.00     0.087 H 
ENDROOT
BRANCH   1   3
ATOM      3  N4  non d ame      -7.021   8.463  65.546  0.00  0.00    -0.346 N 
ATOM      4  C10 non d ame      -6.122   7.518  66.302  0.00  0.00     0.241 C 
ATOM      5  O4  non d ame      -5.204   7.934  66.928  0.00  0.00    -0.271 OA
ATOM      6  H19 non d ame      -7.806   8.129  65.005  0.00  0.00     0.163 HD
BRANCH   4   7
ATOM      7  C9  non d ame      -6.397   6.037  66.262  0.00  0.00     0.092 C 
ATOM      8  H11 non d ame      -5.925   5.562  67.123  0.00  0.00     0.088 H 
BRANCH   7   9
ATOM      9  N3  non d ame      -7.840   5.804  66.375  0.00  0.00    -0.346 N 
ATOM     10  C7  non d ame      -8.356   4.982  67.442  0.00  0.00     0.240 C 
ATOM     11  O3  non d ame      -7.624   4.500  68.217  0.00  0.00    -0.271 OA
ATOM     12  H10 non d ame      -8.483   6.212  65.712  0.00  0.00     0.163 HD
BRANCH  10  13
ATOM     13  C6  non d ame      -9.892   4.735  67.554  0.00  0.00     0.086 C 
ATOM     14  H6  non d ame     -10.134   3.831  68.112  0.00  0.00     0.086 H 
BRANCH  13  15
ATOM     15  N2  non d ame     -10.496   5.843  68.276  0.00  0.00    -0.343 N 
ATOM     16  C5  non d ame     -10.633   5.767  69.732  0.00  0.00     0.273 C 
ATOM     17  O2  non d ame     -10.257   4.808  70.313  0.00  0.00    -0.266 OA
ATOM     18  H5  non d ame     -10.817   6.657  67.771  0.00  0.00     0.163 HD
BRANCH  16  19
ATOM     19  C4  non d ame     -11.268   6.931  70.507  0.00  0.00     0.154 A 
ATOM     20  C1  non d ame     -12.584   6.981  71.069  0.00  0.00    -0.017 A 
ATOM     21  C2  non d ame     -12.674   8.256  71.671  0.00  0.00     0.077 A 
ATOM     22  H1  non d ame     -13.354   6.210  71.044  0.00  0.00     0.091 H 
ATOM     23  O1  non d ame     -11.538   8.859  71.473  0.00  0.00    -0.218 OA
ATOM     24  N1  non d ame     -10.702   8.106  70.797  0.00  0.00    -0.123 NA
BRANCH  21  25
ATOM     25  C3  non d ame     -13.878   8.819  72.414  0.00  0.00    -0.029 C 
ATOM     26  H2  non d ame     -14.795   8.452  71.951  0.00  0.00     0.036 H 
ATOM     27  H3  non d ame     -13.844   8.499  73.455  0.00  0.00     0.036 H 
ATOM     28  H4  non d ame     -13.858   9.908  72.367  0.00  0.00     0.036 H 
ENDBRANCH  21  25
ENDBRANCH  16  19
ENDBRANCH  13  15
BRANCH  13  29
ATOM     29  C8  non d ame     -10.490   4.631  66.174  0.00  0.00    -0.049 C 
ATOM     30  H7  non d ame     -10.487   3.589  65.854  0.00  0.00     0.030 H 
ATOM     31  H8  non d ame     -11.514   5.003  66.192  0.00  0.00     0.030 H 
ATOM     32  H9  non d ame      -9.899   5.225  65.477  0.00  0.00     0.030 H 
ENDBRANCH  13  29
ENDBRANCH  10  13
ENDBRANCH   7   9
BRANCH   7  33
ATOM     33  C11 non d ame      -5.883   5.451  64.915  0.00  0.00    -0.033 C 
ATOM     34  H12 non d ame      -5.848   4.366  65.020  0.00  0.00     0.042 H 
BRANCH  33  35
ATOM     35  C12 non d ame      -6.860   5.777  63.743  0.00  0.00    -0.071 C 
ATOM     36  H13 non d ame      -6.780   6.833  63.486  0.00  0.00     0.028 H 
ATOM     37  H14 non d ame      -6.601   5.171  62.875  0.00  0.00     0.028 H 
ATOM     38  H15 non d ame      -7.882   5.554  64.050  0.00  0.00     0.028 H 
ENDBRANCH  33  35
BRANCH  33  39
ATOM     39  C13 non d ame      -4.436   5.952  64.602  0.00  0.00    -0.071 C 
ATOM     40  H16 non d ame      -4.014   6.421  65.490  0.00  0.00     0.028 H 
ATOM     41  H17 non d ame      -3.814   5.107  64.307  0.00  0.00     0.028 H 
ATOM     42  H18 non d ame      -4.472   6.678  63.790  0.00  0.00     0.028 H 
ENDBRANCH  33  39
ENDBRANCH   7  33
ENDBRANCH   4   7
ENDBRANCH   1   3
BRANCH   1  43
ATOM     43  C15 non d ame      -8.079  10.615  66.021  0.00  0.00     0.240 C 
ATOM     44  O5  non d ame      -9.075   9.986  66.180  0.00  0.00    -0.271 OA
ATOM     45  N6  non d ame      -8.087  12.088  66.256  0.00  0.00    -0.355 N 
ATOM     46  H46 non d ame      -7.246  12.632  66.129  0.00  0.00     0.162 HD
BRANCH  45  47
ATOM     47  C20 non d ame      -9.337  12.756  66.678  0.00  0.00     0.013 C 
ATOM     48  H30 non d ame     -10.134  12.429  66.010  0.00  0.00     0.072 H 
BRANCH  47  49
ATOM     49  C21 non d ame      -9.161  14.254  66.579  0.00  0.00    -0.038 C 
ATOM     50  H31 non d ame      -8.480  14.416  65.743  0.00  0.00     0.036 H 
ATOM     51  H32 non d ame     -10.169  14.667  66.549  0.00  0.00     0.036 H 
BRANCH  49  52
ATOM     52  C22 non d ame      -8.477  14.861  67.823  0.00  0.00     0.018 C 
ATOM     53  H33 non d ame      -9.003  15.795  68.024  0.00  0.00     0.048 H 
ATOM     54  H34 non d ame      -8.469  14.068  68.572  0.00  0.00     0.048 H 
BRANCH  52  55
ATOM     55  C23 non d ame      -6.989  15.248  67.594  0.00  0.00     0.259 C 
ATOM     56  O7  non d ame      -6.184  14.416  67.326  0.00  0.00    -0.265 OA
BRANCH  55  57
ATOM     57  O8  non d ame      -6.596  16.609  67.720  0.00  0.00    -0.317 OA
BRANCH  57  58
ATOM     58  C29 non d ame      -6.981  17.431  66.615  0.00  0.00     0.052 C 
ATOM     59  H47 non d ame      -6.108  18.042  66.384  0.00  0.00     0.082 H 
ATOM     60  H48 non d ame      -7.383  16.749  65.866  0.00  0.00     0.082 H 
BRANCH  58  61
ATOM     61  C35 non d ame      -8.124  18.367  67.090  0.00  0.00    -0.034 A 
ATOM     62  C30 non d ame      -8.385  18.515  68.449  0.00  0.00    -0.075 A 
ATOM     63  C31 non d ame      -9.411  19.356  68.876  0.00  0.00    -0.082 A 
ATOM     64  H49 non d ame      -7.784  17.972  69.179  0.00  0.00     0.084 H 
ATOM     65  C32 non d ame     -10.181  20.049  67.938  0.00  0.00    -0.083 A 
ATOM     66  H50 non d ame      -9.611  19.471  69.941  0.00  0.00     0.083 H 
ATOM     67  C33 non d ame      -9.920  19.896  66.583  0.00  0.00    -0.082 A 
ATOM     68  H51 non d ame     -10.985  20.709  68.263  0.00  0.00     0.083 H 
ATOM     69  C34 non d ame      -8.893  19.058  66.152  0.00  0.00    -0.075 A 
ATOM     70  H52 non d ame     -10.524  20.437  65.854  0.00  0.00     0.083 H 
ATOM     71  H53 non d ame      -8.693  18.944  65.086  0.00  0.00     0.084 H 
ENDBRANCH  58  61
ENDBRANCH  57  58
ENDBRANCH  55  57
ENDBRANCH  52  55
ENDBRANCH  49  52
ENDBRANCH  47  49
BRANCH  47  72
ATOM     72  C24 non d ame      -9.664  12.375  68.121  0.00  0.00    -0.039 C 
ATOM     73  H35 non d ame      -9.346  11.338  68.226  0.00  0.00     0.036 H 
ATOM     74  H36 non d ame      -9.208  13.150  68.736  0.00  0.00     0.036 H 
BRANCH  72  75
ATOM     75  C25 non d ame     -11.241  12.416  68.401  0.00  0.00    -0.001 C 
ATOM     76  C26 non d ame     -11.581  13.576  69.516  0.00  0.00    -0.035 C 
ATOM     77  C27 non d ame     -12.338  13.030  70.498  0.00  0.00     0.085 C 
ATOM     78  H38 non d ame     -10.670  13.876  70.033  0.00  0.00     0.036 H 
ATOM     79  H39 non d ame     -12.236  14.332  69.081  0.00  0.00     0.036 H 
ATOM     80  N5  non d ame     -12.270  11.532  70.325  0.00  0.00    -0.049 N 
ATOM     81  H40 non d ame     -11.844  13.302  71.432  0.00  0.00     0.075 H 
ATOM     82  H41 non d ame     -13.356  13.364  70.301  0.00  0.00     0.075 H 
ATOM     83  C28 non d ame     -11.666  11.282  68.848  0.00  0.00     0.193 C 
ATOM     84  H42 non d ame     -11.605  11.194  71.006  0.00  0.00     0.280 HD
ATOM     85  H43 non d ame     -13.224  11.198  70.342  0.00  0.00     0.280 HD
ATOM     86  H44 non d ame     -12.316  10.977  68.028  0.00  0.00     0.129 H 
ATOM     87  H37 non d ame     -11.824  12.427  67.480  0.00  0.00     0.046 H 
BRANCH  83  88
ATOM     88  O6  non d ame     -10.629  10.300  68.900  0.00  0.00    -0.369 OA
ATOM     89  H45 non d ame     -10.679   9.826  69.733  0.00  0.00     0.212 HD
ENDBRANCH  83  88
ENDBRANCH  72  75
ENDBRANCH  47  72
ENDBRANCH  45  47
ENDBRANCH   1  43
BRANCH   1  90
ATOM     90  C16 non d ame      -6.379  10.364  64.186  0.00  0.00    -0.035 C 
ATOM     91  H21 non d ame      -7.079  11.164  63.941  0.00  0.00     0.037 H 
ATOM     92  H22 non d ame      -5.311  10.573  64.243  0.00  0.00     0.037 H 
BRANCH  90  93
ATOM     93  C17 non d ame      -6.557   9.270  63.085  0.00  0.00    -0.059 C 
ATOM     94  H23 non d ame      -6.965   8.381  63.564  0.00  0.00     0.038 H 
BRANCH  93  95
ATOM     95  C18 non d ame      -7.558   9.713  61.970  0.00  0.00    -0.073 C 
ATOM     96  H24 non d ame      -8.508   9.992  62.426  0.00  0.00     0.028 H 
ATOM     97  H25 non d ame      -7.148  10.568  61.432  0.00  0.00     0.028 H 
ATOM     98  H26 non d ame      -7.717   8.888  61.276  0.00  0.00     0.028 H 
ENDBRANCH  93  95
BRANCH  93  99
ATOM     99  C19 non d ame      -5.206   8.880  62.479  0.00  0.00    -0.073 C 
ATOM    100  H27 non d ame      -5.218   9.076  61.406  0.00  0.00     0.028 H 
ATOM    101  H28 non d ame      -4.415   9.468  62.947  0.00  0.00     0.028 H 
ATOM    102  H29 non d ame      -5.022   7.821  62.653  0.00  0.00     0.028 H 
ENDBRANCH  93  99
ENDBRANCH  90  93
ENDBRANCH   1  90
TORSDOF 26
ENDMDL
MODEL 17
REMARK VINA RESULT:      -5.9      2.924      5.687
REMARK  26 active torsions:
REMARK  status: ('A' for Active; 'I' for Inactive)
REMARK    1  A    between atoms: C2_2  and  C3_3 
REMARK    2  A    between atoms: C4_6  and  C5_7 
REMARK       I    between atoms: C5_7  and  N2_9 
REMARK    3  A    between atoms: N2_9  and  C6_10 
REMARK    4  A    between atoms: C6_10  and  C7_11 
REMARK    5  A    between atoms: C6_10  and  C8_13 
REMARK       I    between atoms: C7_11  and  N3_14 
REMARK    6  A    between atoms: N3_14  and  C9_15 
REMARK    7  A    between atoms: C9_15  and  C10_16 
REMARK    8  A    between atoms: C9_15  and  C11_18 
REMARK       I    between atoms: C10_16  and  N4_21 
REMARK    9  A    between atoms: C11_18  and  C12_19 
REMARK   10  A    between atoms: C11_18  and  C13_20 
REMARK   11  A    between atoms: N4_21  and  C14_22 
REMARK   12  A    between atoms: C14_22  and  C15_23 
REMARK   13  A    between atoms: C14_22  and  C16_25 
REMARK       I    between atoms: C15_23  and  N6_40 
REMARK   14  A    between atoms: C16_25  and  C17_26 
REMARK   15  A    between atoms: C17_26  and  C18_27 
REMARK   16  A    between atoms: C17_26  and  C19_28 
REMARK   17  A    between atoms: C20_29  and  C21_30 
REMARK   18  A    between atoms: C20_29  and  C24_33 
REMARK   19  A    between atoms: C20_29  and  N6_40 
REMARK   20  A    between atoms: C21_30  and  C22_31 
REMARK   21  A    between atoms: C22_31  and  C23_32 
REMARK   22  A    between atoms: C23_32  and  O8_43 
REMARK   23  A    between atoms: C24_33  and  C25_34 
REMARK   24  A    between atoms: C28_38  and  O6_39 
REMARK   25  A    between atoms: C29_42  and  O8_43 
REMARK   26  A    between atoms: C29_42  and  C35_49 
ROOT
ATOM      1  C14 non d ame      -8.437   5.692  68.627  0.00  0.00     0.089 C 
ATOM      2  H20 non d ame      -7.500   6.170  68.915  0.00  0.00     0.087 H 
ENDROOT
BRANCH   1   3
ATOM      3  N4  non d ame      -9.212   5.478  69.840  0.00  0.00    -0.346 N 
ATOM      4  C10 non d ame      -8.809   6.148  71.129  0.00  0.00     0.241 C 
ATOM      5  O4  non d ame      -7.855   6.853  71.167  0.00  0.00    -0.271 OA
ATOM      6  H19 non d ame     -10.019   4.873  69.787  0.00  0.00     0.163 HD
BRANCH   4   7
ATOM      7  C9  non d ame      -9.626   5.920  72.374  0.00  0.00     0.092 C 
ATOM      8  H11 non d ame      -8.975   5.980  73.246  0.00  0.00     0.088 H 
BRANCH   7   9
ATOM      9  N3  non d ame     -10.625   6.984  72.505  0.00  0.00    -0.346 N 
ATOM     10  C7  non d ame     -11.691   7.095  71.539  0.00  0.00     0.240 C 
ATOM     11  O3  non d ame     -11.758   6.336  70.650  0.00  0.00    -0.271 OA
ATOM     12  H10 non d ame     -10.579   7.647  73.266  0.00  0.00     0.163 HD
BRANCH  10  13
ATOM     13  C6  non d ame     -12.750   8.231  71.682  0.00  0.00     0.086 C 
ATOM     14  H6  non d ame     -12.739   8.696  72.668  0.00  0.00     0.086 H 
BRANCH  13  15
ATOM     15  N2  non d ame     -12.447   9.281  70.724  0.00  0.00    -0.343 N 
ATOM     16  C5  non d ame     -12.677  10.681  71.090  0.00  0.00     0.273 C 
ATOM     17  O2  non d ame     -13.109  10.951  72.157  0.00  0.00    -0.266 OA
ATOM     18  H5  non d ame     -12.080   9.041  69.814  0.00  0.00     0.163 HD
BRANCH  16  19
ATOM     19  C4  non d ame     -12.360  11.801  70.088  0.00  0.00     0.154 A 
ATOM     20  C1  non d ame     -12.254  13.202  70.361  0.00  0.00    -0.017 A 
ATOM     21  C2  non d ame     -11.949  13.793  69.115  0.00  0.00     0.077 A 
ATOM     22  H1  non d ame     -12.379  13.711  71.317  0.00  0.00     0.091 H 
ATOM     23  O1  non d ame     -11.888  12.836  68.236  0.00  0.00    -0.218 OA
ATOM     24  N1  non d ame     -12.124  11.664  68.780  0.00  0.00    -0.123 NA
BRANCH  21  25
ATOM     25  C3  non d ame     -11.731  15.277  68.851  0.00  0.00    -0.029 C 
ATOM     26  H2  non d ame     -11.580  15.797  69.797  0.00  0.00     0.036 H 
ATOM     27  H3  non d ame     -10.852  15.409  68.219  0.00  0.00     0.036 H 
ATOM     28  H4  non d ame     -12.605  15.689  68.346  0.00  0.00     0.036 H 
ENDBRANCH  21  25
ENDBRANCH  16  19
ENDBRANCH  13  15
BRANCH  13  29
ATOM     29  C8  non d ame     -14.127   7.675  71.421  0.00  0.00    -0.049 C 
ATOM     30  H7  non d ame     -14.055   6.607  71.219  0.00  0.00     0.030 H 
ATOM     31  H8  non d ame     -14.756   7.838  72.295  0.00  0.00     0.030 H 
ATOM     32  H9  non d ame     -14.564   8.179  70.559  0.00  0.00     0.030 H 
ENDBRANCH  13  29
ENDBRANCH  10  13
ENDBRANCH   7   9
BRANCH   7  33
ATOM     33  C11 non d ame     -10.347   4.544  72.275  0.00  0.00    -0.033 C 
ATOM     34  H12 non d ame     -10.997   4.575  71.401  0.00  0.00     0.042 H 
BRANCH  33  35
ATOM     35  C12 non d ame      -9.328   3.382  72.061  0.00  0.00    -0.071 C 
ATOM     36  H13 non d ame      -8.908   3.085  73.023  0.00  0.00     0.028 H 
ATOM     37  H14 non d ame      -9.838   2.530  71.610  0.00  0.00     0.028 H 
ATOM     38  H15 non d ame      -8.528   3.718  71.403  0.00  0.00     0.028 H 
ENDBRANCH  33  35
BRANCH  33  39
ATOM     39  C13 non d ame     -11.240   4.290  73.532  0.00  0.00    -0.071 C 
ATOM     40  H16 non d ame     -11.406   5.230  74.056  0.00  0.00     0.028 H 
ATOM     41  H17 non d ame     -12.199   3.874  73.219  0.00  0.00     0.028 H 
ATOM     42  H18 non d ame     -10.740   3.586  74.197  0.00  0.00     0.028 H 
ENDBRANCH  33  39
ENDBRANCH   7  33
ENDBRANCH   4   7
ENDBRANCH   1   3
BRANCH   1  43
ATOM     43  C15 non d ame      -9.271   6.576  67.655  0.00  0.00     0.240 C 
ATOM     44  O5  non d ame     -10.442   6.399  67.553  0.00  0.00    -0.271 OA
ATOM     45  N6  non d ame      -8.611   7.649  66.859  0.00  0.00    -0.355 N 
ATOM     46  H46 non d ame      -7.618   7.812  66.940  0.00  0.00     0.162 HD
BRANCH  45  47
ATOM     47  C20 non d ame      -9.418   8.482  65.941  0.00  0.00     0.013 C 
ATOM     48  H30 non d ame     -10.307   7.914  65.666  0.00  0.00     0.072 H 
BRANCH  47  49
ATOM     49  C21 non d ame      -8.605   8.797  64.706  0.00  0.00    -0.038 C 
ATOM     50  H31 non d ame      -8.961   8.114  63.935  0.00  0.00     0.036 H 
ATOM     51  H32 non d ame      -8.693   9.874  64.563  0.00  0.00     0.036 H 
BRANCH  49  52
ATOM     52  C22 non d ame      -7.100   8.502  64.888  0.00  0.00     0.018 C 
ATOM     53  H33 non d ame      -6.606   9.474  64.886  0.00  0.00     0.048 H 
ATOM     54  H34 non d ame      -7.029   7.858  65.765  0.00  0.00     0.048 H 
BRANCH  52  55
ATOM     55  C23 non d ame      -6.472   7.700  63.715  0.00  0.00     0.259 C 
ATOM     56  O7  non d ame      -5.840   8.254  62.875  0.00  0.00    -0.265 OA
BRANCH  55  57
ATOM     57  O8  non d ame      -6.672   6.293  63.648  0.00  0.00    -0.317 OA
BRANCH  57  58
ATOM     58  C29 non d ame      -7.404   5.863  62.497  0.00  0.00     0.052 C 
ATOM     59  H47 non d ame      -7.780   6.774  62.029  0.00  0.00     0.082 H 
ATOM     60  H48 non d ame      -6.731   5.206  61.947  0.00  0.00     0.082 H 
BRANCH  58  61
ATOM     61  C35 non d ame      -8.617   5.026  62.985  0.00  0.00    -0.034 A 
ATOM     62  C30 non d ame      -9.358   4.278  62.077  0.00  0.00    -0.075 A 
ATOM     63  C31 non d ame     -10.447   3.527  62.515  0.00  0.00    -0.082 A 
ATOM     64  H49 non d ame      -9.086   4.281  61.021  0.00  0.00     0.084 H 
ATOM     65  C32 non d ame     -10.795   3.527  63.869  0.00  0.00    -0.083 A 
ATOM     66  H50 non d ame     -11.025   2.940  61.801  0.00  0.00     0.083 H 
ATOM     67  C33 non d ame     -10.054   4.277  64.771  0.00  0.00    -0.082 A 
ATOM     68  H51 non d ame     -11.645   2.941  64.220  0.00  0.00     0.083 H 
ATOM     69  C34 non d ame      -8.964   5.028  64.338  0.00  0.00    -0.075 A 
ATOM     70  H52 non d ame     -10.330   4.277  65.826  0.00  0.00     0.083 H 
ATOM     71  H53 non d ame      -8.386   5.614  65.053  0.00  0.00     0.084 H 
ENDBRANCH  58  61
ENDBRANCH  57  58
ENDBRANCH  55  57
ENDBRANCH  52  55
ENDBRANCH  49  52
ENDBRANCH  47  49
BRANCH  47  72
ATOM     72  C24 non d ame      -9.814   9.783  66.636  0.00  0.00    -0.039 C 
ATOM     73  H35 non d ame     -10.866   9.934  66.391  0.00  0.00     0.036 H 
ATOM     74  H36 non d ame      -9.509   9.660  67.676  0.00  0.00     0.036 H 
BRANCH  72  75
ATOM     75  C25 non d ame      -9.007  11.037  66.052  0.00  0.00    -0.001 C 
ATOM     76  C26 non d ame      -8.016  11.654  67.210  0.00  0.00    -0.035 C 
ATOM     77  C27 non d ame      -8.232  12.988  67.303  0.00  0.00     0.085 C 
ATOM     78  H38 non d ame      -8.309  11.280  68.191  0.00  0.00     0.036 H 
ATOM     79  H39 non d ame      -6.977  11.586  66.889  0.00  0.00     0.036 H 
ATOM     80  N5  non d ame      -9.505  13.283  66.548  0.00  0.00    -0.049 N 
ATOM     81  H40 non d ame      -8.394  13.185  68.363  0.00  0.00     0.075 H 
ATOM     82  H41 non d ame      -7.395  13.455  66.784  0.00  0.00     0.075 H 
ATOM     83  C28 non d ame      -9.810  11.969  65.661  0.00  0.00     0.193 C 
ATOM     84  H42 non d ame     -10.233  13.380  67.241  0.00  0.00     0.280 HD
ATOM     85  H43 non d ame      -9.297  14.050  65.924  0.00  0.00     0.280 HD
ATOM     86  H44 non d ame      -9.612  11.966  64.589  0.00  0.00     0.129 H 
ATOM     87  H37 non d ame      -8.561  10.824  65.080  0.00  0.00     0.046 H 
BRANCH  83  88
ATOM     88  O6  non d ame     -11.181  11.591  65.797  0.00  0.00    -0.369 OA
ATOM     89  H45 non d ame     -11.479  11.173  64.986  0.00  0.00     0.212 HD
ENDBRANCH  83  88
ENDBRANCH  72  75
ENDBRANCH  47  72
ENDBRANCH  45  47
ENDBRANCH   1  43
BRANCH   1  90
ATOM     90  C16 non d ame      -8.151   4.348  67.977  0.00  0.00    -0.035 C 
ATOM     91  H21 non d ame      -8.590   3.606  68.644  0.00  0.00     0.037 H 
ATOM     92  H22 non d ame      -8.512   4.440  66.952  0.00  0.00     0.037 H 
BRANCH  90  93
ATOM     93  C17 non d ame      -6.629   4.009  67.880  0.00  0.00    -0.059 C 
ATOM     94  H23 non d ame      -6.107   4.621  68.616  0.00  0.00     0.038 H 
BRANCH  93  95
ATOM     95  C18 non d ame      -6.337   2.511  68.212  0.00  0.00    -0.073 C 
ATOM     96  H24 non d ame      -7.267   2.010  68.478  0.00  0.00     0.028 H 
ATOM     97  H25 non d ame      -5.898   2.025  67.340  0.00  0.00     0.028 H 
ATOM     98  H26 non d ame      -5.640   2.454  69.049  0.00  0.00     0.028 H 
ENDBRANCH  93  95
BRANCH  93  99
ATOM     99  C19 non d ame      -6.073   4.381  66.503  0.00  0.00    -0.073 C 
ATOM    100  H27 non d ame      -5.831   5.444  66.484  0.00  0.00     0.028 H 
ATOM    101  H28 non d ame      -5.172   3.799  66.307  0.00  0.00     0.028 H 
ATOM    102  H29 non d ame      -6.819   4.163  65.739  0.00  0.00     0.028 H 
ENDBRANCH  93  99
ENDBRANCH  90  93
ENDBRANCH   1  90
TORSDOF 26
ENDMDL
MODEL 18
REMARK VINA RESULT:      -5.8      3.155      8.617
REMARK  26 active torsions:
REMARK  status: ('A' for Active; 'I' for Inactive)
REMARK    1  A    between atoms: C2_2  and  C3_3 
REMARK    2  A    between atoms: C4_6  and  C5_7 
REMARK       I    between atoms: C5_7  and  N2_9 
REMARK    3  A    between atoms: N2_9  and  C6_10 
REMARK    4  A    between atoms: C6_10  and  C7_11 
REMARK    5  A    between atoms: C6_10  and  C8_13 
REMARK       I    between atoms: C7_11  and  N3_14 
REMARK    6  A    between atoms: N3_14  and  C9_15 
REMARK    7  A    between atoms: C9_15  and  C10_16 
REMARK    8  A    between atoms: C9_15  and  C11_18 
REMARK       I    between atoms: C10_16  and  N4_21 
REMARK    9  A    between atoms: C11_18  and  C12_19 
REMARK   10  A    between atoms: C11_18  and  C13_20 
REMARK   11  A    between atoms: N4_21  and  C14_22 
REMARK   12  A    between atoms: C14_22  and  C15_23 
REMARK   13  A    between atoms: C14_22  and  C16_25 
REMARK       I    between atoms: C15_23  and  N6_40 
REMARK   14  A    between atoms: C16_25  and  C17_26 
REMARK   15  A    between atoms: C17_26  and  C18_27 
REMARK   16  A    between atoms: C17_26  and  C19_28 
REMARK   17  A    between atoms: C20_29  and  C21_30 
REMARK   18  A    between atoms: C20_29  and  C24_33 
REMARK   19  A    between atoms: C20_29  and  N6_40 
REMARK   20  A    between atoms: C21_30  and  C22_31 
REMARK   21  A    between atoms: C22_31  and  C23_32 
REMARK   22  A    between atoms: C23_32  and  O8_43 
REMARK   23  A    between atoms: C24_33  and  C25_34 
REMARK   24  A    between atoms: C28_38  and  O6_39 
REMARK   25  A    between atoms: C29_42  and  O8_43 
REMARK   26  A    between atoms: C29_42  and  C35_49 
ROOT
ATOM      1  C14 non d ame      -8.339   6.617  66.989  0.00  0.00     0.089 C 
ATOM      2  H20 non d ame      -8.651   5.753  66.401  0.00  0.00     0.087 H 
ENDROOT
BRANCH   1   3
ATOM      3  N4  non d ame      -8.462   7.793  66.141  0.00  0.00    -0.346 N 
ATOM      4  C10 non d ame      -8.245   7.684  64.653  0.00  0.00     0.241 C 
ATOM      5  O4  non d ame      -7.968   6.640  64.161  0.00  0.00    -0.271 OA
ATOM      6  H19 non d ame      -8.695   8.673  66.579  0.00  0.00     0.163 HD
BRANCH   4   7
ATOM      7  C9  non d ame      -8.382   8.911  63.789  0.00  0.00     0.092 C 
ATOM      8  H11 non d ame      -8.831   8.630  62.837  0.00  0.00     0.088 H 
BRANCH   7   9
ATOM      9  N3  non d ame      -9.291   9.864  64.433  0.00  0.00    -0.346 N 
ATOM     10  C7  non d ame      -9.845  10.957  63.673  0.00  0.00     0.240 C 
ATOM     11  O3  non d ame      -9.569  11.086  62.543  0.00  0.00    -0.271 OA
ATOM     12  H10 non d ame      -9.537   9.766  65.408  0.00  0.00     0.163 HD
BRANCH  10  13
ATOM     13  C6  non d ame     -10.809  11.970  64.365  0.00  0.00     0.086 C 
ATOM     14  H6  non d ame     -11.126  11.641  65.355  0.00  0.00     0.086 H 
BRANCH  13  15
ATOM     15  N2  non d ame     -10.114  13.233  64.549  0.00  0.00    -0.343 N 
ATOM     16  C5  non d ame     -10.465  14.091  65.683  0.00  0.00     0.273 C 
ATOM     17  O2  non d ame     -11.311  13.758  66.439  0.00  0.00    -0.266 OA
ATOM     18  H5  non d ame      -9.394  13.511  63.897  0.00  0.00     0.163 HD
BRANCH  16  19
ATOM     19  C4  non d ame      -9.737  15.428  65.891  0.00  0.00     0.154 A 
ATOM     20  C1  non d ame      -8.492  15.640  66.564  0.00  0.00    -0.017 A 
ATOM     21  C2  non d ame      -8.265  17.031  66.479  0.00  0.00     0.077 A 
ATOM     22  H1  non d ame      -7.853  14.897  67.041  0.00  0.00     0.091 H 
ATOM     23  O1  non d ame      -9.266  17.549  65.830  0.00  0.00    -0.218 OA
ATOM     24  N1  non d ame     -10.139  16.633  65.476  0.00  0.00    -0.123 NA
BRANCH  21  25
ATOM     25  C3  non d ame      -7.067  17.785  67.043  0.00  0.00    -0.029 C 
ATOM     26  H2  non d ame      -7.414  18.663  67.589  0.00  0.00     0.036 H 
ATOM     27  H3  non d ame      -6.513  17.133  67.717  0.00  0.00     0.036 H 
ATOM     28  H4  non d ame      -6.418  18.099  66.225  0.00  0.00     0.036 H 
ENDBRANCH  21  25
ENDBRANCH  16  19
ENDBRANCH  13  15
BRANCH  13  29
ATOM     29  C8  non d ame     -12.030  12.173  63.505  0.00  0.00    -0.049 C 
ATOM     30  H7  non d ame     -12.869  12.480  64.130  0.00  0.00     0.030 H 
ATOM     31  H8  non d ame     -11.828  12.946  62.764  0.00  0.00     0.030 H 
ATOM     32  H9  non d ame     -12.278  11.240  62.999  0.00  0.00     0.030 H 
ENDBRANCH  13  29
ENDBRANCH  10  13
ENDBRANCH   7   9
BRANCH   7  33
ATOM     33  C11 non d ame      -6.985   9.574  63.605  0.00  0.00    -0.033 C 
ATOM     34  H12 non d ame      -7.134  10.654  63.584  0.00  0.00     0.042 H 
BRANCH  33  35
ATOM     35  C12 non d ame      -6.041   9.254  64.806  0.00  0.00    -0.071 C 
ATOM     36  H13 non d ame      -6.095   8.190  65.036  0.00  0.00     0.028 H 
ATOM     37  H14 non d ame      -5.017   9.517  64.542  0.00  0.00     0.028 H 
ATOM     38  H15 non d ame      -6.352   9.831  65.676  0.00  0.00     0.028 H 
ENDBRANCH  33  35
BRANCH  33  39
ATOM     39  C13 non d ame      -6.339   9.149  62.247  0.00  0.00    -0.071 C 
ATOM     40  H16 non d ame      -6.050  10.039  61.688  0.00  0.00     0.028 H 
ATOM     41  H17 non d ame      -5.457   8.538  62.440  0.00  0.00     0.028 H 
ATOM     42  H18 non d ame      -7.060   8.573  61.667  0.00  0.00     0.028 H 
ENDBRANCH  33  39
ENDBRANCH   7  33
ENDBRANCH   4   7
ENDBRANCH   1   3
BRANCH   1  43
ATOM     43  C15 non d ame      -9.227   6.820  68.250  0.00  0.00     0.240 C 
ATOM     44  O5  non d ame     -10.390   7.032  68.126  0.00  0.00    -0.271 OA
ATOM     45  N6  non d ame      -8.629   6.742  69.613  0.00  0.00    -0.355 N 
ATOM     46  H46 non d ame      -7.643   6.558  69.732  0.00  0.00     0.162 HD
BRANCH  45  47
ATOM     47  C20 non d ame      -9.487   6.936  70.802  0.00  0.00     0.013 C 
ATOM     48  H30 non d ame     -10.526   6.910  70.474  0.00  0.00     0.072 H 
BRANCH  47  49
ATOM     49  C21 non d ame      -9.177   8.277  71.429  0.00  0.00    -0.038 C 
ATOM     50  H31 non d ame      -9.259   8.125  72.505  0.00  0.00     0.036 H 
ATOM     51  H32 non d ame      -8.229   8.593  70.993  0.00  0.00     0.036 H 
BRANCH  49  52
ATOM     52  C22 non d ame     -10.210   9.364  71.061  0.00  0.00     0.018 C 
ATOM     53  H33 non d ame      -9.844  10.285  71.515  0.00  0.00     0.048 H 
ATOM     54  H34 non d ame     -10.333   9.301  69.979  0.00  0.00     0.048 H 
BRANCH  52  55
ATOM     55  C23 non d ame     -11.620   9.119  71.667  0.00  0.00     0.259 C 
ATOM     56  O7  non d ame     -11.774   8.319  72.532  0.00  0.00    -0.265 OA
BRANCH  55  57
ATOM     57  O8  non d ame     -12.730   9.854  71.167  0.00  0.00    -0.317 OA
BRANCH  57  58
ATOM     58  C29 non d ame     -12.395  10.783  70.133  0.00  0.00     0.052 C 
ATOM     59  H47 non d ame     -11.337  10.625  69.925  0.00  0.00     0.082 H 
ATOM     60  H48 non d ame     -13.134  10.628  69.346  0.00  0.00     0.082 H 
BRANCH  58  61
ATOM     61  C35 non d ame     -12.576  12.216  70.700  0.00  0.00    -0.034 A 
ATOM     62  C30 non d ame     -13.334  12.421  71.849  0.00  0.00    -0.075 A 
ATOM     63  C31 non d ame     -13.497  13.708  72.358  0.00  0.00    -0.082 A 
ATOM     64  H49 non d ame     -13.800  11.572  72.350  0.00  0.00     0.084 H 
ATOM     65  C32 non d ame     -12.900  14.794  71.713  0.00  0.00    -0.083 A 
ATOM     66  H50 non d ame     -14.089  13.864  73.260  0.00  0.00     0.083 H 
ATOM     67  C33 non d ame     -12.148  14.586  70.565  0.00  0.00    -0.082 A 
ATOM     68  H51 non d ame     -13.022  15.804  72.105  0.00  0.00     0.083 H 
ATOM     69  C34 non d ame     -11.981  13.301  70.053  0.00  0.00    -0.075 A 
ATOM     70  H52 non d ame     -11.685  15.436  70.062  0.00  0.00     0.083 H 
ATOM     71  H53 non d ame     -11.387  13.145  69.152  0.00  0.00     0.084 H 
ENDBRANCH  58  61
ENDBRANCH  57  58
ENDBRANCH  55  57
ENDBRANCH  52  55
ENDBRANCH  49  52
ENDBRANCH  47  49
BRANCH  47  72
ATOM     72  C24 non d ame      -9.223   5.826  71.817  0.00  0.00    -0.039 C 
ATOM     73  H35 non d ame      -8.288   5.362  71.502  0.00  0.00     0.036 H 
ATOM     74  H36 non d ame      -9.292   6.303  72.794  0.00  0.00     0.036 H 
BRANCH  72  75
ATOM     75  C25 non d ame     -10.355   4.693  71.763  0.00  0.00    -0.001 C 
ATOM     76  C26 non d ame     -10.900   4.374  73.281  0.00  0.00    -0.035 C 
ATOM     77  C27 non d ame     -10.849   3.037  73.491  0.00  0.00     0.085 C 
ATOM     78  H38 non d ame     -10.206   4.775  74.020  0.00  0.00     0.036 H 
ATOM     79  H39 non d ame     -11.964   4.602  73.353  0.00  0.00     0.036 H 
ATOM     80  N5  non d ame     -10.014   2.447  72.380  0.00  0.00    -0.049 N 
ATOM     81  H40 non d ame     -10.321   2.910  74.438  0.00  0.00     0.075 H 
ATOM     82  H41 non d ame     -11.875   2.686  73.389  0.00  0.00     0.075 H 
ATOM     83  C28 non d ame      -9.896   3.598  71.254  0.00  0.00     0.193 C 
ATOM     84  H42 non d ame      -9.097   2.281  72.768  0.00  0.00     0.280 HD
ATOM     85  H43 non d ame     -10.547   1.678  71.999  0.00  0.00     0.280 HD
ATOM     86  H44 non d ame     -10.488   3.541  70.341  0.00  0.00     0.129 H 
ATOM     87  H37 non d ame     -11.105   4.895  70.999  0.00  0.00     0.046 H 
BRANCH  83  88
ATOM     88  O6  non d ame      -8.540   3.730  70.824  0.00  0.00    -0.369 OA
ATOM     89  H45 non d ame      -8.459   3.412  69.922  0.00  0.00     0.212 HD
ENDBRANCH  83  88
ENDBRANCH  72  75
ENDBRANCH  47  72
ENDBRANCH  45  47
ENDBRANCH   1  43
BRANCH   1  90
ATOM     90  C16 non d ame      -6.886   6.457  67.408  0.00  0.00    -0.035 C 
ATOM     91  H21 non d ame      -6.357   7.287  66.939  0.00  0.00     0.037 H 
ATOM     92  H22 non d ame      -6.907   6.369  68.494  0.00  0.00     0.037 H 
BRANCH  90  93
ATOM     93  C17 non d ame      -6.220   5.150  66.872  0.00  0.00    -0.059 C 
ATOM     94  H23 non d ame      -5.864   5.350  65.861  0.00  0.00     0.038 H 
BRANCH  93  95
ATOM     95  C18 non d ame      -4.990   4.719  67.733  0.00  0.00    -0.073 C 
ATOM     96  H24 non d ame      -4.540   5.600  68.190  0.00  0.00     0.028 H 
ATOM     97  H25 non d ame      -5.316   4.031  68.514  0.00  0.00     0.028 H 
ATOM     98  H26 non d ame      -4.256   4.225  67.097  0.00  0.00     0.028 H 
ENDBRANCH  93  95
BRANCH  93  99
ATOM     99  C19 non d ame      -7.242   4.014  66.776  0.00  0.00    -0.073 C 
ATOM    100  H27 non d ame      -7.360   3.717  65.734  0.00  0.00     0.028 H 
ATOM    101  H28 non d ame      -6.894   3.162  67.361  0.00  0.00     0.028 H 
ATOM    102  H29 non d ame      -8.201   4.355  67.168  0.00  0.00     0.028 H 
ENDBRANCH  93  99
ENDBRANCH  90  93
ENDBRANCH   1  90
TORSDOF 26
ENDMDL
