MODEL 1
REMARK VINA RESULT:      -7.1      0.000      0.000
REMARK  26 active torsions:
REMARK  status: ('A' for Active; 'I' for Inactive)
REMARK    1  A    between atoms: C2_2  and  C3_3 
REMARK    2  A    between atoms: C4_6  and  C5_7 
REMARK       I    between atoms: C5_7  and  N2_9 
REMARK    3  A    between atoms: N2_9  and  C6_10 
REMARK    4  A    between atoms: C6_10  and  C7_11 
REMARK    5  A    between atoms: C6_10  and  C8_13 
REMARK       I    between atoms: C7_11  and  N3_14 
REMARK    6  A    between atoms: N3_14  and  C9_15 
REMARK    7  A    between atoms: C9_15  and  C10_16 
REMARK    8  A    between atoms: C9_15  and  C11_18 
REMARK       I    between atoms: C10_16  and  N4_21 
REMARK    9  A    between atoms: C11_18  and  C12_19 
REMARK   10  A    between atoms: C11_18  and  C13_20 
REMARK   11  A    between atoms: N4_21  and  C14_22 
REMARK   12  A    between atoms: C14_22  and  C15_23 
REMARK   13  A    between atoms: C14_22  and  C16_25 
REMARK       I    between atoms: C15_23  and  N6_40 
REMARK   14  A    between atoms: C16_25  and  C17_26 
REMARK   15  A    between atoms: C17_26  and  C18_27 
REMARK   16  A    between atoms: C17_26  and  C19_28 
REMARK   17  A    between atoms: C20_29  and  C21_30 
REMARK   18  A    between atoms: C20_29  and  C24_33 
REMARK   19  A    between atoms: C20_29  and  N6_40 
REMARK   20  A    between atoms: C21_30  and  C22_31 
REMARK   21  A    between atoms: C22_31  and  C23_32 
REMARK   22  A    between atoms: C23_32  and  O8_43 
REMARK   23  A    between atoms: C24_33  and  C25_34 
REMARK   24  A    between atoms: C28_38  and  O6_39 
REMARK   25  A    between atoms: C29_42  and  O8_43 
REMARK   26  A    between atoms: C29_42  and  C35_49 
ROOT
ATOM      1  C14 non d ame     -12.265  14.417  70.599  0.00  0.00     0.089 C 
ATOM      2  H20 non d ame     -13.353  14.461  70.662  0.00  0.00     0.087 H 
ENDROOT
BRANCH   1   3
ATOM      3  N4  non d ame     -11.899  13.039  70.306  0.00  0.00    -0.346 N 
ATOM      4  C10 non d ame     -12.569  11.901  71.035  0.00  0.00     0.241 C 
ATOM      5  O4  non d ame     -13.399  12.120  71.856  0.00  0.00    -0.271 OA
ATOM      6  H19 non d ame     -11.190  12.874  69.606  0.00  0.00     0.163 HD
BRANCH   4   7
ATOM      7  C9  non d ame     -12.183  10.481  70.716  0.00  0.00     0.092 C 
ATOM      8  H11 non d ame     -12.604  10.204  69.750  0.00  0.00     0.088 H 
BRANCH   7   9
ATOM      9  N3  non d ame     -10.725  10.387  70.596  0.00  0.00    -0.346 N 
ATOM     10  C7  non d ame     -10.125  10.079  69.320  0.00  0.00     0.240 C 
ATOM     11  O3  non d ame     -10.801   9.903  68.381  0.00  0.00    -0.271 OA
ATOM     12  H10 non d ame     -10.129  10.535  71.398  0.00  0.00     0.163 HD
BRANCH  10  13
ATOM     13  C6  non d ame      -8.573   9.977  69.199  0.00  0.00     0.086 C 
ATOM     14  H6  non d ame      -8.253   9.474  68.287  0.00  0.00     0.086 H 
BRANCH  13  15
ATOM     15  N2  non d ame      -8.014  11.318  69.153  0.00  0.00    -0.343 N 
ATOM     16  C5  non d ame      -6.783  11.561  68.398  0.00  0.00     0.273 C 
ATOM     17  O2  non d ame      -6.248  10.670  67.834  0.00  0.00    -0.266 OA
ATOM     18  H5  non d ame      -8.477  12.073  69.639  0.00  0.00     0.163 HD
BRANCH  16  19
ATOM     19  C4  non d ame      -6.182  12.974  68.338  0.00  0.00     0.154 A 
ATOM     20  C1  non d ame      -6.112  13.929  69.402  0.00  0.00    -0.017 A 
ATOM     21  C2  non d ame      -5.474  15.056  68.836  0.00  0.00     0.077 A 
ATOM     22  H1  non d ame      -6.468  13.820  70.426  0.00  0.00     0.091 H 
ATOM     23  O1  non d ame      -5.213  14.770  67.594  0.00  0.00    -0.218 OA
ATOM     24  N1  non d ame      -5.617  13.561  67.280  0.00  0.00    -0.123 NA
BRANCH  21  25
ATOM     25  C3  non d ame      -5.153  16.362  69.550  0.00  0.00    -0.029 C 
ATOM     26  H2  non d ame      -4.289  16.219  70.199  0.00  0.00     0.036 H 
ATOM     27  H3  non d ame      -4.930  17.133  68.813  0.00  0.00     0.036 H 
ATOM     28  H4  non d ame      -6.010  16.670  70.150  0.00  0.00     0.036 H 
ENDBRANCH  21  25
ENDBRANCH  16  19
ENDBRANCH  13  15
BRANCH  13  29
ATOM     29  C8  non d ame      -8.022   9.229  70.387  0.00  0.00    -0.049 C 
ATOM     30  H7  non d ame      -8.838   8.740  70.919  0.00  0.00     0.030 H 
ATOM     31  H8  non d ame      -7.309   8.479  70.045  0.00  0.00     0.030 H 
ATOM     32  H9  non d ame      -7.521   9.929  71.056  0.00  0.00     0.030 H 
ENDBRANCH  13  29
ENDBRANCH  10  13
ENDBRANCH   7   9
BRANCH   7  33
ATOM     33  C11 non d ame     -12.668   9.542  71.859  0.00  0.00    -0.033 C 
ATOM     34  H12 non d ame     -12.880  10.164  72.728  0.00  0.00     0.042 H 
BRANCH  33  35
ATOM     35  C12 non d ame     -13.991   8.811  71.470  0.00  0.00    -0.071 C 
ATOM     36  H13 non d ame     -13.869   7.738  71.615  0.00  0.00     0.028 H 
ATOM     37  H14 non d ame     -14.804   9.172  72.101  0.00  0.00     0.028 H 
ATOM     38  H15 non d ame     -14.224   9.013  70.425  0.00  0.00     0.028 H 
ENDBRANCH  33  35
BRANCH  33  39
ATOM     39  C13 non d ame     -11.553   8.522  72.256  0.00  0.00    -0.071 C 
ATOM     40  H16 non d ame     -12.013   7.620  72.659  0.00  0.00     0.028 H 
ATOM     41  H17 non d ame     -10.963   8.267  71.374  0.00  0.00     0.028 H 
ATOM     42  H18 non d ame     -10.905   8.968  73.010  0.00  0.00     0.028 H 
ENDBRANCH  33  39
ENDBRANCH   7  33
ENDBRANCH   4   7
ENDBRANCH   1   3
BRANCH   1  43
ATOM     43  C15 non d ame     -11.705  15.328  69.470  0.00  0.00     0.240 C 
ATOM     44  O5  non d ame     -12.348  16.249  69.080  0.00  0.00    -0.271 OA
ATOM     45  N6  non d ame     -10.363  15.059  68.880  0.00  0.00    -0.355 N 
ATOM     46  H46 non d ame      -9.806  14.282  69.206  0.00  0.00     0.162 HD
BRANCH  45  47
ATOM     47  C20 non d ame      -9.844  15.936  67.809  0.00  0.00     0.013 C 
ATOM     48  H30 non d ame     -10.695  16.417  67.327  0.00  0.00     0.072 H 
BRANCH  47  49
ATOM     49  C21 non d ame      -9.086  15.100  66.802  0.00  0.00    -0.038 C 
ATOM     50  H31 non d ame      -9.382  15.476  65.823  0.00  0.00     0.036 H 
ATOM     51  H32 non d ame      -8.041  15.144  67.110  0.00  0.00     0.036 H 
BRANCH  49  52
ATOM     52  C22 non d ame      -9.488  13.609  66.837  0.00  0.00     0.018 C 
ATOM     53  H33 non d ame      -8.786  13.098  66.178  0.00  0.00     0.048 H 
ATOM     54  H34 non d ame      -9.538  13.341  67.893  0.00  0.00     0.048 H 
BRANCH  52  55
ATOM     55  C23 non d ame     -10.902  13.328  66.257  0.00  0.00     0.259 C 
ATOM     56  O7  non d ame     -11.812  13.081  66.980  0.00  0.00    -0.265 OA
BRANCH  55  57
ATOM     57  O8  non d ame     -11.096  13.358  64.848  0.00  0.00    -0.317 OA
BRANCH  57  58
ATOM     58  C29 non d ame     -11.591  12.132  64.303  0.00  0.00     0.052 C 
ATOM     59  H47 non d ame     -12.218  11.695  65.081  0.00  0.00     0.082 H 
ATOM     60  H48 non d ame     -12.024  12.392  63.337  0.00  0.00     0.082 H 
BRANCH  58  61
ATOM     61  C35 non d ame     -10.381  11.191  64.062  0.00  0.00    -0.034 A 
ATOM     62  C30 non d ame     -10.108  10.163  64.958  0.00  0.00    -0.075 A 
ATOM     63  C31 non d ame      -9.021   9.318  64.742  0.00  0.00    -0.082 A 
ATOM     64  H49 non d ame     -10.747  10.018  65.830  0.00  0.00     0.084 H 
ATOM     65  C32 non d ame      -8.202   9.506  63.625  0.00  0.00    -0.083 A 
ATOM     66  H50 non d ame      -8.811   8.511  65.445  0.00  0.00     0.083 H 
ATOM     67  C33 non d ame      -8.476  10.535  62.735  0.00  0.00    -0.082 A 
ATOM     68  H51 non d ame      -7.351   8.849  63.448  0.00  0.00     0.083 H 
ATOM     69  C34 non d ame      -9.563  11.381  62.946  0.00  0.00    -0.075 A 
ATOM     70  H52 non d ame      -7.835  10.681  61.865  0.00  0.00     0.083 H 
ATOM     71  H53 non d ame      -9.773  12.186  62.242  0.00  0.00     0.084 H 
ENDBRANCH  58  61
ENDBRANCH  57  58
ENDBRANCH  55  57
ENDBRANCH  52  55
ENDBRANCH  49  52
ENDBRANCH  47  49
BRANCH  47  72
ATOM     72  C24 non d ame      -8.909  16.985  68.407  0.00  0.00    -0.039 C 
ATOM     73  H35 non d ame      -8.747  16.674  69.440  0.00  0.00     0.036 H 
ATOM     74  H36 non d ame      -8.066  17.048  67.719  0.00  0.00     0.036 H 
BRANCH  72  75
ATOM     75  C25 non d ame      -9.593  18.432  68.451  0.00  0.00    -0.001 C 
ATOM     76  C26 non d ame     -10.604  18.613  67.166  0.00  0.00    -0.035 C 
ATOM     77  C27 non d ame     -10.303  19.773  66.534  0.00  0.00     0.085 C 
ATOM     78  H38 non d ame     -10.393  17.852  66.415  0.00  0.00     0.036 H 
ATOM     79  H39 non d ame     -11.625  18.769  67.513  0.00  0.00     0.036 H 
ATOM     80  N5  non d ame      -8.971  20.237  67.073  0.00  0.00    -0.049 N 
ATOM     81  H40 non d ame     -10.188  19.510  65.482  0.00  0.00     0.075 H 
ATOM     82  H41 non d ame     -11.074  20.479  66.839  0.00  0.00     0.075 H 
ATOM     83  C28 non d ame      -8.707  19.370  68.409  0.00  0.00     0.193 C 
ATOM     84  H42 non d ame      -8.279  19.983  66.383  0.00  0.00     0.280 HD
ATOM     85  H43 non d ame      -9.090  21.205  67.336  0.00  0.00     0.280 HD
ATOM     86  H44 non d ame      -8.844  19.816  69.395  0.00  0.00     0.129 H 
ATOM     87  H37 non d ame      -9.997  18.669  69.436  0.00  0.00     0.046 H 
BRANCH  83  88
ATOM     88  O6  non d ame      -7.375  18.853  68.406  0.00  0.00    -0.369 OA
ATOM     89  H45 non d ame      -6.935  19.098  69.223  0.00  0.00     0.212 HD
ENDBRANCH  83  88
ENDBRANCH  72  75
ENDBRANCH  47  72
ENDBRANCH  45  47
ENDBRANCH   1  43
BRANCH   1  90
ATOM     90  C16 non d ame     -11.655  14.820  71.932  0.00  0.00    -0.035 C 
ATOM     91  H21 non d ame     -11.531  13.889  72.486  0.00  0.00     0.037 H 
ATOM     92  H22 non d ame     -10.783  15.423  71.679  0.00  0.00     0.037 H 
BRANCH  90  93
ATOM     93  C17 non d ame     -12.584  15.729  72.797  0.00  0.00    -0.059 C 
ATOM     94  H23 non d ame     -12.290  16.764  72.623  0.00  0.00     0.038 H 
BRANCH  93  95
ATOM     95  C18 non d ame     -14.088  15.587  72.395  0.00  0.00    -0.073 C 
ATOM     96  H24 non d ame     -14.644  16.448  72.764  0.00  0.00     0.028 H 
ATOM     97  H25 non d ame     -14.170  15.539  71.309  0.00  0.00     0.028 H 
ATOM     98  H26 non d ame     -14.496  14.675  72.832  0.00  0.00     0.028 H 
ENDBRANCH  93  95
BRANCH  93  99
ATOM     99  C19 non d ame     -12.391  15.446  74.289  0.00  0.00    -0.073 C 
ATOM    100  H27 non d ame     -13.256  15.809  74.844  0.00  0.00     0.028 H 
ATOM    101  H28 non d ame     -12.284  14.372  74.444  0.00  0.00     0.028 H 
ATOM    102  H29 non d ame     -11.493  15.953  74.642  0.00  0.00     0.028 H 
ENDBRANCH  93  99
ENDBRANCH  90  93
ENDBRANCH   1  90
TORSDOF 26
ENDMDL
MODEL 2
REMARK VINA RESULT:      -6.5      3.810      7.710
REMARK  26 active torsions:
REMARK  status: ('A' for Active; 'I' for Inactive)
REMARK    1  A    between atoms: C2_2  and  C3_3 
REMARK    2  A    between atoms: C4_6  and  C5_7 
REMARK       I    between atoms: C5_7  and  N2_9 
REMARK    3  A    between atoms: N2_9  and  C6_10 
REMARK    4  A    between atoms: C6_10  and  C7_11 
REMARK    5  A    between atoms: C6_10  and  C8_13 
REMARK       I    between atoms: C7_11  and  N3_14 
REMARK    6  A    between atoms: N3_14  and  C9_15 
REMARK    7  A    between atoms: C9_15  and  C10_16 
REMARK    8  A    between atoms: C9_15  and  C11_18 
REMARK       I    between atoms: C10_16  and  N4_21 
REMARK    9  A    between atoms: C11_18  and  C12_19 
REMARK   10  A    between atoms: C11_18  and  C13_20 
REMARK   11  A    between atoms: N4_21  and  C14_22 
REMARK   12  A    between atoms: C14_22  and  C15_23 
REMARK   13  A    between atoms: C14_22  and  C16_25 
REMARK       I    between atoms: C15_23  and  N6_40 
REMARK   14  A    between atoms: C16_25  and  C17_26 
REMARK   15  A    between atoms: C17_26  and  C18_27 
REMARK   16  A    between atoms: C17_26  and  C19_28 
REMARK   17  A    between atoms: C20_29  and  C21_30 
REMARK   18  A    between atoms: C20_29  and  C24_33 
REMARK   19  A    between atoms: C20_29  and  N6_40 
REMARK   20  A    between atoms: C21_30  and  C22_31 
REMARK   21  A    between atoms: C22_31  and  C23_32 
REMARK   22  A    between atoms: C23_32  and  O8_43 
REMARK   23  A    between atoms: C24_33  and  C25_34 
REMARK   24  A    between atoms: C28_38  and  O6_39 
REMARK   25  A    between atoms: C29_42  and  O8_43 
REMARK   26  A    between atoms: C29_42  and  C35_49 
ROOT
ATOM      1  C14 non d ame     -10.225   9.960  68.655  0.00  0.00     0.089 C 
ATOM      2  H20 non d ame     -10.689   8.973  68.654  0.00  0.00     0.087 H 
ENDROOT
BRANCH   1   3
ATOM      3  N4  non d ame      -9.479  10.096  67.413  0.00  0.00    -0.346 N 
ATOM      4  C10 non d ame      -9.757   9.173  66.253  0.00  0.00     0.241 C 
ATOM      5  O4  non d ame     -10.583   8.326  66.345  0.00  0.00    -0.271 OA
ATOM      6  H19 non d ame      -8.778  10.821  67.357  0.00  0.00     0.163 HD
BRANCH   4   7
ATOM      7  C9  non d ame      -8.979   9.331  64.973  0.00  0.00     0.092 C 
ATOM      8  H11 non d ame      -8.019   9.798  65.192  0.00  0.00     0.088 H 
BRANCH   7   9
ATOM      9  N3  non d ame      -8.700   8.010  64.404  0.00  0.00    -0.346 N 
ATOM     10  C7  non d ame      -7.345   7.638  64.078  0.00  0.00     0.240 C 
ATOM     11  O3  non d ame      -6.468   8.390  64.265  0.00  0.00    -0.271 OA
ATOM     12  H10 non d ame      -9.446   7.351  64.235  0.00  0.00     0.163 HD
BRANCH  10  13
ATOM     13  C6  non d ame      -7.054   6.231  63.469  0.00  0.00     0.086 C 
ATOM     14  H6  non d ame      -6.406   6.276  62.594  0.00  0.00     0.086 H 
BRANCH  13  15
ATOM     15  N2  non d ame      -6.359   5.424  64.459  0.00  0.00    -0.343 N 
ATOM     16  C5  non d ame      -4.901   5.308  64.400  0.00  0.00     0.273 C 
ATOM     17  O2  non d ame      -4.295   5.866  63.552  0.00  0.00    -0.266 OA
ATOM     18  H5  non d ame      -6.885   4.948  65.179  0.00  0.00     0.163 HD
BRANCH  16  19
ATOM     19  C4  non d ame      -4.153   4.459  65.441  0.00  0.00     0.154 A 
ATOM     20  C1  non d ame      -4.717   3.500  66.341  0.00  0.00    -0.017 A 
ATOM     21  C2  non d ame      -3.619   3.004  67.078  0.00  0.00     0.077 A 
ATOM     22  H1  non d ame      -5.763   3.209  66.442  0.00  0.00     0.091 H 
ATOM     23  O1  non d ame      -2.555   3.612  66.644  0.00  0.00    -0.218 OA
ATOM     24  N1  non d ame      -2.841   4.467  65.689  0.00  0.00    -0.123 NA
BRANCH  21  25
ATOM     25  C3  non d ame      -3.673   1.951  68.177  0.00  0.00    -0.029 C 
ATOM     26  H2  non d ame      -3.312   0.999  67.787  0.00  0.00     0.036 H 
ATOM     27  H3  non d ame      -3.046   2.264  69.011  0.00  0.00     0.036 H 
ATOM     28  H4  non d ame      -4.702   1.835  68.520  0.00  0.00     0.036 H 
ENDBRANCH  21  25
ENDBRANCH  16  19
ENDBRANCH  13  15
BRANCH  13  29
ATOM     29  C8  non d ame      -8.352   5.569  63.082  0.00  0.00    -0.049 C 
ATOM     30  H7  non d ame      -8.750   5.022  63.936  0.00  0.00     0.030 H 
ATOM     31  H8  non d ame      -9.068   6.330  62.771  0.00  0.00     0.030 H 
ATOM     32  H9  non d ame      -8.175   4.878  62.259  0.00  0.00     0.030 H 
ENDBRANCH  13  29
ENDBRANCH  10  13
ENDBRANCH   7   9
BRANCH   7  33
ATOM     33  C11 non d ame      -9.816  10.164  63.958  0.00  0.00    -0.033 C 
ATOM     34  H12 non d ame     -10.524   9.486  63.482  0.00  0.00     0.042 H 
BRANCH  33  35
ATOM     35  C12 non d ame     -10.642  11.275  64.678  0.00  0.00    -0.071 C 
ATOM     36  H13 non d ame     -11.565  11.456  64.127  0.00  0.00     0.028 H 
ATOM     37  H14 non d ame     -10.882  10.950  65.690  0.00  0.00     0.028 H 
ATOM     38  H15 non d ame     -10.057  12.193  64.719  0.00  0.00     0.028 H 
ENDBRANCH  33  35
BRANCH  33  39
ATOM     39  C13 non d ame      -8.903  10.769  62.844  0.00  0.00    -0.071 C 
ATOM     40  H16 non d ame      -9.087  11.840  62.765  0.00  0.00     0.028 H 
ATOM     41  H17 non d ame      -7.857  10.599  63.099  0.00  0.00     0.028 H 
ATOM     42  H18 non d ame      -9.127  10.290  61.891  0.00  0.00     0.028 H 
ENDBRANCH  33  39
ENDBRANCH   7  33
ENDBRANCH   4   7
ENDBRANCH   1   3
BRANCH   1  43
ATOM     43  C15 non d ame     -11.277  11.103  68.729  0.00  0.00     0.240 C 
ATOM     44  O5  non d ame     -12.249  11.057  68.046  0.00  0.00    -0.271 OA
ATOM     45  N6  non d ame     -11.077  12.252  69.658  0.00  0.00    -0.355 N 
ATOM     46  H46 non d ame     -10.258  12.300  70.246  0.00  0.00     0.162 HD
BRANCH  45  47
ATOM     47  C20 non d ame     -12.088  13.331  69.717  0.00  0.00     0.013 C 
ATOM     48  H30 non d ame     -12.957  13.008  69.144  0.00  0.00     0.072 H 
BRANCH  47  49
ATOM     49  C21 non d ame     -11.510  14.591  69.112  0.00  0.00    -0.038 C 
ATOM     50  H31 non d ame     -12.161  15.401  69.442  0.00  0.00     0.036 H 
ATOM     51  H32 non d ame     -10.455  14.592  69.388  0.00  0.00     0.036 H 
BRANCH  49  52
ATOM     52  C22 non d ame     -11.558  14.591  67.569  0.00  0.00     0.018 C 
ATOM     53  H33 non d ame     -12.178  13.738  67.292  0.00  0.00     0.048 H 
ATOM     54  H34 non d ame     -11.860  15.599  67.284  0.00  0.00     0.048 H 
BRANCH  52  55
ATOM     55  C23 non d ame     -10.176  14.353  66.899  0.00  0.00     0.259 C 
ATOM     56  O7  non d ame      -9.544  13.379  67.151  0.00  0.00    -0.265 OA
BRANCH  55  57
ATOM     57  O8  non d ame      -9.667  15.320  65.989  0.00  0.00    -0.317 OA
BRANCH  57  58
ATOM     58  C29 non d ame      -8.544  16.052  66.485  0.00  0.00     0.052 C 
ATOM     59  H47 non d ame      -8.164  15.474  67.327  0.00  0.00     0.082 H 
ATOM     60  H48 non d ame      -7.907  16.238  65.621  0.00  0.00     0.082 H 
BRANCH  58  61
ATOM     61  C35 non d ame      -9.059  17.416  67.018  0.00  0.00    -0.034 A 
ATOM     62  C30 non d ame     -10.216  17.978  66.489  0.00  0.00    -0.075 A 
ATOM     63  C31 non d ame     -10.678  19.203  66.967  0.00  0.00    -0.082 A 
ATOM     64  H49 non d ame     -10.761  17.459  65.700  0.00  0.00     0.084 H 
ATOM     65  C32 non d ame      -9.977  19.868  67.977  0.00  0.00    -0.083 A 
ATOM     66  H50 non d ame     -11.587  19.640  66.552  0.00  0.00     0.083 H 
ATOM     67  C33 non d ame      -8.821  19.304  68.499  0.00  0.00    -0.082 A 
ATOM     68  H51 non d ame     -10.332  20.826  68.357  0.00  0.00     0.083 H 
ATOM     69  C34 non d ame      -8.356  18.079  68.026  0.00  0.00    -0.075 A 
ATOM     70  H52 non d ame      -8.275  19.827  69.286  0.00  0.00     0.083 H 
ATOM     71  H53 non d ame      -7.448  17.643  68.442  0.00  0.00     0.084 H 
ENDBRANCH  58  61
ENDBRANCH  57  58
ENDBRANCH  55  57
ENDBRANCH  52  55
ENDBRANCH  49  52
ENDBRANCH  47  49
BRANCH  47  72
ATOM     72  C24 non d ame     -12.477  13.594  71.170  0.00  0.00    -0.039 C 
ATOM     73  H35 non d ame     -13.403  13.040  71.327  0.00  0.00     0.036 H 
ATOM     74  H36 non d ame     -11.591  13.352  71.756  0.00  0.00     0.036 H 
BRANCH  72  75
ATOM     75  C25 non d ame     -12.803  15.142  71.425  0.00  0.00    -0.001 C 
ATOM     76  C26 non d ame     -11.723  15.774  72.492  0.00  0.00    -0.035 C 
ATOM     77  C27 non d ame     -12.403  16.402  73.481  0.00  0.00     0.085 C 
ATOM     78  H38 non d ame     -11.199  14.972  73.012  0.00  0.00     0.036 H 
ATOM     79  H39 non d ame     -11.159  16.578  72.020  0.00  0.00     0.036 H 
ATOM     80  N5  non d ame     -13.847  15.977  73.362  0.00  0.00    -0.049 N 
ATOM     81  H40 non d ame     -11.993  16.009  74.412  0.00  0.00     0.075 H 
ATOM     82  H41 non d ame     -12.327  17.465  73.257  0.00  0.00     0.075 H 
ATOM     83  C28 non d ame     -13.992  15.296  71.906  0.00  0.00     0.193 C 
ATOM     84  H42 non d ame     -13.995  15.267  74.065  0.00  0.00     0.280 HD
ATOM     85  H43 non d ame     -14.397  16.824  73.377  0.00  0.00     0.280 HD
ATOM     86  H44 non d ame     -14.468  15.836  71.087  0.00  0.00     0.129 H 
ATOM     87  H37 non d ame     -12.960  15.689  70.495  0.00  0.00     0.046 H 
BRANCH  83  88
ATOM     88  O6  non d ame     -14.697  14.058  72.008  0.00  0.00    -0.369 OA
ATOM     89  H45 non d ame     -15.220  13.921  71.215  0.00  0.00     0.212 HD
ENDBRANCH  83  88
ENDBRANCH  72  75
ENDBRANCH  47  72
ENDBRANCH  45  47
ENDBRANCH   1  43
BRANCH   1  90
ATOM     90  C16 non d ame      -9.262  10.075  69.827  0.00  0.00    -0.035 C 
ATOM     91  H21 non d ame      -8.285   9.804  69.425  0.00  0.00     0.037 H 
ATOM     92  H22 non d ame      -9.425  11.071  70.238  0.00  0.00     0.037 H 
BRANCH  90  93
ATOM     93  C17 non d ame      -9.559   9.067  70.982  0.00  0.00    -0.059 C 
ATOM     94  H23 non d ame     -10.045   9.619  71.786  0.00  0.00     0.038 H 
BRANCH  93  95
ATOM     95  C18 non d ame     -10.528   7.926  70.535  0.00  0.00    -0.073 C 
ATOM     96  H24 non d ame     -10.007   6.969  70.579  0.00  0.00     0.028 H 
ATOM     97  H25 non d ame     -11.391   7.900  71.200  0.00  0.00     0.028 H 
ATOM     98  H26 non d ame     -10.861   8.112  69.514  0.00  0.00     0.028 H 
ENDBRANCH  93  95
BRANCH  93  99
ATOM     99  C19 non d ame      -8.261   8.488  71.550  0.00  0.00    -0.073 C 
ATOM    100  H27 non d ame      -8.044   7.536  71.063  0.00  0.00     0.028 H 
ATOM    101  H28 non d ame      -7.442   9.184  71.366  0.00  0.00     0.028 H 
ATOM    102  H29 non d ame      -8.370   8.331  72.622  0.00  0.00     0.028 H 
ENDBRANCH  93  99
ENDBRANCH  90  93
ENDBRANCH   1  90
TORSDOF 26
ENDMDL
MODEL 3
REMARK VINA RESULT:      -6.4      2.874      7.220
REMARK  26 active torsions:
REMARK  status: ('A' for Active; 'I' for Inactive)
REMARK    1  A    between atoms: C2_2  and  C3_3 
REMARK    2  A    between atoms: C4_6  and  C5_7 
REMARK       I    between atoms: C5_7  and  N2_9 
REMARK    3  A    between atoms: N2_9  and  C6_10 
REMARK    4  A    between atoms: C6_10  and  C7_11 
REMARK    5  A    between atoms: C6_10  and  C8_13 
REMARK       I    between atoms: C7_11  and  N3_14 
REMARK    6  A    between atoms: N3_14  and  C9_15 
REMARK    7  A    between atoms: C9_15  and  C10_16 
REMARK    8  A    between atoms: C9_15  and  C11_18 
REMARK       I    between atoms: C10_16  and  N4_21 
REMARK    9  A    between atoms: C11_18  and  C12_19 
REMARK   10  A    between atoms: C11_18  and  C13_20 
REMARK   11  A    between atoms: N4_21  and  C14_22 
REMARK   12  A    between atoms: C14_22  and  C15_23 
REMARK   13  A    between atoms: C14_22  and  C16_25 
REMARK       I    between atoms: C15_23  and  N6_40 
REMARK   14  A    between atoms: C16_25  and  C17_26 
REMARK   15  A    between atoms: C17_26  and  C18_27 
REMARK   16  A    between atoms: C17_26  and  C19_28 
REMARK   17  A    between atoms: C20_29  and  C21_30 
REMARK   18  A    between atoms: C20_29  and  C24_33 
REMARK   19  A    between atoms: C20_29  and  N6_40 
REMARK   20  A    between atoms: C21_30  and  C22_31 
REMARK   21  A    between atoms: C22_31  and  C23_32 
REMARK   22  A    between atoms: C23_32  and  O8_43 
REMARK   23  A    between atoms: C24_33  and  C25_34 
REMARK   24  A    between atoms: C28_38  and  O6_39 
REMARK   25  A    between atoms: C29_42  and  O8_43 
REMARK   26  A    between atoms: C29_42  and  C35_49 
ROOT
ATOM      1  C14 non d ame      -8.909   9.708  68.679  0.00  0.00     0.089 C 
ATOM      2  H20 non d ame      -8.681   8.768  69.183  0.00  0.00     0.087 H 
ENDROOT
BRANCH   1   3
ATOM      3  N4  non d ame      -8.880   9.456  67.246  0.00  0.00    -0.346 N 
ATOM      4  C10 non d ame      -8.039   8.336  66.687  0.00  0.00     0.241 C 
ATOM      5  O4  non d ame      -7.391   7.653  67.409  0.00  0.00    -0.271 OA
ATOM      6  H19 non d ame      -9.437  10.050  66.648  0.00  0.00     0.163 HD
BRANCH   4   7
ATOM      7  C9  non d ame      -8.026   8.086  65.201  0.00  0.00     0.092 C 
ATOM      8  H11 non d ame      -8.886   7.473  64.934  0.00  0.00     0.088 H 
BRANCH   7   9
ATOM      9  N3  non d ame      -8.163   9.360  64.489  0.00  0.00    -0.346 N 
ATOM     10  C7  non d ame      -8.774   9.393  63.183  0.00  0.00     0.240 C 
ATOM     11  O3  non d ame      -9.159   8.404  62.690  0.00  0.00    -0.271 OA
ATOM     12  H10 non d ame      -7.834  10.221  64.902  0.00  0.00     0.163 HD
BRANCH  10  13
ATOM     13  C6  non d ame      -8.914  10.752  62.429  0.00  0.00     0.086 C 
ATOM     14  H6  non d ame      -9.730  10.750  61.707  0.00  0.00     0.086 H 
BRANCH  13  15
ATOM     15  N2  non d ame      -9.213  11.797  63.393  0.00  0.00    -0.343 N 
ATOM     16  C5  non d ame     -10.608  12.090  63.730  0.00  0.00     0.273 C 
ATOM     17  O2  non d ame     -11.482  11.480  63.218  0.00  0.00    -0.266 OA
ATOM     18  H5  non d ame      -8.460  12.315  63.824  0.00  0.00     0.163 HD
BRANCH  16  19
ATOM     19  C4  non d ame     -10.939  13.191  64.749  0.00  0.00     0.154 A 
ATOM     20  C1  non d ame     -10.107  14.289  65.137  0.00  0.00    -0.017 A 
ATOM     21  C2  non d ame     -10.867  15.002  66.090  0.00  0.00     0.077 A 
ATOM     22  H1  non d ame      -9.105  14.530  64.781  0.00  0.00     0.091 H 
ATOM     23  O1  non d ame     -12.001  14.380  66.226  0.00  0.00    -0.218 OA
ATOM     24  N1  non d ame     -12.067  13.320  65.453  0.00  0.00    -0.123 NA
BRANCH  21  25
ATOM     25  C3  non d ame     -10.437  16.267  66.823  0.00  0.00    -0.029 C 
ATOM     26  H2  non d ame      -9.366  16.418  66.689  0.00  0.00     0.036 H 
ATOM     27  H3  non d ame     -10.978  17.122  66.419  0.00  0.00     0.036 H 
ATOM     28  H4  non d ame     -10.659  16.165  67.886  0.00  0.00     0.036 H 
ENDBRANCH  21  25
ENDBRANCH  16  19
ENDBRANCH  13  15
BRANCH  13  29
ATOM     29  C8  non d ame      -7.627  11.065  61.709  0.00  0.00    -0.049 C 
ATOM     30  H7  non d ame      -7.466  10.335  60.916  0.00  0.00     0.030 H 
ATOM     31  H8  non d ame      -7.687  12.064  61.277  0.00  0.00     0.030 H 
ATOM     32  H9  non d ame      -6.797  11.023  62.415  0.00  0.00     0.030 H 
ENDBRANCH  13  29
ENDBRANCH  10  13
ENDBRANCH   7   9
BRANCH   7  33
ATOM     33  C11 non d ame      -6.680   7.413  64.801  0.00  0.00    -0.033 C 
ATOM     34  H12 non d ame      -6.195   7.077  65.718  0.00  0.00     0.042 H 
BRANCH  33  35
ATOM     35  C12 non d ame      -6.917   6.156  63.907  0.00  0.00    -0.071 C 
ATOM     36  H13 non d ame      -6.277   6.211  63.026  0.00  0.00     0.028 H 
ATOM     37  H14 non d ame      -6.676   5.257  64.475  0.00  0.00     0.028 H 
ATOM     38  H15 non d ame      -7.960   6.122  63.597  0.00  0.00     0.028 H 
ENDBRANCH  33  35
BRANCH  33  39
ATOM     39  C13 non d ame      -5.731   8.437  64.099  0.00  0.00    -0.071 C 
ATOM     40  H16 non d ame      -5.387   8.022  63.152  0.00  0.00     0.028 H 
ATOM     41  H17 non d ame      -6.270   9.366  63.915  0.00  0.00     0.028 H 
ATOM     42  H18 non d ame      -4.873   8.636  64.742  0.00  0.00     0.028 H 
ENDBRANCH  33  39
ENDBRANCH   7  33
ENDBRANCH   4   7
ENDBRANCH   1   3
BRANCH   1  43
ATOM     43  C15 non d ame     -10.316  10.251  69.059  0.00  0.00     0.240 C 
ATOM     44  O5  non d ame     -11.129  10.431  68.210  0.00  0.00    -0.271 OA
ATOM     45  N6  non d ame     -10.655  10.538  70.482  0.00  0.00    -0.355 N 
ATOM     46  H46 non d ame      -9.975  10.384  71.212  0.00  0.00     0.162 HD
BRANCH  45  47
ATOM     47  C20 non d ame     -11.998  11.053  70.826  0.00  0.00     0.013 C 
ATOM     48  H30 non d ame     -12.022  11.235  71.901  0.00  0.00     0.072 H 
BRANCH  47  49
ATOM     49  C21 non d ame     -13.039  10.021  70.453  0.00  0.00    -0.038 C 
ATOM     50  H31 non d ame     -13.967  10.576  70.317  0.00  0.00     0.036 H 
ATOM     51  H32 non d ame     -12.612   9.459  69.623  0.00  0.00     0.036 H 
BRANCH  49  52
ATOM     52  C22 non d ame     -13.302   9.000  71.582  0.00  0.00     0.018 C 
ATOM     53  H33 non d ame     -12.792   9.394  72.461  0.00  0.00     0.048 H 
ATOM     54  H34 non d ame     -14.382   8.851  71.599  0.00  0.00     0.048 H 
BRANCH  52  55
ATOM     55  C23 non d ame     -12.681   7.601  71.317  0.00  0.00     0.259 C 
ATOM     56  O7  non d ame     -13.164   6.626  71.796  0.00  0.00    -0.265 OA
BRANCH  55  57
ATOM     57  O8  non d ame     -11.517   7.497  70.505  0.00  0.00    -0.317 OA
BRANCH  57  58
ATOM     58  C29 non d ame     -10.831   6.248  70.628  0.00  0.00     0.052 C 
ATOM     59  H47 non d ame      -9.887   6.478  71.124  0.00  0.00     0.082 H 
ATOM     60  H48 non d ame     -11.540   5.567  71.097  0.00  0.00     0.082 H 
BRANCH  58  61
ATOM     61  C35 non d ame     -10.522   5.729  69.199  0.00  0.00    -0.034 A 
ATOM     62  C30 non d ame      -9.735   4.595  69.025  0.00  0.00    -0.075 A 
ATOM     63  C31 non d ame      -9.457   4.128  67.741  0.00  0.00    -0.082 A 
ATOM     64  H49 non d ame      -9.337   4.071  69.894  0.00  0.00     0.084 H 
ATOM     65  C32 non d ame      -9.967   4.802  66.628  0.00  0.00    -0.083 A 
ATOM     66  H50 non d ame      -8.842   3.237  67.608  0.00  0.00     0.083 H 
ATOM     67  C33 non d ame     -10.748   5.935  66.807  0.00  0.00    -0.082 A 
ATOM     68  H51 non d ame      -9.755   4.443  65.621  0.00  0.00     0.083 H 
ATOM     69  C34 non d ame     -11.031   6.404  68.088  0.00  0.00    -0.075 A 
ATOM     70  H52 non d ame     -11.143   6.460  65.936  0.00  0.00     0.083 H 
ATOM     71  H53 non d ame     -11.646   7.294  68.220  0.00  0.00     0.084 H 
ENDBRANCH  58  61
ENDBRANCH  57  58
ENDBRANCH  55  57
ENDBRANCH  52  55
ENDBRANCH  49  52
ENDBRANCH  47  49
BRANCH  47  72
ATOM     72  C24 non d ame     -12.266  12.348  70.062  0.00  0.00    -0.039 C 
ATOM     73  H35 non d ame     -11.390  12.499  69.431  0.00  0.00     0.036 H 
ATOM     74  H36 non d ame     -13.249  12.219  69.609  0.00  0.00     0.036 H 
BRANCH  72  75
ATOM     75  C25 non d ame     -12.362  13.608  71.047  0.00  0.00    -0.001 C 
ATOM     76  C26 non d ame     -13.587  13.387  72.121  0.00  0.00    -0.035 C 
ATOM     77  C27 non d ame     -14.381  14.485  72.108  0.00  0.00     0.085 C 
ATOM     78  H38 non d ame     -14.247  12.591  71.778  0.00  0.00     0.036 H 
ATOM     79  H39 non d ame     -13.194  13.369  73.138  0.00  0.00     0.036 H 
ATOM     80  N5  non d ame     -13.998  15.292  70.892  0.00  0.00    -0.049 N 
ATOM     81  H40 non d ame     -15.397  14.108  71.980  0.00  0.00     0.075 H 
ATOM     82  H41 non d ame     -14.117  15.045  73.004  0.00  0.00     0.075 H 
ATOM     83  C28 non d ame     -12.583  14.698  70.391  0.00  0.00     0.193 C 
ATOM     84  H42 non d ame     -14.696  15.098  70.188  0.00  0.00     0.280 HD
ATOM     85  H43 non d ame     -13.854  16.240  71.211  0.00  0.00     0.280 HD
ATOM     86  H44 non d ame     -11.656  15.237  70.585  0.00  0.00     0.129 H 
ATOM     87  H37 non d ame     -11.390  13.888  71.454  0.00  0.00     0.046 H 
BRANCH  83  88
ATOM     88  O6  non d ame     -12.611  14.481  68.979  0.00  0.00    -0.369 OA
ATOM     89  H45 non d ame     -12.631  15.327  68.527  0.00  0.00     0.212 HD
ENDBRANCH  83  88
ENDBRANCH  72  75
ENDBRANCH  47  72
ENDBRANCH  45  47
ENDBRANCH   1  43
BRANCH   1  90
ATOM     90  C16 non d ame      -7.851  10.745  69.022  0.00  0.00    -0.035 C 
ATOM     91  H21 non d ame      -8.237  11.274  69.894  0.00  0.00     0.037 H 
ATOM     92  H22 non d ame      -6.915  10.190  69.092  0.00  0.00     0.037 H 
BRANCH  90  93
ATOM     93  C17 non d ame      -7.645  11.821  67.909  0.00  0.00    -0.059 C 
ATOM     94  H23 non d ame      -8.185  11.487  67.022  0.00  0.00     0.038 H 
BRANCH  93  95
ATOM     95  C18 non d ame      -8.221  13.213  68.321  0.00  0.00    -0.073 C 
ATOM     96  H24 non d ame      -9.130  13.072  68.905  0.00  0.00     0.028 H 
ATOM     97  H25 non d ame      -7.484  13.748  68.920  0.00  0.00     0.028 H 
ATOM     98  H26 non d ame      -8.450  13.791  67.425  0.00  0.00     0.028 H 
ENDBRANCH  93  95
BRANCH  93  99
ATOM     99  C19 non d ame      -6.167  11.935  67.525  0.00  0.00    -0.073 C 
ATOM    100  H27 non d ame      -5.580  11.246  68.134  0.00  0.00     0.028 H 
ATOM    101  H28 non d ame      -6.045  11.683  66.471  0.00  0.00     0.028 H 
ATOM    102  H29 non d ame      -5.825  12.955  67.697  0.00  0.00     0.028 H 
ENDBRANCH  93  99
ENDBRANCH  90  93
ENDBRANCH   1  90
TORSDOF 26
ENDMDL
MODEL 4
REMARK VINA RESULT:      -6.4      2.343      7.360
REMARK  26 active torsions:
REMARK  status: ('A' for Active; 'I' for Inactive)
REMARK    1  A    between atoms: C2_2  and  C3_3 
REMARK    2  A    between atoms: C4_6  and  C5_7 
REMARK       I    between atoms: C5_7  and  N2_9 
REMARK    3  A    between atoms: N2_9  and  C6_10 
REMARK    4  A    between atoms: C6_10  and  C7_11 
REMARK    5  A    between atoms: C6_10  and  C8_13 
REMARK       I    between atoms: C7_11  and  N3_14 
REMARK    6  A    between atoms: N3_14  and  C9_15 
REMARK    7  A    between atoms: C9_15  and  C10_16 
REMARK    8  A    between atoms: C9_15  and  C11_18 
REMARK       I    between atoms: C10_16  and  N4_21 
REMARK    9  A    between atoms: C11_18  and  C12_19 
REMARK   10  A    between atoms: C11_18  and  C13_20 
REMARK   11  A    between atoms: N4_21  and  C14_22 
REMARK   12  A    between atoms: C14_22  and  C15_23 
REMARK   13  A    between atoms: C14_22  and  C16_25 
REMARK       I    between atoms: C15_23  and  N6_40 
REMARK   14  A    between atoms: C16_25  and  C17_26 
REMARK   15  A    between atoms: C17_26  and  C18_27 
REMARK   16  A    between atoms: C17_26  and  C19_28 
REMARK   17  A    between atoms: C20_29  and  C21_30 
REMARK   18  A    between atoms: C20_29  and  C24_33 
REMARK   19  A    between atoms: C20_29  and  N6_40 
REMARK   20  A    between atoms: C21_30  and  C22_31 
REMARK   21  A    between atoms: C22_31  and  C23_32 
REMARK   22  A    between atoms: C23_32  and  O8_43 
REMARK   23  A    between atoms: C24_33  and  C25_34 
REMARK   24  A    between atoms: C28_38  and  O6_39 
REMARK   25  A    between atoms: C29_42  and  O8_43 
REMARK   26  A    between atoms: C29_42  and  C35_49 
ROOT
ATOM      1  C14 non d ame      -9.959  11.965  65.796  0.00  0.00     0.089 C 
ATOM      2  H20 non d ame      -9.820  12.251  64.753  0.00  0.00     0.087 H 
ENDROOT
BRANCH   1   3
ATOM      3  N4  non d ame      -9.325  10.668  65.983  0.00  0.00    -0.346 N 
ATOM      4  C10 non d ame      -8.990   9.806  64.792  0.00  0.00     0.241 C 
ATOM      5  O4  non d ame      -9.243  10.175  63.693  0.00  0.00    -0.271 OA
ATOM      6  H19 non d ame      -9.121  10.371  66.926  0.00  0.00     0.163 HD
BRANCH   4   7
ATOM      7  C9  non d ame      -8.329   8.469  65.003  0.00  0.00     0.092 C 
ATOM      8  H11 non d ame      -7.424   8.606  65.596  0.00  0.00     0.088 H 
BRANCH   7   9
ATOM      9  N3  non d ame      -9.222   7.598  65.773  0.00  0.00    -0.346 N 
ATOM     10  C7  non d ame      -8.946   7.330  67.163  0.00  0.00     0.240 C 
ATOM     11  O3  non d ame      -8.009   7.806  67.678  0.00  0.00    -0.271 OA
ATOM     12  H10 non d ame     -10.034   7.178  65.341  0.00  0.00     0.163 HD
BRANCH  10  13
ATOM     13  C6  non d ame      -9.899   6.399  67.975  0.00  0.00     0.086 C 
ATOM     14  H6  non d ame      -9.377   5.824  68.739  0.00  0.00     0.086 H 
BRANCH  13  15
ATOM     15  N2  non d ame     -10.880   7.218  68.669  0.00  0.00    -0.343 N 
ATOM     16  C5  non d ame     -10.601   7.679  70.031  0.00  0.00     0.273 C 
ATOM     17  O2  non d ame      -9.586   7.384  70.560  0.00  0.00    -0.266 OA
ATOM     18  H5  non d ame     -11.745   7.464  68.210  0.00  0.00     0.163 HD
BRANCH  16  19
ATOM     19  C4  non d ame     -11.627   8.547  70.775  0.00  0.00     0.154 A 
ATOM     20  C1  non d ame     -11.680   9.976  70.821  0.00  0.00    -0.017 A 
ATOM     21  C2  non d ame     -12.800  10.273  71.629  0.00  0.00     0.077 A 
ATOM     22  H1  non d ame     -11.008  10.689  70.342  0.00  0.00     0.091 H 
ATOM     23  O1  non d ame     -13.323   9.140  71.998  0.00  0.00    -0.218 OA
ATOM     24  N1  non d ame     -12.656   8.118  71.512  0.00  0.00    -0.123 NA
BRANCH  21  25
ATOM     25  C3  non d ame     -13.303  11.662  71.999  0.00  0.00    -0.029 C 
ATOM     26  H2  non d ame     -12.746  12.412  71.436  0.00  0.00     0.036 H 
ATOM     27  H3  non d ame     -14.363  11.740  71.760  0.00  0.00     0.036 H 
ATOM     28  H4  non d ame     -13.158  11.829  73.067  0.00  0.00     0.036 H 
ENDBRANCH  21  25
ENDBRANCH  16  19
ENDBRANCH  13  15
BRANCH  13  29
ATOM     29  C8  non d ame     -10.594   5.445  67.038  0.00  0.00    -0.049 C 
ATOM     30  H7  non d ame     -10.103   5.469  66.065  0.00  0.00     0.030 H 
ATOM     31  H8  non d ame     -10.545   4.435  67.445  0.00  0.00     0.030 H 
ATOM     32  H9  non d ame     -11.637   5.741  66.925  0.00  0.00     0.030 H 
ENDBRANCH  13  29
ENDBRANCH  10  13
ENDBRANCH   7   9
BRANCH   7  33
ATOM     33  C11 non d ame      -8.031   7.814  63.623  0.00  0.00    -0.033 C 
ATOM     34  H12 non d ame      -8.778   8.178  62.918  0.00  0.00     0.042 H 
BRANCH  33  35
ATOM     35  C12 non d ame      -6.630   8.238  63.083  0.00  0.00    -0.071 C 
ATOM     36  H13 non d ame      -6.711   9.201  62.579  0.00  0.00     0.028 H 
ATOM     37  H14 non d ame      -5.930   8.321  63.914  0.00  0.00     0.028 H 
ATOM     38  H15 non d ame      -6.271   7.488  62.378  0.00  0.00     0.028 H 
ENDBRANCH  33  35
BRANCH  33  39
ATOM     39  C13 non d ame      -8.161   6.258  63.703  0.00  0.00    -0.071 C 
ATOM     40  H16 non d ame      -7.824   5.817  62.765  0.00  0.00     0.028 H 
ATOM     41  H17 non d ame      -7.546   5.884  64.522  0.00  0.00     0.028 H 
ATOM     42  H18 non d ame      -9.202   5.990  63.878  0.00  0.00     0.028 H 
ENDBRANCH  33  39
ENDBRANCH   7  33
ENDBRANCH   4   7
ENDBRANCH   1   3
BRANCH   1  43
ATOM     43  C15 non d ame      -9.306  12.981  66.776  0.00  0.00     0.240 C 
ATOM     44  O5  non d ame      -9.135  12.680  67.913  0.00  0.00    -0.271 OA
ATOM     45  N6  non d ame      -8.885  14.328  66.294  0.00  0.00    -0.355 N 
ATOM     46  H46 non d ame      -9.020  14.593  65.329  0.00  0.00     0.162 HD
BRANCH  45  47
ATOM     47  C20 non d ame      -8.263  15.282  67.238  0.00  0.00     0.013 C 
ATOM     48  H30 non d ame      -8.731  15.143  68.212  0.00  0.00     0.072 H 
BRANCH  47  49
ATOM     49  C21 non d ame      -8.499  16.693  66.748  0.00  0.00    -0.038 C 
ATOM     50  H31 non d ame      -8.099  17.345  67.525  0.00  0.00     0.036 H 
ATOM     51  H32 non d ame      -8.084  16.728  65.740  0.00  0.00     0.036 H 
BRANCH  49  52
ATOM     52  C22 non d ame      -9.998  17.040  66.616  0.00  0.00     0.018 C 
ATOM     53  H33 non d ame     -10.044  17.906  65.956  0.00  0.00     0.048 H 
ATOM     54  H34 non d ame     -10.492  16.110  66.330  0.00  0.00     0.048 H 
BRANCH  52  55
ATOM     55  C23 non d ame     -10.658  17.482  67.951  0.00  0.00     0.259 C 
ATOM     56  O7  non d ame     -10.434  18.556  68.408  0.00  0.00    -0.265 OA
BRANCH  55  57
ATOM     57  O8  non d ame     -11.526  16.583  68.631  0.00  0.00    -0.317 OA
BRANCH  57  58
ATOM     58  C29 non d ame     -10.922  15.921  69.746  0.00  0.00     0.052 C 
ATOM     59  H47 non d ame     -10.656  14.926  69.389  0.00  0.00     0.082 H 
ATOM     60  H48 non d ame     -10.145  16.596  70.104  0.00  0.00     0.082 H 
BRANCH  58  61
ATOM     61  C35 non d ame     -11.996  15.775  70.856  0.00  0.00    -0.034 A 
ATOM     62  C30 non d ame     -13.243  15.238  70.553  0.00  0.00    -0.075 A 
ATOM     63  C31 non d ame     -14.208  15.107  71.550  0.00  0.00    -0.082 A 
ATOM     64  H49 non d ame     -13.464  14.920  69.534  0.00  0.00     0.084 H 
ATOM     65  C32 non d ame     -13.924  15.518  72.855  0.00  0.00    -0.083 A 
ATOM     66  H50 non d ame     -15.184  14.684  71.309  0.00  0.00     0.083 H 
ATOM     67  C33 non d ame     -12.679  16.056  73.152  0.00  0.00    -0.082 A 
ATOM     68  H51 non d ame     -14.673  15.419  73.641  0.00  0.00     0.083 H 
ATOM     69  C34 non d ame     -11.711  16.187  72.159  0.00  0.00    -0.075 A 
ATOM     70  H52 non d ame     -12.461  16.378  74.171  0.00  0.00     0.083 H 
ATOM     71  H53 non d ame     -10.735  16.610  72.401  0.00  0.00     0.084 H 
ENDBRANCH  58  61
ENDBRANCH  57  58
ENDBRANCH  55  57
ENDBRANCH  52  55
ENDBRANCH  49  52
ENDBRANCH  47  49
BRANCH  47  72
ATOM     72  C24 non d ame      -6.762  15.017  67.327  0.00  0.00    -0.039 C 
ATOM     73  H35 non d ame      -6.587  14.132  66.715  0.00  0.00     0.036 H 
ATOM     74  H36 non d ame      -6.285  15.962  67.067  0.00  0.00     0.036 H 
BRANCH  72  75
ATOM     75  C25 non d ame      -6.312  14.656  68.821  0.00  0.00    -0.001 C 
ATOM     76  C26 non d ame      -6.205  16.028  69.721  0.00  0.00    -0.035 C 
ATOM     77  C27 non d ame      -4.996  16.057  70.331  0.00  0.00     0.085 C 
ATOM     78  H38 non d ame      -6.183  16.901  69.070  0.00  0.00     0.036 H 
ATOM     79  H39 non d ame      -6.909  15.985  70.553  0.00  0.00     0.036 H 
ATOM     80  N5  non d ame      -4.144  14.998  69.673  0.00  0.00    -0.049 N 
ATOM     81  H40 non d ame      -4.579  17.039  70.105  0.00  0.00     0.075 H 
ATOM     82  H41 non d ame      -5.184  15.769  71.365  0.00  0.00     0.075 H 
ATOM     83  C28 non d ame      -5.162  14.068  68.834  0.00  0.00     0.193 C 
ATOM     84  H42 non d ame      -3.539  15.480  69.024  0.00  0.00     0.280 HD
ATOM     85  H43 non d ame      -3.746  14.446  70.420  0.00  0.00     0.280 HD
ATOM     86  H44 non d ame      -5.447  13.083  69.205  0.00  0.00     0.129 H 
ATOM     87  H37 non d ame      -6.891  13.832  69.239  0.00  0.00     0.046 H 
BRANCH  83  88
ATOM     88  O6  non d ame      -4.655  13.847  67.516  0.00  0.00    -0.369 OA
ATOM     89  H45 non d ame      -3.697  13.891  67.531  0.00  0.00     0.212 HD
ENDBRANCH  83  88
ENDBRANCH  72  75
ENDBRANCH  47  72
ENDBRANCH  45  47
ENDBRANCH   1  43
BRANCH   1  90
ATOM     90  C16 non d ame     -11.443  11.840  66.103  0.00  0.00    -0.035 C 
ATOM     91  H21 non d ame     -11.687  10.792  65.928  0.00  0.00     0.037 H 
ATOM     92  H22 non d ame     -11.569  12.270  67.097  0.00  0.00     0.037 H 
BRANCH  90  93
ATOM     93  C17 non d ame     -12.353  12.672  65.144  0.00  0.00    -0.059 C 
ATOM     94  H23 non d ame     -13.307  12.152  65.060  0.00  0.00     0.038 H 
BRANCH  93  95
ATOM     95  C18 non d ame     -12.638  14.105  65.697  0.00  0.00    -0.073 C 
ATOM     96  H24 non d ame     -13.486  14.537  65.166  0.00  0.00     0.028 H 
ATOM     97  H25 non d ame     -12.868  14.044  66.761  0.00  0.00     0.028 H 
ATOM     98  H26 non d ame     -11.759  14.732  65.551  0.00  0.00     0.028 H 
ENDBRANCH  93  95
BRANCH  93  99
ATOM     99  C19 non d ame     -11.748  12.741  63.739  0.00  0.00    -0.073 C 
ATOM    100  H27 non d ame     -12.124  13.626  63.225  0.00  0.00     0.028 H 
ATOM    101  H28 non d ame     -10.662  12.798  63.815  0.00  0.00     0.028 H 
ATOM    102  H29 non d ame     -12.027  11.849  63.179  0.00  0.00     0.028 H 
ENDBRANCH  93  99
ENDBRANCH  90  93
ENDBRANCH   1  90
TORSDOF 26
ENDMDL
MODEL 5
REMARK VINA RESULT:      -6.3      3.228      9.134
REMARK  26 active torsions:
REMARK  status: ('A' for Active; 'I' for Inactive)
REMARK    1  A    between atoms: C2_2  and  C3_3 
REMARK    2  A    between atoms: C4_6  and  C5_7 
REMARK       I    between atoms: C5_7  and  N2_9 
REMARK    3  A    between atoms: N2_9  and  C6_10 
REMARK    4  A    between atoms: C6_10  and  C7_11 
REMARK    5  A    between atoms: C6_10  and  C8_13 
REMARK       I    between atoms: C7_11  and  N3_14 
REMARK    6  A    between atoms: N3_14  and  C9_15 
REMARK    7  A    between atoms: C9_15  and  C10_16 
REMARK    8  A    between atoms: C9_15  and  C11_18 
REMARK       I    between atoms: C10_16  and  N4_21 
REMARK    9  A    between atoms: C11_18  and  C12_19 
REMARK   10  A    between atoms: C11_18  and  C13_20 
REMARK   11  A    between atoms: N4_21  and  C14_22 
REMARK   12  A    between atoms: C14_22  and  C15_23 
REMARK   13  A    between atoms: C14_22  and  C16_25 
REMARK       I    between atoms: C15_23  and  N6_40 
REMARK   14  A    between atoms: C16_25  and  C17_26 
REMARK   15  A    between atoms: C17_26  and  C18_27 
REMARK   16  A    between atoms: C17_26  and  C19_28 
REMARK   17  A    between atoms: C20_29  and  C21_30 
REMARK   18  A    between atoms: C20_29  and  C24_33 
REMARK   19  A    between atoms: C20_29  and  N6_40 
REMARK   20  A    between atoms: C21_30  and  C22_31 
REMARK   21  A    between atoms: C22_31  and  C23_32 
REMARK   22  A    between atoms: C23_32  and  O8_43 
REMARK   23  A    between atoms: C24_33  and  C25_34 
REMARK   24  A    between atoms: C28_38  and  O6_39 
REMARK   25  A    between atoms: C29_42  and  O8_43 
REMARK   26  A    between atoms: C29_42  and  C35_49 
ROOT
ATOM      1  C14 non d ame      -9.444   5.886  68.188  0.00  0.00     0.089 C 
ATOM      2  H20 non d ame     -10.154   5.460  67.479  0.00  0.00     0.087 H 
ENDROOT
BRANCH   1   3
ATOM      3  N4  non d ame      -8.814   7.029  67.546  0.00  0.00    -0.346 N 
ATOM      4  C10 non d ame      -9.643   8.014  66.760  0.00  0.00     0.241 C 
ATOM      5  O4  non d ame     -10.816   7.863  66.657  0.00  0.00    -0.271 OA
ATOM      6  H19 non d ame      -7.814   7.139  67.644  0.00  0.00     0.163 HD
BRANCH   4   7
ATOM      7  C9  non d ame      -8.975   9.195  66.106  0.00  0.00     0.092 C 
ATOM      8  H11 non d ame      -8.771   8.959  65.062  0.00  0.00     0.088 H 
BRANCH   7   9
ATOM      9  N3  non d ame      -9.887  10.343  66.121  0.00  0.00    -0.346 N 
ATOM     10  C7  non d ame     -10.429  10.848  64.883  0.00  0.00     0.240 C 
ATOM     11  O3  non d ame     -10.140  10.345  63.867  0.00  0.00    -0.271 OA
ATOM     12  H10 non d ame     -10.145  10.788  66.990  0.00  0.00     0.163 HD
BRANCH  10  13
ATOM     13  C6  non d ame     -11.397  12.072  64.905  0.00  0.00     0.086 C 
ATOM     14  H6  non d ame     -12.226  11.941  65.600  0.00  0.00     0.086 H 
BRANCH  13  15
ATOM     15  N2  non d ame     -10.663  13.246  65.349  0.00  0.00    -0.343 N 
ATOM     16  C5  non d ame     -11.351  14.271  66.137  0.00  0.00     0.273 C 
ATOM     17  O2  non d ame     -12.495  14.143  66.406  0.00  0.00    -0.266 OA
ATOM     18  H5  non d ame      -9.686  13.348  65.113  0.00  0.00     0.163 HD
BRANCH  16  19
ATOM     19  C4  non d ame     -10.588  15.516  66.615  0.00  0.00     0.154 A 
ATOM     20  C1  non d ame      -9.515  16.182  65.943  0.00  0.00    -0.017 A 
ATOM     21  C2  non d ame      -9.168  17.258  66.791  0.00  0.00     0.077 A 
ATOM     22  H1  non d ame      -9.058  15.925  64.988  0.00  0.00     0.091 H 
ATOM     23  O1  non d ame      -9.956  17.207  67.825  0.00  0.00    -0.218 OA
ATOM     24  N1  non d ame     -10.793  16.198  67.745  0.00  0.00    -0.123 NA
BRANCH  21  25
ATOM     25  C3  non d ame      -8.073  18.287  66.540  0.00  0.00    -0.029 C 
ATOM     26  H2  non d ame      -8.474  19.289  66.697  0.00  0.00     0.036 H 
ATOM     27  H3  non d ame      -7.247  18.114  67.229  0.00  0.00     0.036 H 
ATOM     28  H4  non d ame      -7.716  18.195  65.514  0.00  0.00     0.036 H 
ENDBRANCH  21  25
ENDBRANCH  16  19
ENDBRANCH  13  15
BRANCH  13  29
ATOM     29  C8  non d ame     -11.951  12.302  63.522  0.00  0.00    -0.049 C 
ATOM     30  H7  non d ame     -12.815  12.965  63.582  0.00  0.00     0.030 H 
ATOM     31  H8  non d ame     -11.185  12.760  62.895  0.00  0.00     0.030 H 
ATOM     32  H9  non d ame     -12.254  11.349  63.089  0.00  0.00     0.030 H 
ENDBRANCH  13  29
ENDBRANCH  10  13
ENDBRANCH   7   9
BRANCH   7  33
ATOM     33  C11 non d ame      -7.679   9.557  66.889  0.00  0.00    -0.033 C 
ATOM     34  H12 non d ame      -7.433   8.708  67.528  0.00  0.00     0.042 H 
BRANCH  33  35
ATOM     35  C12 non d ame      -6.475   9.780  65.922  0.00  0.00    -0.071 C 
ATOM     36  H13 non d ame      -6.780   9.546  64.901  0.00  0.00     0.028 H 
ATOM     37  H14 non d ame      -6.154  10.820  65.975  0.00  0.00     0.028 H 
ATOM     38  H15 non d ame      -5.650   9.130  66.213  0.00  0.00     0.028 H 
ENDBRANCH  33  35
BRANCH  33  39
ATOM     39  C13 non d ame      -7.907  10.801  67.805  0.00  0.00    -0.071 C 
ATOM     40  H16 non d ame      -8.617  11.477  67.330  0.00  0.00     0.028 H 
ATOM     41  H17 non d ame      -8.304  10.476  68.768  0.00  0.00     0.028 H 
ATOM     42  H18 non d ame      -6.960  11.318  67.958  0.00  0.00     0.028 H 
ENDBRANCH  33  39
ENDBRANCH   7  33
ENDBRANCH   4   7
ENDBRANCH   1   3
BRANCH   1  43
ATOM     43  C15 non d ame     -10.137   6.371  69.494  0.00  0.00     0.240 C 
ATOM     44  O5  non d ame     -11.082   5.785  69.914  0.00  0.00    -0.271 OA
ATOM     45  N6  non d ame      -9.618   7.561  70.225  0.00  0.00    -0.355 N 
ATOM     46  H46 non d ame      -8.813   8.064  69.881  0.00  0.00     0.162 HD
BRANCH  45  47
ATOM     47  C20 non d ame     -10.287   8.009  71.466  0.00  0.00     0.013 C 
ATOM     48  H30 non d ame     -10.941   7.205  71.803  0.00  0.00     0.072 H 
BRANCH  47  49
ATOM     49  C21 non d ame     -11.101   9.249  71.174  0.00  0.00    -0.038 C 
ATOM     50  H31 non d ame     -12.115   8.897  70.979  0.00  0.00     0.036 H 
ATOM     51  H32 non d ame     -10.910   9.928  72.005  0.00  0.00     0.036 H 
BRANCH  49  52
ATOM     52  C22 non d ame     -10.640   9.982  69.896  0.00  0.00     0.018 C 
ATOM     53  H33 non d ame      -9.726  10.509  70.171  0.00  0.00     0.048 H 
ATOM     54  H34 non d ame     -10.617   9.224  69.113  0.00  0.00     0.048 H 
BRANCH  52  55
ATOM     55  C23 non d ame     -11.633  11.073  69.406  0.00  0.00     0.259 C 
ATOM     56  O7  non d ame     -11.985  11.103  68.272  0.00  0.00    -0.265 OA
BRANCH  55  57
ATOM     57  O8  non d ame     -12.109  12.046  70.328  0.00  0.00    -0.317 OA
BRANCH  57  58
ATOM     58  C29 non d ame     -11.997  13.393  69.862  0.00  0.00     0.052 C 
ATOM     59  H47 non d ame     -10.933  13.562  69.699  0.00  0.00     0.082 H 
ATOM     60  H48 non d ame     -12.695  13.477  69.030  0.00  0.00     0.082 H 
BRANCH  58  61
ATOM     61  C35 non d ame     -12.475  14.335  71.000  0.00  0.00    -0.034 A 
ATOM     62  C30 non d ame     -13.825  14.400  71.329  0.00  0.00    -0.075 A 
ATOM     63  C31 non d ame     -14.255  15.245  72.351  0.00  0.00    -0.082 A 
ATOM     64  H49 non d ame     -14.546  13.787  70.788  0.00  0.00     0.084 H 
ATOM     65  C32 non d ame     -13.329  16.031  73.042  0.00  0.00    -0.083 A 
ATOM     66  H50 non d ame     -15.313  15.292  72.608  0.00  0.00     0.083 H 
ATOM     67  C33 non d ame     -11.983  15.965  72.708  0.00  0.00    -0.082 A 
ATOM     68  H51 non d ame     -13.656  16.694  73.843  0.00  0.00     0.083 H 
ATOM     69  C34 non d ame     -11.549  15.120  71.689  0.00  0.00    -0.075 A 
ATOM     70  H52 non d ame     -11.263  16.581  73.248  0.00  0.00     0.083 H 
ATOM     71  H53 non d ame     -10.490  15.073  71.432  0.00  0.00     0.084 H 
ENDBRANCH  58  61
ENDBRANCH  57  58
ENDBRANCH  55  57
ENDBRANCH  52  55
ENDBRANCH  49  52
ENDBRANCH  47  49
BRANCH  47  72
ATOM     72  C24 non d ame      -9.241   8.324  72.532  0.00  0.00    -0.039 C 
ATOM     73  H35 non d ame      -8.370   8.689  71.986  0.00  0.00     0.036 H 
ATOM     74  H36 non d ame      -9.744   8.973  73.250  0.00  0.00     0.036 H 
BRANCH  72  75
ATOM     75  C25 non d ame      -8.785   7.008  73.323  0.00  0.00    -0.001 C 
ATOM     76  C26 non d ame     -10.098   6.083  73.674  0.00  0.00    -0.035 C 
ATOM     77  C27 non d ame     -10.081   5.784  74.995  0.00  0.00     0.085 C 
ATOM     78  H38 non d ame     -11.010   6.668  73.556  0.00  0.00     0.036 H 
ATOM     79  H39 non d ame     -10.009   5.109  73.192  0.00  0.00     0.036 H 
ATOM     80  N5  non d ame      -9.060   6.690  75.639  0.00  0.00    -0.049 N 
ATOM     81  H40 non d ame     -11.073   6.047  75.366  0.00  0.00     0.075 H 
ATOM     82  H41 non d ame      -9.732   4.754  75.057  0.00  0.00     0.075 H 
ATOM     83  C28 non d ame      -8.190   7.309  74.429  0.00  0.00     0.193 C 
ATOM     84  H42 non d ame      -9.577   7.437  76.080  0.00  0.00     0.280 HD
ATOM     85  H43 non d ame      -8.460   6.095  76.194  0.00  0.00     0.280 HD
ATOM     86  H44 non d ame      -7.186   6.938  74.221  0.00  0.00     0.129 H 
ATOM     87  H37 non d ame      -7.941   6.510  72.845  0.00  0.00     0.046 H 
BRANCH  83  88
ATOM     88  O6  non d ame      -8.047   8.721  74.597  0.00  0.00    -0.369 OA
ATOM     89  H45 non d ame      -7.116   8.944  74.656  0.00  0.00     0.212 HD
ENDBRANCH  83  88
ENDBRANCH  72  75
ENDBRANCH  47  72
ENDBRANCH  45  47
ENDBRANCH   1  43
BRANCH   1  90
ATOM     90  C16 non d ame      -8.377   4.858  68.528  0.00  0.00    -0.035 C 
ATOM     91  H21 non d ame      -7.452   5.425  68.633  0.00  0.00     0.037 H 
ATOM     92  H22 non d ame      -8.773   4.300  69.377  0.00  0.00     0.037 H 
BRANCH  90  93
ATOM     93  C17 non d ame      -8.128   3.814  67.393  0.00  0.00    -0.059 C 
ATOM     94  H23 non d ame      -8.151   4.347  66.443  0.00  0.00     0.038 H 
BRANCH  93  95
ATOM     95  C18 non d ame      -6.730   3.127  67.520  0.00  0.00    -0.073 C 
ATOM     96  H24 non d ame      -6.705   2.520  68.424  0.00  0.00     0.028 H 
ATOM     97  H25 non d ame      -6.557   2.492  66.650  0.00  0.00     0.028 H 
ATOM     98  H26 non d ame      -5.954   3.891  67.572  0.00  0.00     0.028 H 
ENDBRANCH  93  95
BRANCH  93  99
ATOM     99  C19 non d ame      -9.246   2.770  67.356  0.00  0.00    -0.073 C 
ATOM    100  H27 non d ame      -8.833   1.805  67.061  0.00  0.00     0.028 H 
ATOM    101  H28 non d ame      -9.697   2.685  68.345  0.00  0.00     0.028 H 
ATOM    102  H29 non d ame     -10.005   3.076  66.636  0.00  0.00     0.028 H 
ENDBRANCH  93  99
ENDBRANCH  90  93
ENDBRANCH   1  90
TORSDOF 26
ENDMDL
MODEL 6
REMARK VINA RESULT:      -6.2      2.482      8.416
REMARK  26 active torsions:
REMARK  status: ('A' for Active; 'I' for Inactive)
REMARK    1  A    between atoms: C2_2  and  C3_3 
REMARK    2  A    between atoms: C4_6  and  C5_7 
REMARK       I    between atoms: C5_7  and  N2_9 
REMARK    3  A    between atoms: N2_9  and  C6_10 
REMARK    4  A    between atoms: C6_10  and  C7_11 
REMARK    5  A    between atoms: C6_10  and  C8_13 
REMARK       I    between atoms: C7_11  and  N3_14 
REMARK    6  A    between atoms: N3_14  and  C9_15 
REMARK    7  A    between atoms: C9_15  and  C10_16 
REMARK    8  A    between atoms: C9_15  and  C11_18 
REMARK       I    between atoms: C10_16  and  N4_21 
REMARK    9  A    between atoms: C11_18  and  C12_19 
REMARK   10  A    between atoms: C11_18  and  C13_20 
REMARK   11  A    between atoms: N4_21  and  C14_22 
REMARK   12  A    between atoms: C14_22  and  C15_23 
REMARK   13  A    between atoms: C14_22  and  C16_25 
REMARK       I    between atoms: C15_23  and  N6_40 
REMARK   14  A    between atoms: C16_25  and  C17_26 
REMARK   15  A    between atoms: C17_26  and  C18_27 
REMARK   16  A    between atoms: C17_26  and  C19_28 
REMARK   17  A    between atoms: C20_29  and  C21_30 
REMARK   18  A    between atoms: C20_29  and  C24_33 
REMARK   19  A    between atoms: C20_29  and  N6_40 
REMARK   20  A    between atoms: C21_30  and  C22_31 
REMARK   21  A    between atoms: C22_31  and  C23_32 
REMARK   22  A    between atoms: C23_32  and  O8_43 
REMARK   23  A    between atoms: C24_33  and  C25_34 
REMARK   24  A    between atoms: C28_38  and  O6_39 
REMARK   25  A    between atoms: C29_42  and  O8_43 
REMARK   26  A    between atoms: C29_42  and  C35_49 
ROOT
ATOM      1  C14 non d ame      -7.381   9.281  63.436  0.00  0.00     0.089 C 
ATOM      2  H20 non d ame      -6.938   9.942  62.690  0.00  0.00     0.087 H 
ENDROOT
BRANCH   1   3
ATOM      3  N4  non d ame      -6.494   9.264  64.589  0.00  0.00    -0.346 N 
ATOM      4  C10 non d ame      -5.354  10.246  64.688  0.00  0.00     0.241 C 
ATOM      5  O4  non d ame      -5.168  11.039  63.825  0.00  0.00    -0.271 OA
ATOM      6  H19 non d ame      -6.667   8.579  65.311  0.00  0.00     0.163 HD
BRANCH   4   7
ATOM      7  C9  non d ame      -4.448  10.217  65.891  0.00  0.00     0.092 C 
ATOM      8  H11 non d ame      -3.539  10.776  65.669  0.00  0.00     0.088 H 
BRANCH   7   9
ATOM      9  N3  non d ame      -5.107  10.889  67.015  0.00  0.00    -0.346 N 
ATOM     10  C7  non d ame      -4.796  12.265  67.314  0.00  0.00     0.240 C 
ATOM     11  O3  non d ame      -4.016  12.846  66.662  0.00  0.00    -0.271 OA
ATOM     12  H10 non d ame      -5.781  10.401  67.588  0.00  0.00     0.163 HD
BRANCH  10  13
ATOM     13  C6  non d ame      -5.498  12.974  68.514  0.00  0.00     0.086 C 
ATOM     14  H6  non d ame      -4.817  13.598  69.092  0.00  0.00     0.086 H 
BRANCH  13  15
ATOM     15  N2  non d ame      -6.534  13.855  68.000  0.00  0.00    -0.343 N 
ATOM     16  C5  non d ame      -6.274  15.293  67.901  0.00  0.00     0.273 C 
ATOM     17  O2  non d ame      -5.230  15.732  68.240  0.00  0.00    -0.266 OA
ATOM     18  H5  non d ame      -7.424  13.472  67.715  0.00  0.00     0.163 HD
BRANCH  16  19
ATOM     19  C4  non d ame      -7.360  16.235  67.358  0.00  0.00     0.154 A 
ATOM     20  C1  non d ame      -8.516  16.714  68.052  0.00  0.00    -0.017 A 
ATOM     21  C2  non d ame      -9.183  17.541  67.121  0.00  0.00     0.077 A 
ATOM     22  H1  non d ame      -8.824  16.495  69.075  0.00  0.00     0.091 H 
ATOM     23  O1  non d ame      -8.483  17.532  66.024  0.00  0.00    -0.218 OA
ATOM     24  N1  non d ame      -7.415  16.778  66.138  0.00  0.00    -0.123 NA
BRANCH  21  25
ATOM     25  C3  non d ame     -10.481  18.301  67.358  0.00  0.00    -0.029 C 
ATOM     26  H2  non d ame     -10.274  19.202  67.937  0.00  0.00     0.036 H 
ATOM     27  H3  non d ame     -10.920  18.578  66.400  0.00  0.00     0.036 H 
ATOM     28  H4  non d ame     -11.178  17.668  67.908  0.00  0.00     0.036 H 
ENDBRANCH  21  25
ENDBRANCH  16  19
ENDBRANCH  13  15
BRANCH  13  29
ATOM     29  C8  non d ame      -6.105  11.940  69.427  0.00  0.00    -0.049 C 
ATOM     30  H7  non d ame      -7.182  12.100  69.492  0.00  0.00     0.030 H 
ATOM     31  H8  non d ame      -5.909  10.944  69.030  0.00  0.00     0.030 H 
ATOM     32  H9  non d ame      -5.665  12.029  70.420  0.00  0.00     0.030 H 
ENDBRANCH  13  29
ENDBRANCH  10  13
ENDBRANCH   7   9
BRANCH   7  33
ATOM     33  C11 non d ame      -4.148   8.739  66.278  0.00  0.00    -0.033 C 
ATOM     34  H12 non d ame      -4.755   8.101  65.637  0.00  0.00     0.042 H 
BRANCH  33  35
ATOM     35  C12 non d ame      -2.652   8.377  66.020  0.00  0.00    -0.071 C 
ATOM     36  H13 non d ame      -2.153   9.217  65.536  0.00  0.00     0.028 H 
ATOM     37  H14 non d ame      -2.161   8.162  66.969  0.00  0.00     0.028 H 
ATOM     38  H15 non d ame      -2.597   7.501  65.375  0.00  0.00     0.028 H 
ENDBRANCH  33  35
BRANCH  33  39
ATOM     39  C13 non d ame      -4.550   8.457  67.761  0.00  0.00    -0.071 C 
ATOM     40  H16 non d ame      -5.409   9.072  68.028  0.00  0.00     0.028 H 
ATOM     41  H17 non d ame      -4.810   7.403  67.873  0.00  0.00     0.028 H 
ATOM     42  H18 non d ame      -3.713   8.696  68.417  0.00  0.00     0.028 H 
ENDBRANCH  33  39
ENDBRANCH   7  33
ENDBRANCH   4   7
ENDBRANCH   1   3
BRANCH   1  43
ATOM     43  C15 non d ame      -8.783   9.773  63.897  0.00  0.00     0.240 C 
ATOM     44  O5  non d ame      -9.647   9.932  63.096  0.00  0.00    -0.271 OA
ATOM     45  N6  non d ame      -9.052  10.038  65.339  0.00  0.00    -0.355 N 
ATOM     46  H46 non d ame      -8.328   9.902  66.029  0.00  0.00     0.162 HD
BRANCH  45  47
ATOM     47  C20 non d ame     -10.390  10.504  65.762  0.00  0.00     0.013 C 
ATOM     48  H30 non d ame     -11.101  10.238  64.979  0.00  0.00     0.072 H 
BRANCH  47  49
ATOM     49  C21 non d ame     -10.362  12.004  65.946  0.00  0.00    -0.038 C 
ATOM     50  H31 non d ame      -9.868  12.175  66.903  0.00  0.00     0.036 H 
ATOM     51  H32 non d ame      -9.928  12.405  65.029  0.00  0.00     0.036 H 
BRANCH  49  52
ATOM     52  C22 non d ame     -11.773  12.620  66.067  0.00  0.00     0.018 C 
ATOM     53  H33 non d ame     -12.053  12.918  65.056  0.00  0.00     0.048 H 
ATOM     54  H34 non d ame     -12.371  11.884  66.603  0.00  0.00     0.048 H 
BRANCH  52  55
ATOM     55  C23 non d ame     -11.819  13.916  66.923  0.00  0.00     0.259 C 
ATOM     56  O7  non d ame     -11.599  14.974  66.428  0.00  0.00    -0.265 OA
BRANCH  55  57
ATOM     57  O8  non d ame     -12.116  13.824  68.311  0.00  0.00    -0.317 OA
BRANCH  57  58
ATOM     58  C29 non d ame     -11.281  14.637  69.140  0.00  0.00     0.052 C 
ATOM     59  H47 non d ame     -10.333  14.103  69.217  0.00  0.00     0.082 H 
ATOM     60  H48 non d ame     -11.311  15.634  68.702  0.00  0.00     0.082 H 
BRANCH  58  61
ATOM     61  C35 non d ame     -11.924  14.701  70.551  0.00  0.00    -0.034 A 
ATOM     62  C30 non d ame     -11.672  15.787  71.383  0.00  0.00    -0.075 A 
ATOM     63  C31 non d ame     -12.250  15.845  72.650  0.00  0.00    -0.082 A 
ATOM     64  H49 non d ame     -11.023  16.594  71.041  0.00  0.00     0.084 H 
ATOM     65  C32 non d ame     -13.080  14.809  73.087  0.00  0.00    -0.083 A 
ATOM     66  H50 non d ame     -12.052  16.699  73.299  0.00  0.00     0.083 H 
ATOM     67  C33 non d ame     -13.326  13.725  72.254  0.00  0.00    -0.082 A 
ATOM     68  H51 non d ame     -13.536  14.847  74.076  0.00  0.00     0.083 H 
ATOM     69  C34 non d ame     -12.752  13.665  70.986  0.00  0.00    -0.075 A 
ATOM     70  H52 non d ame     -13.972  12.918  72.599  0.00  0.00     0.083 H 
ATOM     71  H53 non d ame     -12.951  12.811  70.338  0.00  0.00     0.084 H 
ENDBRANCH  58  61
ENDBRANCH  57  58
ENDBRANCH  55  57
ENDBRANCH  52  55
ENDBRANCH  49  52
ENDBRANCH  47  49
BRANCH  47  72
ATOM     72  C24 non d ame     -10.778   9.836  67.079  0.00  0.00    -0.039 C 
ATOM     73  H35 non d ame     -11.845  10.025  67.198  0.00  0.00     0.036 H 
ATOM     74  H36 non d ame     -10.411   8.812  67.004  0.00  0.00     0.036 H 
BRANCH  72  75
ATOM     75  C25 non d ame     -10.036  10.513  68.328  0.00  0.00    -0.001 C 
ATOM     76  C26 non d ame      -8.999   9.436  69.014  0.00  0.00    -0.035 C 
ATOM     77  C27 non d ame      -9.243   9.383  70.345  0.00  0.00     0.085 C 
ATOM     78  H38 non d ame      -9.228   8.427  68.672  0.00  0.00     0.036 H 
ATOM     79  H39 non d ame      -7.978   9.813  68.956  0.00  0.00     0.036 H 
ATOM     80  N5  non d ame     -10.563  10.077  70.580  0.00  0.00    -0.049 N 
ATOM     81  H40 non d ame      -9.351   8.324  70.580  0.00  0.00     0.075 H 
ATOM     82  H41 non d ame      -8.448   9.966  70.810  0.00  0.00     0.075 H 
ATOM     83  C28 non d ame     -10.883  10.893  69.225  0.00  0.00     0.193 C 
ATOM     84  H42 non d ame     -11.254   9.348  70.687  0.00  0.00     0.280 HD
ATOM     85  H43 non d ame     -10.409  10.740  71.326  0.00  0.00     0.280 HD
ATOM     86  H44 non d ame     -10.744  11.974  69.183  0.00  0.00     0.129 H 
ATOM     87  H37 non d ame      -9.640  11.499  68.087  0.00  0.00     0.046 H 
BRANCH  83  88
ATOM     88  O6  non d ame     -12.235  10.666  68.820  0.00  0.00    -0.369 OA
ATOM     89  H45 non d ame     -12.252  10.025  68.106  0.00  0.00     0.212 HD
ENDBRANCH  83  88
ENDBRANCH  72  75
ENDBRANCH  47  72
ENDBRANCH  45  47
ENDBRANCH   1  43
BRANCH   1  90
ATOM     90  C16 non d ame      -7.493   7.873  62.874  0.00  0.00    -0.035 C 
ATOM     91  H21 non d ame      -8.563   7.683  62.783  0.00  0.00     0.037 H 
ATOM     92  H22 non d ame      -6.861   7.866  61.986  0.00  0.00     0.037 H 
BRANCH  90  93
ATOM     93  C17 non d ame      -6.929   6.772  63.827  0.00  0.00    -0.059 C 
ATOM     94  H23 non d ame      -6.608   7.262  64.746  0.00  0.00     0.038 H 
BRANCH  93  95
ATOM     95  C18 non d ame      -8.010   5.710  64.206  0.00  0.00    -0.073 C 
ATOM     96  H24 non d ame      -7.638   4.713  63.968  0.00  0.00     0.028 H 
ATOM     97  H25 non d ame      -8.224   5.773  65.273  0.00  0.00     0.028 H 
ATOM     98  H26 non d ame      -8.922   5.902  63.640  0.00  0.00     0.028 H 
ENDBRANCH  93  95
BRANCH  93  99
ATOM     99  C19 non d ame      -5.696   6.100  63.217  0.00  0.00    -0.073 C 
ATOM    100  H27 non d ame      -5.895   5.038  63.070  0.00  0.00     0.028 H 
ATOM    101  H28 non d ame      -5.468   6.564  62.256  0.00  0.00     0.028 H 
ATOM    102  H29 non d ame      -4.846   6.221  63.888  0.00  0.00     0.028 H 
ENDBRANCH  93  99
ENDBRANCH  90  93
ENDBRANCH   1  90
TORSDOF 26
ENDMDL
MODEL 7
REMARK VINA RESULT:      -6.1      2.838      7.794
REMARK  26 active torsions:
REMARK  status: ('A' for Active; 'I' for Inactive)
REMARK    1  A    between atoms: C2_2  and  C3_3 
REMARK    2  A    between atoms: C4_6  and  C5_7 
REMARK       I    between atoms: C5_7  and  N2_9 
REMARK    3  A    between atoms: N2_9  and  C6_10 
REMARK    4  A    between atoms: C6_10  and  C7_11 
REMARK    5  A    between atoms: C6_10  and  C8_13 
REMARK       I    between atoms: C7_11  and  N3_14 
REMARK    6  A    between atoms: N3_14  and  C9_15 
REMARK    7  A    between atoms: C9_15  and  C10_16 
REMARK    8  A    between atoms: C9_15  and  C11_18 
REMARK       I    between atoms: C10_16  and  N4_21 
REMARK    9  A    between atoms: C11_18  and  C12_19 
REMARK   10  A    between atoms: C11_18  and  C13_20 
REMARK   11  A    between atoms: N4_21  and  C14_22 
REMARK   12  A    between atoms: C14_22  and  C15_23 
REMARK   13  A    between atoms: C14_22  and  C16_25 
REMARK       I    between atoms: C15_23  and  N6_40 
REMARK   14  A    between atoms: C16_25  and  C17_26 
REMARK   15  A    between atoms: C17_26  and  C18_27 
REMARK   16  A    between atoms: C17_26  and  C19_28 
REMARK   17  A    between atoms: C20_29  and  C21_30 
REMARK   18  A    between atoms: C20_29  and  C24_33 
REMARK   19  A    between atoms: C20_29  and  N6_40 
REMARK   20  A    between atoms: C21_30  and  C22_31 
REMARK   21  A    between atoms: C22_31  and  C23_32 
REMARK   22  A    between atoms: C23_32  and  O8_43 
REMARK   23  A    between atoms: C24_33  and  C25_34 
REMARK   24  A    between atoms: C28_38  and  O6_39 
REMARK   25  A    between atoms: C29_42  and  O8_43 
REMARK   26  A    between atoms: C29_42  and  C35_49 
ROOT
ATOM      1  C14 non d ame      -8.748   9.793  67.134  0.00  0.00     0.089 C 
ATOM      2  H20 non d ame      -9.428   9.095  66.645  0.00  0.00     0.087 H 
ENDROOT
BRANCH   1   3
ATOM      3  N4  non d ame      -9.398  11.096  67.152  0.00  0.00    -0.346 N 
ATOM      4  C10 non d ame     -10.891  11.200  67.337  0.00  0.00     0.241 C 
ATOM      5  O4  non d ame     -11.549  10.221  67.466  0.00  0.00    -0.271 OA
ATOM      6  H19 non d ame      -8.820  11.916  67.038  0.00  0.00     0.163 HD
BRANCH   4   7
ATOM      7  C9  non d ame     -11.545  12.556  67.359  0.00  0.00     0.092 C 
ATOM      8  H11 non d ame     -12.555  12.461  67.758  0.00  0.00     0.088 H 
BRANCH   7   9
ATOM      9  N3  non d ame     -10.804  13.443  68.261  0.00  0.00    -0.346 N 
ATOM     10  C7  non d ame     -11.491  14.109  69.341  0.00  0.00     0.240 C 
ATOM     11  O3  non d ame     -12.639  13.944  69.497  0.00  0.00    -0.271 OA
ATOM     12  H10 non d ame      -9.813  13.596  68.138  0.00  0.00     0.163 HD
BRANCH  10  13
ATOM     13  C6  non d ame     -10.697  15.053  70.296  0.00  0.00     0.086 C 
ATOM     14  H6  non d ame      -9.755  14.619  70.631  0.00  0.00     0.086 H 
BRANCH  13  15
ATOM     15  N2  non d ame     -10.362  16.274  69.582  0.00  0.00    -0.343 N 
ATOM     16  C5  non d ame      -9.066  16.383  68.909  0.00  0.00     0.273 C 
ATOM     17  O2  non d ame      -8.299  15.485  68.951  0.00  0.00    -0.266 OA
ATOM     18  H5  non d ame     -11.023  17.037  69.553  0.00  0.00     0.163 HD
BRANCH  16  19
ATOM     19  C4  non d ame      -8.699  17.667  68.149  0.00  0.00     0.154 A 
ATOM     20  C1  non d ame      -7.869  17.778  66.988  0.00  0.00    -0.017 A 
ATOM     21  C2  non d ame      -7.851  19.157  66.685  0.00  0.00     0.077 A 
ATOM     22  H1  non d ame      -7.359  16.979  66.449  0.00  0.00     0.091 H 
ATOM     23  O1  non d ame      -8.588  19.759  67.572  0.00  0.00    -0.218 OA
ATOM     24  N1  non d ame      -9.094  18.911  68.437  0.00  0.00    -0.123 NA
BRANCH  21  25
ATOM     25  C3  non d ame      -7.106  19.817  65.532  0.00  0.00    -0.029 C 
ATOM     26  H2  non d ame      -7.783  20.480  64.993  0.00  0.00     0.036 H 
ATOM     27  H3  non d ame      -6.268  20.393  65.923  0.00  0.00     0.036 H 
ATOM     28  H4  non d ame      -6.734  19.049  64.853  0.00  0.00     0.036 H 
ENDBRANCH  21  25
ENDBRANCH  16  19
ENDBRANCH  13  15
BRANCH  13  29
ATOM     29  C8  non d ame     -11.541  15.376  71.503  0.00  0.00    -0.049 C 
ATOM     30  H7  non d ame     -12.535  15.685  71.180  0.00  0.00     0.030 H 
ATOM     31  H8  non d ame     -11.623  14.492  72.136  0.00  0.00     0.030 H 
ATOM     32  H9  non d ame     -11.076  16.185  72.066  0.00  0.00     0.030 H 
ENDBRANCH  13  29
ENDBRANCH  10  13
ENDBRANCH   7   9
BRANCH   7  33
ATOM     33  C11 non d ame     -11.538  13.159  65.923  0.00  0.00    -0.033 C 
ATOM     34  H12 non d ame     -10.554  13.597  65.756  0.00  0.00     0.042 H 
BRANCH  33  35
ATOM     35  C12 non d ame     -11.749  12.054  64.842  0.00  0.00    -0.071 C 
ATOM     36  H13 non d ame     -11.294  11.123  65.180  0.00  0.00     0.028 H 
ATOM     37  H14 non d ame     -12.816  11.900  64.683  0.00  0.00     0.028 H 
ATOM     38  H15 non d ame     -11.283  12.367  63.907  0.00  0.00     0.028 H 
ENDBRANCH  33  35
BRANCH  33  39
ATOM     39  C13 non d ame     -12.602  14.295  65.788  0.00  0.00    -0.071 C 
ATOM     40  H16 non d ame     -13.439  14.090  66.455  0.00  0.00     0.028 H 
ATOM     41  H17 non d ame     -12.150  15.250  66.055  0.00  0.00     0.028 H 
ATOM     42  H18 non d ame     -12.959  14.337  64.759  0.00  0.00     0.028 H 
ENDBRANCH  33  39
ENDBRANCH   7  33
ENDBRANCH   4   7
ENDBRANCH   1   3
BRANCH   1  43
ATOM     43  C15 non d ame      -8.432   9.377  68.599  0.00  0.00     0.240 C 
ATOM     44  O5  non d ame      -7.406   9.707  69.099  0.00  0.00    -0.271 OA
ATOM     45  N6  non d ame      -9.414   8.574  69.383  0.00  0.00    -0.355 N 
ATOM     46  H46 non d ame     -10.291   8.292  68.971  0.00  0.00     0.162 HD
BRANCH  45  47
ATOM     47  C20 non d ame      -9.099   8.187  70.775  0.00  0.00     0.013 C 
ATOM     48  H30 non d ame      -8.071   8.486  70.982  0.00  0.00     0.072 H 
BRANCH  47  49
ATOM     49  C21 non d ame      -9.241   6.689  70.922  0.00  0.00    -0.038 C 
ATOM     50  H31 non d ame      -8.819   6.447  71.898  0.00  0.00     0.036 H 
ATOM     51  H32 non d ame     -10.288   6.471  70.712  0.00  0.00     0.036 H 
BRANCH  49  52
ATOM     52  C22 non d ame      -8.414   5.904  69.882  0.00  0.00     0.018 C 
ATOM     53  H33 non d ame      -7.745   6.633  69.424  0.00  0.00     0.048 H 
ATOM     54  H34 non d ame      -8.002   5.048  70.417  0.00  0.00     0.048 H 
BRANCH  52  55
ATOM     55  C23 non d ame      -9.264   5.315  68.722  0.00  0.00     0.259 C 
ATOM     56  O7  non d ame      -9.877   4.308  68.874  0.00  0.00    -0.265 OA
BRANCH  55  57
ATOM     57  O8  non d ame      -9.291   5.986  67.468  0.00  0.00    -0.317 OA
BRANCH  57  58
ATOM     58  C29 non d ame      -8.197   5.658  66.607  0.00  0.00     0.052 C 
ATOM     59  H47 non d ame      -7.686   6.600  66.408  0.00  0.00     0.082 H 
ATOM     60  H48 non d ame      -7.666   4.844  67.102  0.00  0.00     0.082 H 
BRANCH  58  61
ATOM     61  C35 non d ame      -8.780   5.123  65.272  0.00  0.00    -0.034 A 
ATOM     62  C30 non d ame      -8.196   5.485  64.062  0.00  0.00    -0.075 A 
ATOM     63  C31 non d ame      -8.720   5.005  62.863  0.00  0.00    -0.082 A 
ATOM     64  H49 non d ame      -7.328   6.143  64.054  0.00  0.00     0.084 H 
ATOM     65  C32 non d ame      -9.835   4.162  62.876  0.00  0.00    -0.083 A 
ATOM     66  H50 non d ame      -8.259   5.288  61.917  0.00  0.00     0.083 H 
ATOM     67  C33 non d ame     -10.416   3.807  64.086  0.00  0.00    -0.082 A 
ATOM     68  H51 non d ame     -10.251   3.782  61.943  0.00  0.00     0.083 H 
ATOM     69  C34 non d ame      -9.895   4.282  65.287  0.00  0.00    -0.075 A 
ATOM     70  H52 non d ame     -11.288   3.151  64.093  0.00  0.00     0.083 H 
ATOM     71  H53 non d ame     -10.356   3.998  66.233  0.00  0.00     0.084 H 
ENDBRANCH  58  61
ENDBRANCH  57  58
ENDBRANCH  55  57
ENDBRANCH  52  55
ENDBRANCH  49  52
ENDBRANCH  47  49
BRANCH  47  72
ATOM     72  C24 non d ame     -10.058   8.888  71.735  0.00  0.00    -0.039 C 
ATOM     73  H35 non d ame     -10.109   8.245  72.615  0.00  0.00     0.036 H 
ATOM     74  H36 non d ame      -9.684   9.907  71.827  0.00  0.00     0.036 H 
BRANCH  72  75
ATOM     75  C25 non d ame     -11.539   8.979  71.131  0.00  0.00    -0.001 C 
ATOM     76  C26 non d ame     -11.956  10.554  70.907  0.00  0.00    -0.035 C 
ATOM     77  C27 non d ame     -13.157  10.776  71.492  0.00  0.00     0.085 C 
ATOM     78  H38 non d ame     -11.278  11.203  71.462  0.00  0.00     0.036 H 
ATOM     79  H39 non d ame     -12.148  10.744  69.850  0.00  0.00     0.036 H 
ATOM     80  N5  non d ame     -13.444   9.585  72.374  0.00  0.00    -0.049 N 
ATOM     81  H40 non d ame     -13.017  11.657  72.119  0.00  0.00     0.075 H 
ATOM     82  H41 non d ame     -13.879  10.796  70.676  0.00  0.00     0.075 H 
ATOM     83  C28 non d ame     -12.402   8.437  71.924  0.00  0.00     0.193 C 
ATOM     84  H42 non d ame     -13.223   9.867  73.318  0.00  0.00     0.280 HD
ATOM     85  H43 non d ame     -14.379   9.278  72.144  0.00  0.00     0.280 HD
ATOM     86  H44 non d ame     -12.733   7.598  71.312  0.00  0.00     0.129 H 
ATOM     87  H37 non d ame     -11.684   8.303  70.288  0.00  0.00     0.046 H 
BRANCH  83  88
ATOM     88  O6  non d ame     -11.786   7.853  73.073  0.00  0.00    -0.369 OA
ATOM     89  H45 non d ame     -11.290   7.074  72.809  0.00  0.00     0.212 HD
ENDBRANCH  83  88
ENDBRANCH  72  75
ENDBRANCH  47  72
ENDBRANCH  45  47
ENDBRANCH   1  43
BRANCH   1  90
ATOM     90  C16 non d ame      -7.455   9.894  66.341  0.00  0.00    -0.035 C 
ATOM     91  H21 non d ame      -7.118  10.924  66.468  0.00  0.00     0.037 H 
ATOM     92  H22 non d ame      -6.835   9.071  66.695  0.00  0.00     0.037 H 
BRANCH  90  93
ATOM     93  C17 non d ame      -7.643   9.678  64.806  0.00  0.00    -0.059 C 
ATOM     94  H23 non d ame      -7.658  10.660  64.333  0.00  0.00     0.038 H 
BRANCH  93  95
ATOM     95  C18 non d ame      -6.467   8.864  64.177  0.00  0.00    -0.073 C 
ATOM     96  H24 non d ame      -5.948   8.312  64.960  0.00  0.00     0.028 H 
ATOM     97  H25 non d ame      -6.863   8.164  63.441  0.00  0.00     0.028 H 
ATOM     98  H26 non d ame      -5.771   9.547  63.691  0.00  0.00     0.028 H 
ENDBRANCH  93  95
BRANCH  93  99
ATOM     99  C19 non d ame      -8.988   9.010  64.509  0.00  0.00    -0.073 C 
ATOM    100  H27 non d ame      -9.562   9.636  63.824  0.00  0.00     0.028 H 
ATOM    101  H28 non d ame      -8.816   8.035  64.052  0.00  0.00     0.028 H 
ATOM    102  H29 non d ame      -9.544   8.883  65.437  0.00  0.00     0.028 H 
ENDBRANCH  93  99
ENDBRANCH  90  93
ENDBRANCH   1  90
TORSDOF 26
ENDMDL
MODEL 8
REMARK VINA RESULT:      -6.1      3.567      8.313
REMARK  26 active torsions:
REMARK  status: ('A' for Active; 'I' for Inactive)
REMARK    1  A    between atoms: C2_2  and  C3_3 
REMARK    2  A    between atoms: C4_6  and  C5_7 
REMARK       I    between atoms: C5_7  and  N2_9 
REMARK    3  A    between atoms: N2_9  and  C6_10 
REMARK    4  A    between atoms: C6_10  and  C7_11 
REMARK    5  A    between atoms: C6_10  and  C8_13 
REMARK       I    between atoms: C7_11  and  N3_14 
REMARK    6  A    between atoms: N3_14  and  C9_15 
REMARK    7  A    between atoms: C9_15  and  C10_16 
REMARK    8  A    between atoms: C9_15  and  C11_18 
REMARK       I    between atoms: C10_16  and  N4_21 
REMARK    9  A    between atoms: C11_18  and  C12_19 
REMARK   10  A    between atoms: C11_18  and  C13_20 
REMARK   11  A    between atoms: N4_21  and  C14_22 
REMARK   12  A    between atoms: C14_22  and  C15_23 
REMARK   13  A    between atoms: C14_22  and  C16_25 
REMARK       I    between atoms: C15_23  and  N6_40 
REMARK   14  A    between atoms: C16_25  and  C17_26 
REMARK   15  A    between atoms: C17_26  and  C18_27 
REMARK   16  A    between atoms: C17_26  and  C19_28 
REMARK   17  A    between atoms: C20_29  and  C21_30 
REMARK   18  A    between atoms: C20_29  and  C24_33 
REMARK   19  A    between atoms: C20_29  and  N6_40 
REMARK   20  A    between atoms: C21_30  and  C22_31 
REMARK   21  A    between atoms: C22_31  and  C23_32 
REMARK   22  A    between atoms: C23_32  and  O8_43 
REMARK   23  A    between atoms: C24_33  and  C25_34 
REMARK   24  A    between atoms: C28_38  and  O6_39 
REMARK   25  A    between atoms: C29_42  and  O8_43 
REMARK   26  A    between atoms: C29_42  and  C35_49 
ROOT
ATOM      1  C14 non d ame      -8.039   6.723  70.659  0.00  0.00     0.089 C 
ATOM      2  H20 non d ame      -7.355   7.384  71.192  0.00  0.00     0.087 H 
ENDROOT
BRANCH   1   3
ATOM      3  N4  non d ame      -9.268   7.464  70.420  0.00  0.00    -0.346 N 
ATOM      4  C10 non d ame      -9.553   8.732  71.185  0.00  0.00     0.241 C 
ATOM      5  O4  non d ame      -8.779   9.135  71.990  0.00  0.00    -0.271 OA
ATOM      6  H19 non d ame      -9.915   7.104  69.733  0.00  0.00     0.163 HD
BRANCH   4   7
ATOM      7  C9  non d ame     -10.828   9.490  70.921  0.00  0.00     0.092 C 
ATOM      8  H11 non d ame     -10.767  10.470  71.395  0.00  0.00     0.088 H 
BRANCH   7   9
ATOM      9  N3  non d ame     -10.974   9.714  69.480  0.00  0.00    -0.346 N 
ATOM     10  C7  non d ame     -11.323  11.023  68.986  0.00  0.00     0.240 C 
ATOM     11  O3  non d ame     -11.490  11.908  69.734  0.00  0.00    -0.271 OA
ATOM     12  H10 non d ame     -10.835   8.960  68.822  0.00  0.00     0.163 HD
BRANCH  10  13
ATOM     13  C6  non d ame     -11.480  11.254  67.451  0.00  0.00     0.086 C 
ATOM     14  H6  non d ame     -12.514  11.169  67.115  0.00  0.00     0.086 H 
BRANCH  13  15
ATOM     15  N2  non d ame     -11.049  12.605  67.130  0.00  0.00    -0.343 N 
ATOM     16  C5  non d ame     -11.773  13.371  66.113  0.00  0.00     0.273 C 
ATOM     17  O2  non d ame     -12.698  12.891  65.556  0.00  0.00    -0.266 OA
ATOM     18  H5  non d ame     -10.256  13.007  67.609  0.00  0.00     0.163 HD
BRANCH  16  19
ATOM     19  C4  non d ame     -11.329  14.801  65.766  0.00  0.00     0.154 A 
ATOM     20  C1  non d ame     -10.664  15.733  66.625  0.00  0.00    -0.017 A 
ATOM     21  C2  non d ame     -10.481  16.889  65.834  0.00  0.00     0.077 A 
ATOM     22  H1  non d ame     -10.362  15.592  67.663  0.00  0.00     0.091 H 
ATOM     23  O1  non d ame     -10.984  16.639  64.660  0.00  0.00    -0.218 OA
ATOM     24  N1  non d ame     -11.485  15.427  64.596  0.00  0.00    -0.123 NA
BRANCH  21  25
ATOM     25  C3  non d ame      -9.817  18.187  66.275  0.00  0.00    -0.029 C 
ATOM     26  H2  non d ame     -10.263  18.524  67.211  0.00  0.00     0.036 H 
ATOM     27  H3  non d ame      -8.750  18.017  66.421  0.00  0.00     0.036 H 
ATOM     28  H4  non d ame      -9.962  18.948  65.508  0.00  0.00     0.036 H 
ENDBRANCH  21  25
ENDBRANCH  16  19
ENDBRANCH  13  15
BRANCH  13  29
ATOM     29  C8  non d ame     -10.640  10.253  66.700  0.00  0.00    -0.049 C 
ATOM     30  H7  non d ame     -10.287  10.698  65.770  0.00  0.00     0.030 H 
ATOM     31  H8  non d ame      -9.786   9.963  67.312  0.00  0.00     0.030 H 
ATOM     32  H9  non d ame     -11.241   9.372  66.474  0.00  0.00     0.030 H 
ENDBRANCH  13  29
ENDBRANCH  10  13
ENDBRANCH   7   9
BRANCH   7  33
ATOM     33  C11 non d ame     -12.040   8.663  71.441  0.00  0.00    -0.033 C 
ATOM     34  H12 non d ame     -12.325   7.966  70.653  0.00  0.00     0.042 H 
BRANCH  33  35
ATOM     35  C12 non d ame     -11.656   7.820  72.697  0.00  0.00    -0.071 C 
ATOM     36  H13 non d ame     -11.137   6.915  72.381  0.00  0.00     0.028 H 
ATOM     37  H14 non d ame     -11.003   8.407  73.342  0.00  0.00     0.028 H 
ATOM     38  H15 non d ame     -12.560   7.549  73.242  0.00  0.00     0.028 H 
ENDBRANCH  33  35
BRANCH  33  39
ATOM     39  C13 non d ame     -13.265   9.589  71.733  0.00  0.00    -0.071 C 
ATOM     40  H16 non d ame     -13.214   9.945  72.761  0.00  0.00     0.028 H 
ATOM     41  H17 non d ame     -13.247  10.440  71.052  0.00  0.00     0.028 H 
ATOM     42  H18 non d ame     -14.187   9.027  71.588  0.00  0.00     0.028 H 
ENDBRANCH  33  39
ENDBRANCH   7  33
ENDBRANCH   4   7
ENDBRANCH   1   3
BRANCH   1  43
ATOM     43  C15 non d ame      -7.464   6.263  69.289  0.00  0.00     0.240 C 
ATOM     44  O5  non d ame      -6.628   5.419  69.252  0.00  0.00    -0.271 OA
ATOM     45  N6  non d ame      -7.961   6.870  68.021  0.00  0.00    -0.355 N 
ATOM     46  H46 non d ame      -8.674   7.585  68.039  0.00  0.00     0.162 HD
BRANCH  45  47
ATOM     47  C20 non d ame      -7.405   6.421  66.726  0.00  0.00     0.013 C 
ATOM     48  H30 non d ame      -6.947   5.444  66.878  0.00  0.00     0.072 H 
BRANCH  47  49
ATOM     49  C21 non d ame      -6.364   7.412  66.259  0.00  0.00    -0.038 C 
ATOM     50  H31 non d ame      -6.914   8.191  65.731  0.00  0.00     0.036 H 
ATOM     51  H32 non d ame      -5.778   7.663  67.144  0.00  0.00     0.036 H 
BRANCH  49  52
ATOM     52  C22 non d ame      -5.376   6.807  65.238  0.00  0.00     0.018 C 
ATOM     53  H33 non d ame      -4.477   6.565  65.805  0.00  0.00     0.048 H 
ATOM     54  H34 non d ame      -5.927   6.018  64.726  0.00  0.00     0.048 H 
BRANCH  52  55
ATOM     55  C23 non d ame      -4.929   7.804  64.132  0.00  0.00     0.259 C 
ATOM     56  O7  non d ame      -4.145   8.663  64.375  0.00  0.00    -0.265 OA
BRANCH  55  57
ATOM     57  O8  non d ame      -5.478   7.686  62.825  0.00  0.00    -0.317 OA
BRANCH  57  58
ATOM     58  C29 non d ame      -6.883   7.414  62.806  0.00  0.00     0.052 C 
ATOM     59  H47 non d ame      -7.062   6.857  61.887  0.00  0.00     0.082 H 
ATOM     60  H48 non d ame      -7.109   6.961  63.771  0.00  0.00     0.082 H 
BRANCH  58  61
ATOM     61  C35 non d ame      -7.632   8.770  62.713  0.00  0.00    -0.034 A 
ATOM     62  C30 non d ame      -7.228   9.727  61.788  0.00  0.00    -0.075 A 
ATOM     63  C31 non d ame      -7.901  10.945  61.704  0.00  0.00    -0.082 A 
ATOM     64  H49 non d ame      -6.384   9.523  61.128  0.00  0.00     0.084 H 
ATOM     65  C32 non d ame      -8.980  11.206  62.552  0.00  0.00    -0.083 A 
ATOM     66  H50 non d ame      -7.583  11.692  60.976  0.00  0.00     0.083 H 
ATOM     67  C33 non d ame      -9.378  10.249  63.476  0.00  0.00    -0.082 A 
ATOM     68  H51 non d ame      -9.512  12.155  62.493  0.00  0.00     0.083 H 
ATOM     69  C34 non d ame      -8.710   9.029  63.562  0.00  0.00    -0.075 A 
ATOM     70  H52 non d ame     -10.219  10.456  64.138  0.00  0.00     0.083 H 
ATOM     71  H53 non d ame      -9.029   8.283  64.289  0.00  0.00     0.084 H 
ENDBRANCH  58  61
ENDBRANCH  57  58
ENDBRANCH  55  57
ENDBRANCH  52  55
ENDBRANCH  49  52
ENDBRANCH  47  49
BRANCH  47  72
ATOM     72  C24 non d ame      -8.522   6.328  65.689  0.00  0.00    -0.039 C 
ATOM     73  H35 non d ame      -9.247   7.091  65.974  0.00  0.00     0.036 H 
ATOM     74  H36 non d ame      -8.025   6.383  64.721  0.00  0.00     0.036 H 
BRANCH  72  75
ATOM     75  C25 non d ame      -9.274   4.915  65.753  0.00  0.00    -0.001 C 
ATOM     76  C26 non d ame      -9.368   4.261  64.247  0.00  0.00    -0.035 C 
ATOM     77  C27 non d ame     -10.653   3.911  64.002  0.00  0.00     0.085 C 
ATOM     78  H38 non d ame      -9.163   5.023  63.496  0.00  0.00     0.036 H 
ATOM     79  H39 non d ame      -8.835   3.310  64.219  0.00  0.00     0.036 H 
ATOM     80  N5  non d ame     -11.499   4.563  65.069  0.00  0.00    -0.049 N 
ATOM     81  H40 non d ame     -10.897   4.354  63.036  0.00  0.00     0.075 H 
ATOM     82  H41 non d ame     -10.690   2.830  64.132  0.00  0.00     0.075 H 
ATOM     83  C28 non d ame     -10.472   5.043  66.219  0.00  0.00     0.193 C 
ATOM     84  H42 non d ame     -11.913   5.381  64.646  0.00  0.00     0.280 HD
ATOM     85  H43 non d ame     -12.090   3.837  65.449  0.00  0.00     0.280 HD
ATOM     86  H44 non d ame     -10.384   4.485  67.151  0.00  0.00     0.129 H 
ATOM     87  H37 non d ame      -8.887   4.277  66.548  0.00  0.00     0.046 H 
BRANCH  83  88
ATOM     88  O6  non d ame     -10.759   6.389  66.605  0.00  0.00    -0.369 OA
ATOM     89  H45 non d ame     -11.709   6.522  66.617  0.00  0.00     0.212 HD
ENDBRANCH  83  88
ENDBRANCH  72  75
ENDBRANCH  47  72
ENDBRANCH  45  47
ENDBRANCH   1  43
BRANCH   1  90
ATOM     90  C16 non d ame      -8.352   5.507  71.516  0.00  0.00    -0.035 C 
ATOM     91  H21 non d ame      -7.610   4.758  71.237  0.00  0.00     0.037 H 
ATOM     92  H22 non d ame      -8.392   5.878  72.540  0.00  0.00     0.037 H 
BRANCH  90  93
ATOM     93  C17 non d ame      -9.749   4.875  71.220  0.00  0.00    -0.059 C 
ATOM     94  H23 non d ame     -10.353   5.629  70.717  0.00  0.00     0.038 H 
BRANCH  93  95
ATOM     95  C18 non d ame      -9.648   3.636  70.274  0.00  0.00    -0.073 C 
ATOM     96  H24 non d ame      -8.639   3.574  69.865  0.00  0.00     0.028 H 
ATOM     97  H25 non d ame      -9.868   2.729  70.838  0.00  0.00     0.028 H 
ATOM     98  H26 non d ame     -10.365   3.741  69.460  0.00  0.00     0.028 H 
ENDBRANCH  93  95
BRANCH  93  99
ATOM     99  C19 non d ame     -10.469   4.509  72.521  0.00  0.00    -0.073 C 
ATOM    100  H27 non d ame     -11.548   4.553  72.364  0.00  0.00     0.028 H 
ATOM    101  H28 non d ame     -10.186   3.499  72.821  0.00  0.00     0.028 H 
ATOM    102  H29 non d ame     -10.187   5.213  73.303  0.00  0.00     0.028 H 
ENDBRANCH  93  99
ENDBRANCH  90  93
ENDBRANCH   1  90
TORSDOF 26
ENDMDL
MODEL 9
REMARK VINA RESULT:      -6.1      3.242      7.947
REMARK  26 active torsions:
REMARK  status: ('A' for Active; 'I' for Inactive)
REMARK    1  A    between atoms: C2_2  and  C3_3 
REMARK    2  A    between atoms: C4_6  and  C5_7 
REMARK       I    between atoms: C5_7  and  N2_9 
REMARK    3  A    between atoms: N2_9  and  C6_10 
REMARK    4  A    between atoms: C6_10  and  C7_11 
REMARK    5  A    between atoms: C6_10  and  C8_13 
REMARK       I    between atoms: C7_11  and  N3_14 
REMARK    6  A    between atoms: N3_14  and  C9_15 
REMARK    7  A    between atoms: C9_15  and  C10_16 
REMARK    8  A    between atoms: C9_15  and  C11_18 
REMARK       I    between atoms: C10_16  and  N4_21 
REMARK    9  A    between atoms: C11_18  and  C12_19 
REMARK   10  A    between atoms: C11_18  and  C13_20 
REMARK   11  A    between atoms: N4_21  and  C14_22 
REMARK   12  A    between atoms: C14_22  and  C15_23 
REMARK   13  A    between atoms: C14_22  and  C16_25 
REMARK       I    between atoms: C15_23  and  N6_40 
REMARK   14  A    between atoms: C16_25  and  C17_26 
REMARK   15  A    between atoms: C17_26  and  C18_27 
REMARK   16  A    between atoms: C17_26  and  C19_28 
REMARK   17  A    between atoms: C20_29  and  C21_30 
REMARK   18  A    between atoms: C20_29  and  C24_33 
REMARK   19  A    between atoms: C20_29  and  N6_40 
REMARK   20  A    between atoms: C21_30  and  C22_31 
REMARK   21  A    between atoms: C22_31  and  C23_32 
REMARK   22  A    between atoms: C23_32  and  O8_43 
REMARK   23  A    between atoms: C24_33  and  C25_34 
REMARK   24  A    between atoms: C28_38  and  O6_39 
REMARK   25  A    between atoms: C29_42  and  O8_43 
REMARK   26  A    between atoms: C29_42  and  C35_49 
ROOT
ATOM      1  C14 non d ame      -7.807   8.986  67.725  0.00  0.00     0.089 C 
ATOM      2  H20 non d ame      -6.741   8.860  67.534  0.00  0.00     0.087 H 
ENDROOT
BRANCH   1   3
ATOM      3  N4  non d ame      -7.999  10.325  68.262  0.00  0.00    -0.346 N 
ATOM      4  C10 non d ame      -7.176  11.478  67.746  0.00  0.00     0.241 C 
ATOM      5  O4  non d ame      -6.362  11.303  66.900  0.00  0.00    -0.271 OA
ATOM      6  H19 non d ame      -8.696  10.453  68.983  0.00  0.00     0.163 HD
BRANCH   4   7
ATOM      7  C9  non d ame      -7.393  12.859  68.309  0.00  0.00     0.092 C 
ATOM      8  H11 non d ame      -7.334  13.588  67.501  0.00  0.00     0.088 H 
BRANCH   7   9
ATOM      9  N3  non d ame      -8.741  12.949  68.877  0.00  0.00    -0.346 N 
ATOM     10  C7  non d ame      -9.758  13.716  68.200  0.00  0.00     0.240 C 
ATOM     11  O3  non d ame      -9.508  14.268  67.199  0.00  0.00    -0.271 OA
ATOM     12  H10 non d ame      -8.971  12.480  69.741  0.00  0.00     0.163 HD
BRANCH  10  13
ATOM     13  C6  non d ame     -11.190  13.811  68.812  0.00  0.00     0.086 C 
ATOM     14  H6  non d ame     -11.975  13.618  68.080  0.00  0.00     0.086 H 
BRANCH  13  15
ATOM     15  N2  non d ame     -11.329  12.800  69.846  0.00  0.00    -0.343 N 
ATOM     16  C5  non d ame     -11.823  11.468  69.492  0.00  0.00     0.273 C 
ATOM     17  O2  non d ame     -12.108  11.220  68.371  0.00  0.00    -0.266 OA
ATOM     18  H5  non d ame     -11.086  13.021  70.802  0.00  0.00     0.163 HD
BRANCH  16  19
ATOM     19  C4  non d ame     -11.973  10.389  70.575  0.00  0.00     0.154 A 
ATOM     20  C1  non d ame     -10.969   9.478  71.034  0.00  0.00    -0.017 A 
ATOM     21  C2  non d ame     -11.608   8.703  72.027  0.00  0.00     0.077 A 
ATOM     22  H1  non d ame      -9.935   9.393  70.698  0.00  0.00     0.091 H 
ATOM     23  O1  non d ame     -12.834   9.127  72.121  0.00  0.00    -0.218 OA
ATOM     24  N1  non d ame     -13.071  10.111  71.284  0.00  0.00    -0.123 NA
BRANCH  21  25
ATOM     25  C3  non d ame     -10.977   7.579  72.838  0.00  0.00    -0.029 C 
ATOM     26  H2  non d ame     -10.191   7.103  72.251  0.00  0.00     0.036 H 
ATOM     27  H3  non d ame     -10.549   7.988  73.754  0.00  0.00     0.036 H 
ATOM     28  H4  non d ame     -11.738   6.841  73.092  0.00  0.00     0.036 H 
ENDBRANCH  21  25
ENDBRANCH  16  19
ENDBRANCH  13  15
BRANCH  13  29
ATOM     29  C8  non d ame     -11.399  15.184  69.399  0.00  0.00    -0.049 C 
ATOM     30  H7  non d ame     -10.745  15.898  68.897  0.00  0.00     0.030 H 
ATOM     31  H8  non d ame     -12.438  15.484  69.262  0.00  0.00     0.030 H 
ATOM     32  H9  non d ame     -11.163  15.163  70.463  0.00  0.00     0.030 H 
ENDBRANCH  13  29
ENDBRANCH  10  13
ENDBRANCH   7   9
BRANCH   7  33
ATOM     33  C11 non d ame      -6.343  13.134  69.425  0.00  0.00    -0.033 C 
ATOM     34  H12 non d ame      -6.805  13.801  70.153  0.00  0.00     0.042 H 
BRANCH  33  35
ATOM     35  C12 non d ame      -5.950  11.822  70.173  0.00  0.00    -0.071 C 
ATOM     36  H13 non d ame      -6.474  11.778  71.128  0.00  0.00     0.028 H 
ATOM     37  H14 non d ame      -6.230  10.961  69.566  0.00  0.00     0.028 H 
ATOM     38  H15 non d ame      -4.875  11.811  70.347  0.00  0.00     0.028 H 
ENDBRANCH  33  35
BRANCH  33  39
ATOM     39  C13 non d ame      -5.083  13.853  68.843  0.00  0.00    -0.071 C 
ATOM     40  H16 non d ame      -4.834  14.710  69.467  0.00  0.00     0.028 H 
ATOM     41  H17 non d ame      -4.243  13.158  68.827  0.00  0.00     0.028 H 
ATOM     42  H18 non d ame      -5.294  14.190  67.828  0.00  0.00     0.028 H 
ENDBRANCH  33  39
ENDBRANCH   7  33
ENDBRANCH   4   7
ENDBRANCH   1   3
BRANCH   1  43
ATOM     43  C15 non d ame      -8.657   8.844  66.430  0.00  0.00     0.240 C 
ATOM     44  O5  non d ame      -9.760   8.406  66.493  0.00  0.00    -0.271 OA
ATOM     45  N6  non d ame      -8.099   9.264  65.113  0.00  0.00    -0.355 N 
ATOM     46  H46 non d ame      -7.165   9.642  65.048  0.00  0.00     0.162 HD
BRANCH  45  47
ATOM     47  C20 non d ame      -8.921   9.124  63.891  0.00  0.00     0.013 C 
ATOM     48  H30 non d ame      -9.776   8.493  64.133  0.00  0.00     0.072 H 
BRANCH  47  49
ATOM     49  C21 non d ame      -8.093   8.478  62.804  0.00  0.00    -0.038 C 
ATOM     50  H31 non d ame      -8.809   8.030  62.115  0.00  0.00     0.036 H 
ATOM     51  H32 non d ame      -7.411   9.254  62.453  0.00  0.00     0.036 H 
BRANCH  49  52
ATOM     52  C22 non d ame      -7.210   7.325  63.327  0.00  0.00     0.018 C 
ATOM     53  H33 non d ame      -6.357   7.274  62.649  0.00  0.00     0.048 H 
ATOM     54  H34 non d ame      -7.052   7.531  64.386  0.00  0.00     0.048 H 
BRANCH  52  55
ATOM     55  C23 non d ame      -7.894   5.932  63.260  0.00  0.00     0.259 C 
ATOM     56  O7  non d ame      -8.071   5.397  62.214  0.00  0.00    -0.265 OA
BRANCH  55  57
ATOM     57  O8  non d ame      -8.320   5.306  64.464  0.00  0.00    -0.317 OA
BRANCH  57  58
ATOM     58  C29 non d ame      -7.448   5.528  65.576  0.00  0.00     0.052 C 
ATOM     59  H47 non d ame      -6.456   5.229  65.237  0.00  0.00     0.082 H 
ATOM     60  H48 non d ame      -7.629   6.555  65.892  0.00  0.00     0.082 H 
BRANCH  58  61
ATOM     61  C35 non d ame      -7.882   4.577  66.723  0.00  0.00    -0.034 A 
ATOM     62  C30 non d ame      -9.172   4.652  67.240  0.00  0.00    -0.075 A 
ATOM     63  C31 non d ame      -9.562   3.798  68.270  0.00  0.00    -0.082 A 
ATOM     64  H49 non d ame      -9.876   5.381  66.838  0.00  0.00     0.084 H 
ATOM     65  C32 non d ame      -8.656   2.867  68.786  0.00  0.00    -0.083 A 
ATOM     66  H50 non d ame     -10.574   3.859  68.672  0.00  0.00     0.083 H 
ATOM     67  C33 non d ame      -7.370   2.797  68.268  0.00  0.00    -0.082 A 
ATOM     68  H51 non d ame      -8.953   2.195  69.591  0.00  0.00     0.083 H 
ATOM     69  C34 non d ame      -6.976   3.648  67.237  0.00  0.00    -0.075 A 
ATOM     70  H52 non d ame      -6.665   2.071  68.674  0.00  0.00     0.083 H 
ATOM     71  H53 non d ame      -5.964   3.586  66.836  0.00  0.00     0.084 H 
ENDBRANCH  58  61
ENDBRANCH  57  58
ENDBRANCH  55  57
ENDBRANCH  52  55
ENDBRANCH  49  52
ENDBRANCH  47  49
BRANCH  47  72
ATOM     72  C24 non d ame      -9.392  10.500  63.425  0.00  0.00    -0.039 C 
ATOM     73  H35 non d ame      -8.584  11.186  63.683  0.00  0.00     0.036 H 
ATOM     74  H36 non d ame      -9.683  10.369  62.383  0.00  0.00     0.036 H 
BRANCH  72  75
ATOM     75  C25 non d ame     -10.695  10.982  64.223  0.00  0.00    -0.001 C 
ATOM     76  C26 non d ame     -11.756  11.691  63.186  0.00  0.00    -0.035 C 
ATOM     77  C27 non d ame     -12.112  12.899  63.685  0.00  0.00     0.085 C 
ATOM     78  H38 non d ame     -11.255  11.940  62.251  0.00  0.00     0.036 H 
ATOM     79  H39 non d ame     -12.693  11.135  63.171  0.00  0.00     0.036 H 
ATOM     80  N5  non d ame     -11.145  13.220  64.799  0.00  0.00    -0.049 N 
ATOM     81  H40 non d ame     -11.962  13.607  62.869  0.00  0.00     0.075 H 
ATOM     82  H41 non d ame     -13.106  12.757  64.107  0.00  0.00     0.075 H 
ATOM     83  C28 non d ame     -10.390  11.835  65.143  0.00  0.00     0.193 C 
ATOM     84  H42 non d ame     -10.472  13.867  64.415  0.00  0.00     0.280 HD
ATOM     85  H43 non d ame     -11.705  13.487  65.596  0.00  0.00     0.280 HD
ATOM     86  H44 non d ame     -10.655  11.267  66.035  0.00  0.00     0.129 H 
ATOM     87  H37 non d ame     -11.087  10.206  64.880  0.00  0.00     0.046 H 
BRANCH  83  88
ATOM     88  O6  non d ame      -8.981  12.052  65.233  0.00  0.00    -0.369 OA
ATOM     89  H45 non d ame      -8.563  11.281  65.622  0.00  0.00     0.212 HD
ENDBRANCH  83  88
ENDBRANCH  72  75
ENDBRANCH  47  72
ENDBRANCH  45  47
ENDBRANCH   1  43
BRANCH   1  90
ATOM     90  C16 non d ame      -8.270   7.968  68.755  0.00  0.00    -0.035 C 
ATOM     91  H21 non d ame      -8.614   8.555  69.607  0.00  0.00     0.037 H 
ATOM     92  H22 non d ame      -8.965   7.317  68.225  0.00  0.00     0.037 H 
BRANCH  90  93
ATOM     93  C17 non d ame      -7.124   7.049  69.287  0.00  0.00    -0.059 C 
ATOM     94  H23 non d ame      -6.813   6.400  68.468  0.00  0.00     0.038 H 
BRANCH  93  95
ATOM     95  C18 non d ame      -5.875   7.870  69.744  0.00  0.00    -0.073 C 
ATOM     96  H24 non d ame      -5.427   7.393  70.615  0.00  0.00     0.028 H 
ATOM     97  H25 non d ame      -5.147   7.905  68.934  0.00  0.00     0.028 H 
ATOM     98  H26 non d ame      -6.181   8.884  70.001  0.00  0.00     0.028 H 
ENDBRANCH  93  95
BRANCH  93  99
ATOM     99  C19 non d ame      -7.626   6.147  70.417  0.00  0.00    -0.073 C 
ATOM    100  H27 non d ame      -6.895   6.135  71.225  0.00  0.00     0.028 H 
ATOM    101  H28 non d ame      -8.576   6.530  70.792  0.00  0.00     0.028 H 
ATOM    102  H29 non d ame      -7.767   5.135  70.038  0.00  0.00     0.028 H 
ENDBRANCH  93  99
ENDBRANCH  90  93
ENDBRANCH   1  90
TORSDOF 26
ENDMDL
