MODEL 1
REMARK VINA RESULT:      -6.9      0.000      0.000
REMARK  26 active torsions:
REMARK  status: ('A' for Active; 'I' for Inactive)
REMARK    1  A    between atoms: C2_2  and  C3_3 
REMARK    2  A    between atoms: C4_6  and  C5_7 
REMARK       I    between atoms: C5_7  and  N2_9 
REMARK    3  A    between atoms: N2_9  and  C6_10 
REMARK    4  A    between atoms: C6_10  and  C7_11 
REMARK    5  A    between atoms: C6_10  and  C8_13 
REMARK       I    between atoms: C7_11  and  N3_14 
REMARK    6  A    between atoms: N3_14  and  C9_15 
REMARK    7  A    between atoms: C9_15  and  C10_16 
REMARK    8  A    between atoms: C9_15  and  C11_18 
REMARK       I    between atoms: C10_16  and  N4_21 
REMARK    9  A    between atoms: C11_18  and  C12_19 
REMARK   10  A    between atoms: C11_18  and  C13_20 
REMARK   11  A    between atoms: N4_21  and  C14_22 
REMARK   12  A    between atoms: C14_22  and  C15_23 
REMARK   13  A    between atoms: C14_22  and  C16_25 
REMARK       I    between atoms: C15_23  and  N6_40 
REMARK   14  A    between atoms: C16_25  and  C17_26 
REMARK   15  A    between atoms: C17_26  and  C18_27 
REMARK   16  A    between atoms: C17_26  and  C19_28 
REMARK   17  A    between atoms: C20_29  and  C21_30 
REMARK   18  A    between atoms: C20_29  and  C24_33 
REMARK   19  A    between atoms: C20_29  and  N6_40 
REMARK   20  A    between atoms: C21_30  and  C22_31 
REMARK   21  A    between atoms: C22_31  and  C23_32 
REMARK   22  A    between atoms: C23_32  and  O8_43 
REMARK   23  A    between atoms: C24_33  and  C25_34 
REMARK   24  A    between atoms: C28_38  and  O6_39 
REMARK   25  A    between atoms: C29_42  and  O8_43 
REMARK   26  A    between atoms: C29_42  and  C35_49 
ROOT
ATOM      1  C14 non d ame      -6.577  15.981  67.603  0.00  0.00     0.089 C 
ATOM      2  H20 non d ame      -5.986  16.469  66.828  0.00  0.00     0.087 H 
ENDROOT
BRANCH   1   3
ATOM      3  N4  non d ame      -7.981  16.166  67.265  0.00  0.00    -0.346 N 
ATOM      4  C10 non d ame      -8.400  17.277  66.336  0.00  0.00     0.241 C 
ATOM      5  O4  non d ame      -7.590  18.012  65.874  0.00  0.00    -0.271 OA
ATOM      6  H19 non d ame      -8.654  15.531  67.670  0.00  0.00     0.163 HD
BRANCH   4   7
ATOM      7  C9  non d ame      -9.856  17.450  65.992  0.00  0.00     0.092 C 
ATOM      8  H11 non d ame      -9.940  17.950  65.027  0.00  0.00     0.088 H 
BRANCH   7   9
ATOM      9  N3  non d ame     -10.486  16.133  65.854  0.00  0.00    -0.346 N 
ATOM     10  C7  non d ame     -11.327  15.852  64.716  0.00  0.00     0.240 C 
ATOM     11  O3  non d ame     -11.508  16.674  63.903  0.00  0.00    -0.271 OA
ATOM     12  H10 non d ame     -10.340  15.414  66.548  0.00  0.00     0.163 HD
BRANCH  10  13
ATOM     13  C6  non d ame     -11.997  14.450  64.576  0.00  0.00     0.086 C 
ATOM     14  H6  non d ame     -12.657  14.383  63.712  0.00  0.00     0.086 H 
BRANCH  13  15
ATOM     15  N2  non d ame     -10.960  13.449  64.386  0.00  0.00    -0.343 N 
ATOM     16  C5  non d ame     -11.265  12.228  63.637  0.00  0.00     0.273 C 
ATOM     17  O2  non d ame     -12.348  12.059  63.194  0.00  0.00    -0.266 OA
ATOM     18  H5  non d ame     -10.038  13.600  64.770  0.00  0.00     0.163 HD
BRANCH  16  19
ATOM     19  C4  non d ame     -10.178  11.162  63.427  0.00  0.00     0.154 A 
ATOM     20  C1  non d ame      -9.835  10.091  64.312  0.00  0.00    -0.017 A 
ATOM     21  C2  non d ame      -8.785   9.405  63.662  0.00  0.00     0.077 A 
ATOM     22  H1  non d ame     -10.280   9.848  65.277  0.00  0.00     0.091 H 
ATOM     23  O1  non d ame      -8.560  10.018  62.536  0.00  0.00    -0.218 OA
ATOM     24  N1  non d ame      -9.360  11.046  62.377  0.00  0.00    -0.123 NA
BRANCH  21  25
ATOM     25  C3  non d ame      -8.053   8.175  64.183  0.00  0.00    -0.029 C 
ATOM     26  H2  non d ame      -8.561   7.798  65.071  0.00  0.00     0.036 H 
ATOM     27  H3  non d ame      -8.045   7.404  63.413  0.00  0.00     0.036 H 
ATOM     28  H4  non d ame      -7.027   8.443  64.438  0.00  0.00     0.036 H 
ENDBRANCH  21  25
ENDBRANCH  16  19
ENDBRANCH  13  15
BRANCH  13  29
ATOM     29  C8  non d ame     -12.789  14.142  65.821  0.00  0.00    -0.049 C 
ATOM     30  H7  non d ame     -12.811  13.064  65.981  0.00  0.00     0.030 H 
ATOM     31  H8  non d ame     -12.323  14.628  66.678  0.00  0.00     0.030 H 
ATOM     32  H9  non d ame     -13.808  14.512  65.703  0.00  0.00     0.030 H 
ENDBRANCH  13  29
ENDBRANCH  10  13
ENDBRANCH   7   9
BRANCH   7  33
ATOM     33  C11 non d ame     -10.566  18.244  67.127  0.00  0.00    -0.033 C 
ATOM     34  H12 non d ame     -11.640  18.102  67.006  0.00  0.00     0.042 H 
BRANCH  33  35
ATOM     35  C12 non d ame     -10.176  17.696  68.535  0.00  0.00    -0.071 C 
ATOM     36  H13 non d ame     -10.789  18.180  69.296  0.00  0.00     0.028 H 
ATOM     37  H14 non d ame     -10.345  16.619  68.564  0.00  0.00     0.028 H 
ATOM     38  H15 non d ame      -9.125  17.905  68.727  0.00  0.00     0.028 H 
ENDBRANCH  33  35
BRANCH  33  39
ATOM     39  C13 non d ame     -10.265  19.773  67.011  0.00  0.00    -0.071 C 
ATOM     40  H16 non d ame     -10.032  20.173  67.998  0.00  0.00     0.028 H 
ATOM     41  H17 non d ame      -9.415  19.927  66.346  0.00  0.00     0.028 H 
ATOM     42  H18 non d ame     -11.139  20.286  66.608  0.00  0.00     0.028 H 
ENDBRANCH  33  39
ENDBRANCH   7  33
ENDBRANCH   4   7
ENDBRANCH   1   3
BRANCH   1  43
ATOM     43  C15 non d ame      -6.286  14.456  67.692  0.00  0.00     0.240 C 
ATOM     44  O5  non d ame      -5.179  14.055  67.527  0.00  0.00    -0.271 OA
ATOM     45  N6  non d ame      -7.385  13.495  67.992  0.00  0.00    -0.355 N 
ATOM     46  H46 non d ame      -8.328  13.824  68.139  0.00  0.00     0.162 HD
BRANCH  45  47
ATOM     47  C20 non d ame      -7.091  12.048  68.075  0.00  0.00     0.013 C 
ATOM     48  H30 non d ame      -6.201  11.852  67.478  0.00  0.00     0.072 H 
BRANCH  47  49
ATOM     49  C21 non d ame      -8.264  11.268  67.524  0.00  0.00    -0.038 C 
ATOM     50  H31 non d ame      -8.716  11.910  66.768  0.00  0.00     0.036 H 
ATOM     51  H32 non d ame      -7.863  10.293  67.243  0.00  0.00     0.036 H 
BRANCH  49  52
ATOM     52  C22 non d ame      -9.357  11.002  68.582  0.00  0.00     0.018 C 
ATOM     53  H33 non d ame      -9.550   9.930  68.544  0.00  0.00     0.048 H 
ATOM     54  H34 non d ame      -8.993  11.458  69.503  0.00  0.00     0.048 H 
BRANCH  52  55
ATOM     55  C23 non d ame     -10.713  11.693  68.268  0.00  0.00     0.259 C 
ATOM     56  O7  non d ame     -11.133  11.721  67.157  0.00  0.00    -0.265 OA
BRANCH  55  57
ATOM     57  O8  non d ame     -11.443  12.305  69.324  0.00  0.00    -0.317 OA
BRANCH  57  58
ATOM     58  C29 non d ame     -11.423  13.735  69.293  0.00  0.00     0.052 C 
ATOM     59  H47 non d ame     -10.371  14.014  69.239  0.00  0.00     0.082 H 
ATOM     60  H48 non d ame     -12.105  14.023  68.493  0.00  0.00     0.082 H 
BRANCH  58  61
ATOM     61  C35 non d ame     -12.000  14.252  70.638  0.00  0.00    -0.034 A 
ATOM     62  C30 non d ame     -11.599  15.485  71.140  0.00  0.00    -0.075 A 
ATOM     63  C31 non d ame     -12.117  15.949  72.348  0.00  0.00    -0.082 A 
ATOM     64  H49 non d ame     -10.880  16.089  70.587  0.00  0.00     0.084 H 
ATOM     65  C32 non d ame     -13.039  15.173  73.057  0.00  0.00    -0.083 A 
ATOM     66  H50 non d ame     -11.803  16.918  72.738  0.00  0.00     0.083 H 
ATOM     67  C33 non d ame     -13.433  13.941  72.553  0.00  0.00    -0.082 A 
ATOM     68  H51 non d ame     -13.449  15.528  74.002  0.00  0.00     0.083 H 
ATOM     69  C34 non d ame     -12.920  13.474  71.345  0.00  0.00    -0.075 A 
ATOM     70  H52 non d ame     -14.150  13.336  73.109  0.00  0.00     0.083 H 
ATOM     71  H53 non d ame     -13.235  12.506  70.955  0.00  0.00     0.084 H 
ENDBRANCH  58  61
ENDBRANCH  57  58
ENDBRANCH  55  57
ENDBRANCH  52  55
ENDBRANCH  49  52
ENDBRANCH  47  49
BRANCH  47  72
ATOM     72  C24 non d ame      -6.853  11.651  69.530  0.00  0.00    -0.039 C 
ATOM     73  H35 non d ame      -6.914  12.580  70.098  0.00  0.00     0.036 H 
ATOM     74  H36 non d ame      -7.558  10.844  69.730  0.00  0.00     0.036 H 
BRANCH  72  75
ATOM     75  C25 non d ame      -5.382  11.058  69.750  0.00  0.00    -0.001 C 
ATOM     76  C26 non d ame      -4.761  10.553  68.313  0.00  0.00    -0.035 C 
ATOM     77  C27 non d ame      -4.312   9.283  68.455  0.00  0.00     0.085 C 
ATOM     78  H38 non d ame      -5.557  10.461  67.574  0.00  0.00     0.036 H 
ATOM     79  H39 non d ame      -3.859  11.118  68.076  0.00  0.00     0.036 H 
ATOM     80  N5  non d ame      -4.864   8.762  69.759  0.00  0.00    -0.049 N 
ATOM     81  H40 non d ame      -4.757   8.723  67.631  0.00  0.00     0.075 H 
ATOM     82  H41 non d ame      -3.228   9.365  68.535  0.00  0.00     0.075 H 
ATOM     83  C28 non d ame      -5.398  10.056  70.564  0.00  0.00     0.193 C 
ATOM     84  H42 non d ame      -5.655   8.180  69.524  0.00  0.00     0.280 HD
ATOM     85  H43 non d ame      -4.081   8.370  70.265  0.00  0.00     0.280 HD
ATOM     86  H44 non d ame      -4.825  10.466  71.395  0.00  0.00     0.129 H 
ATOM     87  H37 non d ame      -4.758  11.716  70.356  0.00  0.00     0.046 H 
BRANCH  83  88
ATOM     88  O6  non d ame      -6.704   9.807  71.086  0.00  0.00    -0.369 OA
ATOM     89  H45 non d ame      -6.674   9.825  72.045  0.00  0.00     0.212 HD
ENDBRANCH  83  88
ENDBRANCH  72  75
ENDBRANCH  47  72
ENDBRANCH  45  47
ENDBRANCH   1  43
BRANCH   1  90
ATOM     90  C16 non d ame      -6.301  16.634  68.948  0.00  0.00    -0.035 C 
ATOM     91  H21 non d ame      -7.278  16.747  69.420  0.00  0.00     0.037 H 
ATOM     92  H22 non d ame      -5.538  16.013  69.419  0.00  0.00     0.037 H 
BRANCH  90  93
ATOM     93  C17 non d ame      -5.696  18.069  68.836  0.00  0.00    -0.059 C 
ATOM     94  H23 non d ame      -5.355  18.205  67.810  0.00  0.00     0.038 H 
BRANCH  93  95
ATOM     95  C18 non d ame      -6.752  19.180  69.139  0.00  0.00    -0.073 C 
ATOM     96  H24 non d ame      -7.429  19.277  68.290  0.00  0.00     0.028 H 
ATOM     97  H25 non d ame      -7.320  18.908  70.029  0.00  0.00     0.028 H 
ATOM     98  H26 non d ame      -6.243  20.128  69.308  0.00  0.00     0.028 H 
ENDBRANCH  93  95
BRANCH  93  99
ATOM     99  C19 non d ame      -4.473  18.219  69.745  0.00  0.00    -0.073 C 
ATOM    100  H27 non d ame      -3.721  17.480  69.467  0.00  0.00     0.028 H 
ATOM    101  H28 non d ame      -4.057  19.221  69.632  0.00  0.00     0.028 H 
ATOM    102  H29 non d ame      -4.769  18.064  70.782  0.00  0.00     0.028 H 
ENDBRANCH  93  99
ENDBRANCH  90  93
ENDBRANCH   1  90
TORSDOF 26
ENDMDL
MODEL 2
REMARK VINA RESULT:      -6.8      3.445      8.914
REMARK  26 active torsions:
REMARK  status: ('A' for Active; 'I' for Inactive)
REMARK    1  A    between atoms: C2_2  and  C3_3 
REMARK    2  A    between atoms: C4_6  and  C5_7 
REMARK       I    between atoms: C5_7  and  N2_9 
REMARK    3  A    between atoms: N2_9  and  C6_10 
REMARK    4  A    between atoms: C6_10  and  C7_11 
REMARK    5  A    between atoms: C6_10  and  C8_13 
REMARK       I    between atoms: C7_11  and  N3_14 
REMARK    6  A    between atoms: N3_14  and  C9_15 
REMARK    7  A    between atoms: C9_15  and  C10_16 
REMARK    8  A    between atoms: C9_15  and  C11_18 
REMARK       I    between atoms: C10_16  and  N4_21 
REMARK    9  A    between atoms: C11_18  and  C12_19 
REMARK   10  A    between atoms: C11_18  and  C13_20 
REMARK   11  A    between atoms: N4_21  and  C14_22 
REMARK   12  A    between atoms: C14_22  and  C15_23 
REMARK   13  A    between atoms: C14_22  and  C16_25 
REMARK       I    between atoms: C15_23  and  N6_40 
REMARK   14  A    between atoms: C16_25  and  C17_26 
REMARK   15  A    between atoms: C17_26  and  C18_27 
REMARK   16  A    between atoms: C17_26  and  C19_28 
REMARK   17  A    between atoms: C20_29  and  C21_30 
REMARK   18  A    between atoms: C20_29  and  C24_33 
REMARK   19  A    between atoms: C20_29  and  N6_40 
REMARK   20  A    between atoms: C21_30  and  C22_31 
REMARK   21  A    between atoms: C22_31  and  C23_32 
REMARK   22  A    between atoms: C23_32  and  O8_43 
REMARK   23  A    between atoms: C24_33  and  C25_34 
REMARK   24  A    between atoms: C28_38  and  O6_39 
REMARK   25  A    between atoms: C29_42  and  O8_43 
REMARK   26  A    between atoms: C29_42  and  C35_49 
ROOT
ATOM      1  C14 non d ame      -8.556   9.268  64.263  0.00  0.00     0.089 C 
ATOM      2  H20 non d ame      -7.527   9.533  64.508  0.00  0.00     0.087 H 
ENDROOT
BRANCH   1   3
ATOM      3  N4  non d ame      -8.898   8.081  65.031  0.00  0.00    -0.346 N 
ATOM      4  C10 non d ame      -8.066   7.680  66.224  0.00  0.00     0.241 C 
ATOM      5  O4  non d ame      -7.125   8.328  66.544  0.00  0.00    -0.271 OA
ATOM      6  H19 non d ame      -9.701   7.541  64.741  0.00  0.00     0.163 HD
BRANCH   4   7
ATOM      7  C9  non d ame      -8.438   6.451  67.011  0.00  0.00     0.092 C 
ATOM      8  H11 non d ame      -7.651   5.704  66.903  0.00  0.00     0.088 H 
BRANCH   7   9
ATOM      9  N3  non d ame      -8.522   6.789  68.435  0.00  0.00    -0.346 N 
ATOM     10  C7  non d ame      -8.002   5.877  69.424  0.00  0.00     0.240 C 
ATOM     11  O3  non d ame      -7.514   4.866  69.092  0.00  0.00    -0.271 OA
ATOM     12  H10 non d ame      -8.942   7.656  68.737  0.00  0.00     0.163 HD
BRANCH  10  13
ATOM     13  C6  non d ame      -8.097   6.241  70.939  0.00  0.00     0.086 C 
ATOM     14  H6  non d ame      -7.502   7.115  71.200  0.00  0.00     0.086 H 
BRANCH  13  15
ATOM     15  N2  non d ame      -9.477   6.566  71.259  0.00  0.00    -0.343 N 
ATOM     16  C5  non d ame      -9.959   7.936  71.066  0.00  0.00     0.273 C 
ATOM     17  O2  non d ame      -9.228   8.769  70.654  0.00  0.00    -0.266 OA
ATOM     18  H5  non d ame     -10.094   5.849  71.613  0.00  0.00     0.163 HD
BRANCH  16  19
ATOM     19  C4  non d ame     -11.416   8.294  71.399  0.00  0.00     0.154 A 
ATOM     20  C1  non d ame     -12.547   7.418  71.379  0.00  0.00    -0.017 A 
ATOM     21  C2  non d ame     -13.640   8.228  71.761  0.00  0.00     0.077 A 
ATOM     22  H1  non d ame     -12.572   6.358  71.127  0.00  0.00     0.091 H 
ATOM     23  O1  non d ame     -13.179   9.426  71.974  0.00  0.00    -0.218 OA
ATOM     24  N1  non d ame     -11.884   9.489  71.769  0.00  0.00    -0.123 NA
BRANCH  21  25
ATOM     25  C3  non d ame     -15.089   7.781  71.898  0.00  0.00    -0.029 C 
ATOM     26  H2  non d ame     -15.614   7.954  70.958  0.00  0.00     0.036 H 
ATOM     27  H3  non d ame     -15.120   6.719  72.142  0.00  0.00     0.036 H 
ATOM     28  H4  non d ame     -15.572   8.350  72.694  0.00  0.00     0.036 H 
ENDBRANCH  21  25
ENDBRANCH  16  19
ENDBRANCH  13  15
BRANCH  13  29
ATOM     29  C8  non d ame      -7.636   5.071  71.770  0.00  0.00    -0.049 C 
ATOM     30  H7  non d ame      -8.116   4.160  71.413  0.00  0.00     0.030 H 
ATOM     31  H8  non d ame      -6.554   4.969  71.685  0.00  0.00     0.030 H 
ATOM     32  H9  non d ame      -7.905   5.238  72.812  0.00  0.00     0.030 H 
ENDBRANCH  13  29
ENDBRANCH  10  13
ENDBRANCH   7   9
BRANCH   7  33
ATOM     33  C11 non d ame      -9.818   5.921  66.525  0.00  0.00    -0.033 C 
ATOM     34  H12 non d ame     -10.021   6.374  65.554  0.00  0.00     0.042 H 
BRANCH  33  35
ATOM     35  C12 non d ame      -9.794   4.373  66.323  0.00  0.00    -0.071 C 
ATOM     36  H13 non d ame      -9.682   4.147  65.262  0.00  0.00     0.028 H 
ATOM     37  H14 non d ame      -8.956   3.948  66.874  0.00  0.00     0.028 H 
ATOM     38  H15 non d ame     -10.726   3.945  66.689  0.00  0.00     0.028 H 
ENDBRANCH  33  35
BRANCH  33  39
ATOM     39  C13 non d ame     -10.958   6.346  67.505  0.00  0.00    -0.071 C 
ATOM     40  H16 non d ame     -11.231   5.499  68.134  0.00  0.00     0.028 H 
ATOM     41  H17 non d ame     -10.610   7.167  68.132  0.00  0.00     0.028 H 
ATOM     42  H18 non d ame     -11.827   6.669  66.932  0.00  0.00     0.028 H 
ENDBRANCH  33  39
ENDBRANCH   7  33
ENDBRANCH   4   7
ENDBRANCH   1   3
BRANCH   1  43
ATOM     43  C15 non d ame      -9.558  10.401  64.629  0.00  0.00     0.240 C 
ATOM     44  O5  non d ame     -10.521  10.578  63.957  0.00  0.00    -0.271 OA
ATOM     45  N6  non d ame      -9.320  11.259  65.825  0.00  0.00    -0.355 N 
ATOM     46  H46 non d ame      -8.508  11.114  66.407  0.00  0.00     0.162 HD
BRANCH  45  47
ATOM     47  C20 non d ame     -10.283  12.330  66.161  0.00  0.00     0.013 C 
ATOM     48  H30 non d ame     -11.283  11.970  65.922  0.00  0.00     0.072 H 
BRANCH  47  49
ATOM     49  C21 non d ame      -9.967  13.561  65.341  0.00  0.00    -0.038 C 
ATOM     50  H31 non d ame      -9.393  14.214  65.999  0.00  0.00     0.036 H 
ATOM     51  H32 non d ame      -9.523  13.192  64.416  0.00  0.00     0.036 H 
BRANCH  49  52
ATOM     52  C22 non d ame     -11.230  14.350  64.935  0.00  0.00     0.018 C 
ATOM     53  H33 non d ame     -11.516  13.966  63.955  0.00  0.00     0.048 H 
ATOM     54  H34 non d ame     -11.917  14.261  65.776  0.00  0.00     0.048 H 
BRANCH  52  55
ATOM     55  C23 non d ame     -10.982  15.872  64.743  0.00  0.00     0.259 C 
ATOM     56  O7  non d ame     -11.612  16.490  63.947  0.00  0.00    -0.265 OA
BRANCH  55  57
ATOM     57  O8  non d ame      -9.983  16.519  65.521  0.00  0.00    -0.317 OA
BRANCH  57  58
ATOM     58  C29 non d ame     -10.410  17.751  66.109  0.00  0.00     0.052 C 
ATOM     59  H47 non d ame     -10.635  18.414  65.274  0.00  0.00     0.082 H 
ATOM     60  H48 non d ame     -11.193  17.484  66.819  0.00  0.00     0.082 H 
BRANCH  58  61
ATOM     61  C35 non d ame      -9.214  18.345  66.900  0.00  0.00    -0.034 A 
ATOM     62  C30 non d ame      -8.788  19.645  66.647  0.00  0.00    -0.075 A 
ATOM     63  C31 non d ame      -7.713  20.178  67.357  0.00  0.00    -0.082 A 
ATOM     64  H49 non d ame      -9.297  20.246  65.894  0.00  0.00     0.084 H 
ATOM     65  C32 non d ame      -7.061  19.405  68.321  0.00  0.00    -0.083 A 
ATOM     66  H50 non d ame      -7.384  21.198  67.159  0.00  0.00     0.083 H 
ATOM     67  C33 non d ame      -7.487  18.106  68.567  0.00  0.00    -0.082 A 
ATOM     68  H51 non d ame      -6.220  19.814  68.881  0.00  0.00     0.083 H 
ATOM     69  C34 non d ame      -8.562  17.570  67.862  0.00  0.00    -0.075 A 
ATOM     70  H52 non d ame      -6.974  17.505  69.318  0.00  0.00     0.083 H 
ATOM     71  H53 non d ame      -8.891  16.550  68.061  0.00  0.00     0.084 H 
ENDBRANCH  58  61
ENDBRANCH  57  58
ENDBRANCH  55  57
ENDBRANCH  52  55
ENDBRANCH  49  52
ENDBRANCH  47  49
BRANCH  47  72
ATOM     72  C24 non d ame     -10.182  12.668  67.647  0.00  0.00    -0.039 C 
ATOM     73  H35 non d ame      -9.717  11.797  68.111  0.00  0.00     0.036 H 
ATOM     74  H36 non d ame      -9.687  13.638  67.691  0.00  0.00     0.036 H 
BRANCH  72  75
ATOM     75  C25 non d ame     -11.627  12.843  68.315  0.00  0.00    -0.001 C 
ATOM     76  C26 non d ame     -11.849  14.408  68.767  0.00  0.00    -0.035 C 
ATOM     77  C27 non d ame     -12.248  14.436  70.061  0.00  0.00     0.085 C 
ATOM     78  H38 non d ame     -10.894  14.931  68.784  0.00  0.00     0.036 H 
ATOM     79  H39 non d ame     -12.696  14.836  68.230  0.00  0.00     0.036 H 
ATOM     80  N5  non d ame     -12.004  13.058  70.628  0.00  0.00    -0.049 N 
ATOM     81  H40 non d ame     -11.585  15.147  70.556  0.00  0.00     0.075 H 
ATOM     82  H41 non d ame     -13.321  14.622  70.031  0.00  0.00     0.075 H 
ATOM     83  C28 non d ame     -11.755  12.093  69.358  0.00  0.00     0.193 C 
ATOM     84  H42 non d ame     -11.148  13.116  71.161  0.00  0.00     0.280 HD
ATOM     85  H43 non d ame     -12.862  12.779  71.081  0.00  0.00     0.280 HD
ATOM     86  H44 non d ame     -12.535  11.412  69.019  0.00  0.00     0.129 H 
ATOM     87  H37 non d ame     -12.416  12.382  67.719  0.00  0.00     0.046 H 
BRANCH  83  88
ATOM     88  O6  non d ame     -10.604  11.276  69.578  0.00  0.00    -0.369 OA
ATOM     89  H45 non d ame      -9.821  11.734  69.264  0.00  0.00     0.212 HD
ENDBRANCH  83  88
ENDBRANCH  72  75
ENDBRANCH  47  72
ENDBRANCH  45  47
ENDBRANCH   1  43
BRANCH   1  90
ATOM     90  C16 non d ame      -8.666   8.949  62.781  0.00  0.00    -0.035 C 
ATOM     91  H21 non d ame      -8.646   7.860  62.718  0.00  0.00     0.037 H 
ATOM     92  H22 non d ame      -9.540   9.499  62.431  0.00  0.00     0.037 H 
BRANCH  90  93
ATOM     93  C17 non d ame      -7.455   9.461  61.938  0.00  0.00    -0.059 C 
ATOM     94  H23 non d ame      -7.375   8.828  61.054  0.00  0.00     0.038 H 
BRANCH  93  95
ATOM     95  C18 non d ame      -7.656  10.933  61.452  0.00  0.00    -0.073 C 
ATOM     96  H24 non d ame      -7.016  11.121  60.590  0.00  0.00     0.028 H 
ATOM     97  H25 non d ame      -8.698  11.083  61.170  0.00  0.00     0.028 H 
ATOM     98  H26 non d ame      -7.394  11.620  62.257  0.00  0.00     0.028 H 
ENDBRANCH  93  95
BRANCH  93  99
ATOM     99  C19 non d ame      -6.146   9.319  62.719  0.00  0.00    -0.073 C 
ATOM    100  H27 non d ame      -5.813   8.282  62.684  0.00  0.00     0.028 H 
ATOM    101  H28 non d ame      -5.386   9.961  62.272  0.00  0.00     0.028 H 
ATOM    102  H29 non d ame      -6.308   9.615  63.755  0.00  0.00     0.028 H 
ENDBRANCH  93  99
ENDBRANCH  90  93
ENDBRANCH   1  90
TORSDOF 26
ENDMDL
MODEL 3
REMARK VINA RESULT:      -6.8      3.477      8.283
REMARK  26 active torsions:
REMARK  status: ('A' for Active; 'I' for Inactive)
REMARK    1  A    between atoms: C2_2  and  C3_3 
REMARK    2  A    between atoms: C4_6  and  C5_7 
REMARK       I    between atoms: C5_7  and  N2_9 
REMARK    3  A    between atoms: N2_9  and  C6_10 
REMARK    4  A    between atoms: C6_10  and  C7_11 
REMARK    5  A    between atoms: C6_10  and  C8_13 
REMARK       I    between atoms: C7_11  and  N3_14 
REMARK    6  A    between atoms: N3_14  and  C9_15 
REMARK    7  A    between atoms: C9_15  and  C10_16 
REMARK    8  A    between atoms: C9_15  and  C11_18 
REMARK       I    between atoms: C10_16  and  N4_21 
REMARK    9  A    between atoms: C11_18  and  C12_19 
REMARK   10  A    between atoms: C11_18  and  C13_20 
REMARK   11  A    between atoms: N4_21  and  C14_22 
REMARK   12  A    between atoms: C14_22  and  C15_23 
REMARK   13  A    between atoms: C14_22  and  C16_25 
REMARK       I    between atoms: C15_23  and  N6_40 
REMARK   14  A    between atoms: C16_25  and  C17_26 
REMARK   15  A    between atoms: C17_26  and  C18_27 
REMARK   16  A    between atoms: C17_26  and  C19_28 
REMARK   17  A    between atoms: C20_29  and  C21_30 
REMARK   18  A    between atoms: C20_29  and  C24_33 
REMARK   19  A    between atoms: C20_29  and  N6_40 
REMARK   20  A    between atoms: C21_30  and  C22_31 
REMARK   21  A    between atoms: C22_31  and  C23_32 
REMARK   22  A    between atoms: C23_32  and  O8_43 
REMARK   23  A    between atoms: C24_33  and  C25_34 
REMARK   24  A    between atoms: C28_38  and  O6_39 
REMARK   25  A    between atoms: C29_42  and  O8_43 
REMARK   26  A    between atoms: C29_42  and  C35_49 
ROOT
ATOM      1  C14 non d ame      -7.341   9.757  67.925  0.00  0.00     0.089 C 
ATOM      2  H20 non d ame      -6.290   9.588  67.690  0.00  0.00     0.087 H 
ENDROOT
BRANCH   1   3
ATOM      3  N4  non d ame      -8.089   9.666  66.680  0.00  0.00    -0.346 N 
ATOM      4  C10 non d ame      -7.482  10.158  65.390  0.00  0.00     0.241 C 
ATOM      5  O4  non d ame      -6.392  10.627  65.380  0.00  0.00    -0.271 OA
ATOM      6  H19 non d ame      -9.016   9.266  66.710  0.00  0.00     0.163 HD
BRANCH   4   7
ATOM      7  C9  non d ame      -8.268  10.051  64.109  0.00  0.00     0.092 C 
ATOM      8  H11 non d ame      -8.847   9.128  64.120  0.00  0.00     0.088 H 
BRANCH   7   9
ATOM      9  N3  non d ame      -9.223  11.161  64.027  0.00  0.00    -0.346 N 
ATOM     10  C7  non d ame     -10.468  11.095  64.753  0.00  0.00     0.240 C 
ATOM     11  O3  non d ame     -10.717  10.157  65.407  0.00  0.00    -0.271 OA
ATOM     12  H10 non d ame      -9.022  11.976  63.466  0.00  0.00     0.163 HD
BRANCH  10  13
ATOM     13  C6  non d ame     -11.481  12.277  64.659  0.00  0.00     0.086 C 
ATOM     14  H6  non d ame     -12.284  12.203  65.393  0.00  0.00     0.086 H 
BRANCH  13  15
ATOM     15  N2  non d ame     -10.781  13.521  64.933  0.00  0.00    -0.343 N 
ATOM     16  C5  non d ame     -11.335  14.461  65.911  0.00  0.00     0.273 C 
ATOM     17  O2  non d ame     -12.346  14.207  66.469  0.00  0.00    -0.266 OA
ATOM     18  H5  non d ame      -9.920  13.731  64.449  0.00  0.00     0.163 HD
BRANCH  16  19
ATOM     19  C4  non d ame     -10.605  15.779  66.211  0.00  0.00     0.154 A 
ATOM     20  C1  non d ame     -10.527  16.457  67.469  0.00  0.00    -0.017 A 
ATOM     21  C2  non d ame      -9.749  17.608  67.214  0.00  0.00     0.077 A 
ATOM     22  H1  non d ame     -10.967  16.159  68.421  0.00  0.00     0.091 H 
ATOM     23  O1  non d ame      -9.423  17.584  65.955  0.00  0.00    -0.218 OA
ATOM     24  N1  non d ame      -9.911  16.526  65.349  0.00  0.00    -0.123 NA
BRANCH  21  25
ATOM     25  C3  non d ame      -9.363  18.678  68.226  0.00  0.00    -0.029 C 
ATOM     26  H2  non d ame      -9.770  19.640  67.913  0.00  0.00     0.036 H 
ATOM     27  H3  non d ame      -9.766  18.415  69.204  0.00  0.00     0.036 H 
ATOM     28  H4  non d ame      -8.276  18.746  68.288  0.00  0.00     0.036 H 
ENDBRANCH  21  25
ENDBRANCH  16  19
ENDBRANCH  13  15
BRANCH  13  29
ATOM     29  C8  non d ame     -12.085  12.317  63.278  0.00  0.00    -0.049 C 
ATOM     30  H7  non d ame     -12.520  13.301  63.100  0.00  0.00     0.030 H 
ATOM     31  H8  non d ame     -11.309  12.123  62.537  0.00  0.00     0.030 H 
ATOM     32  H9  non d ame     -12.862  11.557  63.200  0.00  0.00     0.030 H 
ENDBRANCH  13  29
ENDBRANCH  10  13
ENDBRANCH   7   9
BRANCH   7  33
ATOM     33  C11 non d ame      -7.294  10.118  62.897  0.00  0.00    -0.033 C 
ATOM     34  H12 non d ame      -6.411  10.671  63.215  0.00  0.00     0.042 H 
BRANCH  33  35
ATOM     35  C12 non d ame      -6.825   8.693  62.465  0.00  0.00    -0.071 C 
ATOM     36  H13 non d ame      -5.872   8.768  61.942  0.00  0.00     0.028 H 
ATOM     37  H14 non d ame      -6.706   8.067  63.349  0.00  0.00     0.028 H 
ATOM     38  H15 non d ame      -7.570   8.251  61.804  0.00  0.00     0.028 H 
ENDBRANCH  33  35
BRANCH  33  39
ATOM     39  C13 non d ame      -7.942  10.888  61.701  0.00  0.00    -0.071 C 
ATOM     40  H16 non d ame      -7.741  10.353  60.773  0.00  0.00     0.028 H 
ATOM     41  H17 non d ame      -9.019  10.958  61.854  0.00  0.00     0.028 H 
ATOM     42  H18 non d ame      -7.517  11.890  61.642  0.00  0.00     0.028 H 
ENDBRANCH  33  39
ENDBRANCH   7  33
ENDBRANCH   4   7
ENDBRANCH   1   3
BRANCH   1  43
ATOM     43  C15 non d ame      -7.899   8.695  68.916  0.00  0.00     0.240 C 
ATOM     44  O5  non d ame      -7.153   7.955  69.471  0.00  0.00    -0.271 OA
ATOM     45  N6  non d ame      -9.363   8.608  69.181  0.00  0.00    -0.355 N 
ATOM     46  H46 non d ame     -10.007   9.235  68.720  0.00  0.00     0.162 HD
BRANCH  45  47
ATOM     47  C20 non d ame      -9.878   7.594  70.127  0.00  0.00     0.013 C 
ATOM     48  H30 non d ame      -9.037   6.980  70.451  0.00  0.00     0.072 H 
BRANCH  47  49
ATOM     49  C21 non d ame     -10.906   6.734  69.428  0.00  0.00    -0.038 C 
ATOM     50  H31 non d ame     -11.474   6.249  70.222  0.00  0.00     0.036 H 
ATOM     51  H32 non d ame     -11.410   7.395  68.722  0.00  0.00     0.036 H 
BRANCH  49  52
ATOM     52  C22 non d ame     -10.272   5.603  68.591  0.00  0.00     0.018 C 
ATOM     53  H33 non d ame      -9.316   5.383  69.067  0.00  0.00     0.048 H 
ATOM     54  H34 non d ame     -11.034   4.827  68.517  0.00  0.00     0.048 H 
BRANCH  52  55
ATOM     55  C23 non d ame      -9.939   6.015  67.130  0.00  0.00     0.259 C 
ATOM     56  O7  non d ame     -10.211   7.102  66.733  0.00  0.00    -0.265 OA
BRANCH  55  57
ATOM     57  O8  non d ame      -9.314   5.074  66.265  0.00  0.00    -0.317 OA
BRANCH  57  58
ATOM     58  C29 non d ame      -8.654   5.664  65.142  0.00  0.00     0.052 C 
ATOM     59  H47 non d ame      -9.038   6.682  65.075  0.00  0.00     0.082 H 
ATOM     60  H48 non d ame      -7.589   5.493  65.303  0.00  0.00     0.082 H 
BRANCH  58  61
ATOM     61  C35 non d ame      -9.089   4.890  63.870  0.00  0.00    -0.034 A 
ATOM     62  C30 non d ame      -8.399   5.071  62.675  0.00  0.00    -0.075 A 
ATOM     63  C31 non d ame      -8.790   4.376  61.531  0.00  0.00    -0.082 A 
ATOM     64  H49 non d ame      -7.553   5.756  62.634  0.00  0.00     0.084 H 
ATOM     65  C32 non d ame      -9.877   3.499  61.585  0.00  0.00    -0.083 A 
ATOM     66  H50 non d ame      -8.247   4.517  60.597  0.00  0.00     0.083 H 
ATOM     67  C33 non d ame     -10.564   3.324  62.779  0.00  0.00    -0.082 A 
ATOM     68  H51 non d ame     -10.189   2.951  60.696  0.00  0.00     0.083 H 
ATOM     69  C34 non d ame     -10.175   4.015  63.925  0.00  0.00    -0.075 A 
ATOM     70  H52 non d ame     -11.413   2.641  62.817  0.00  0.00     0.083 H 
ATOM     71  H53 non d ame     -10.719   3.872  64.859  0.00  0.00     0.084 H 
ENDBRANCH  58  61
ENDBRANCH  57  58
ENDBRANCH  55  57
ENDBRANCH  52  55
ENDBRANCH  49  52
ENDBRANCH  47  49
BRANCH  47  72
ATOM     72  C24 non d ame     -10.522   8.287  71.326  0.00  0.00    -0.039 C 
ATOM     73  H35 non d ame     -10.568   7.529  72.109  0.00  0.00     0.036 H 
ATOM     74  H36 non d ame      -9.942   9.196  71.482  0.00  0.00     0.036 H 
BRANCH  72  75
ATOM     75  C25 non d ame     -12.028   8.734  71.013  0.00  0.00    -0.001 C 
ATOM     76  C26 non d ame     -12.084  10.353  70.728  0.00  0.00    -0.035 C 
ATOM     77  C27 non d ame     -13.043  10.901  71.511  0.00  0.00     0.085 C 
ATOM     78  H38 non d ame     -11.167  10.826  71.079  0.00  0.00     0.036 H 
ATOM     79  H39 non d ame     -12.442  10.542  69.716  0.00  0.00     0.036 H 
ATOM     80  N5  non d ame     -13.421   9.862  72.539  0.00  0.00    -0.049 N 
ATOM     81  H40 non d ame     -12.563  11.741  72.015  0.00  0.00     0.075 H 
ATOM     82  H41 non d ame     -13.893  11.075  70.852  0.00  0.00     0.075 H 
ATOM     83  C28 non d ame     -12.811   8.467  72.005  0.00  0.00     0.193 C 
ATOM     84  H42 non d ame     -12.944  10.117  73.392  0.00  0.00     0.280 HD
ATOM     85  H43 non d ame     -14.429   9.799  72.524  0.00  0.00     0.280 HD
ATOM     86  H44 non d ame     -13.459   7.717  71.549  0.00  0.00     0.129 H 
ATOM     87  H37 non d ame     -12.508   8.085  70.281  0.00  0.00     0.046 H 
BRANCH  83  88
ATOM     88  O6  non d ame     -12.129   7.790  73.063  0.00  0.00    -0.369 OA
ATOM     89  H45 non d ame     -12.441   6.884  73.116  0.00  0.00     0.212 HD
ENDBRANCH  83  88
ENDBRANCH  72  75
ENDBRANCH  47  72
ENDBRANCH  45  47
ENDBRANCH   1  43
BRANCH   1  90
ATOM     90  C16 non d ame      -7.521  11.148  68.512  0.00  0.00    -0.035 C 
ATOM     91  H21 non d ame      -7.982  11.738  67.719  0.00  0.00     0.037 H 
ATOM     92  H22 non d ame      -8.048  10.998  69.455  0.00  0.00     0.037 H 
BRANCH  90  93
ATOM     93  C17 non d ame      -6.176  11.858  68.865  0.00  0.00    -0.059 C 
ATOM     94  H23 non d ame      -6.193  12.087  69.931  0.00  0.00     0.038 H 
BRANCH  93  95
ATOM     95  C18 non d ame      -4.938  10.944  68.593  0.00  0.00    -0.073 C 
ATOM     96  H24 non d ame      -4.261  10.987  69.446  0.00  0.00     0.028 H 
ATOM     97  H25 non d ame      -5.271   9.917  68.444  0.00  0.00     0.028 H 
ATOM     98  H26 non d ame      -4.420  11.292  67.700  0.00  0.00     0.028 H 
ENDBRANCH  93  95
BRANCH  93  99
ATOM     99  C19 non d ame      -6.046  13.187  68.117  0.00  0.00    -0.073 C 
ATOM    100  H27 non d ame      -5.250  13.781  68.566  0.00  0.00     0.028 H 
ATOM    101  H28 non d ame      -5.809  12.993  67.070  0.00  0.00     0.028 H 
ATOM    102  H29 non d ame      -6.987  13.733  68.180  0.00  0.00     0.028 H 
ENDBRANCH  93  99
ENDBRANCH  90  93
ENDBRANCH   1  90
TORSDOF 26
ENDMDL
MODEL 4
REMARK VINA RESULT:      -6.7      3.369      8.463
REMARK  26 active torsions:
REMARK  status: ('A' for Active; 'I' for Inactive)
REMARK    1  A    between atoms: C2_2  and  C3_3 
REMARK    2  A    between atoms: C4_6  and  C5_7 
REMARK       I    between atoms: C5_7  and  N2_9 
REMARK    3  A    between atoms: N2_9  and  C6_10 
REMARK    4  A    between atoms: C6_10  and  C7_11 
REMARK    5  A    between atoms: C6_10  and  C8_13 
REMARK       I    between atoms: C7_11  and  N3_14 
REMARK    6  A    between atoms: N3_14  and  C9_15 
REMARK    7  A    between atoms: C9_15  and  C10_16 
REMARK    8  A    between atoms: C9_15  and  C11_18 
REMARK       I    between atoms: C10_16  and  N4_21 
REMARK    9  A    between atoms: C11_18  and  C12_19 
REMARK   10  A    between atoms: C11_18  and  C13_20 
REMARK   11  A    between atoms: N4_21  and  C14_22 
REMARK   12  A    between atoms: C14_22  and  C15_23 
REMARK   13  A    between atoms: C14_22  and  C16_25 
REMARK       I    between atoms: C15_23  and  N6_40 
REMARK   14  A    between atoms: C16_25  and  C17_26 
REMARK   15  A    between atoms: C17_26  and  C18_27 
REMARK   16  A    between atoms: C17_26  and  C19_28 
REMARK   17  A    between atoms: C20_29  and  C21_30 
REMARK   18  A    between atoms: C20_29  and  C24_33 
REMARK   19  A    between atoms: C20_29  and  N6_40 
REMARK   20  A    between atoms: C21_30  and  C22_31 
REMARK   21  A    between atoms: C22_31  and  C23_32 
REMARK   22  A    between atoms: C23_32  and  O8_43 
REMARK   23  A    between atoms: C24_33  and  C25_34 
REMARK   24  A    between atoms: C28_38  and  O6_39 
REMARK   25  A    between atoms: C29_42  and  O8_43 
REMARK   26  A    between atoms: C29_42  and  C35_49 
ROOT
ATOM      1  C14 non d ame     -10.006   9.219  66.860  0.00  0.00     0.089 C 
ATOM      2  H20 non d ame     -11.004   8.785  66.921  0.00  0.00     0.087 H 
ENDROOT
BRANCH   1   3
ATOM      3  N4  non d ame     -10.158  10.613  66.469  0.00  0.00    -0.346 N 
ATOM      4  C10 non d ame     -11.288  11.441  67.026  0.00  0.00     0.241 C 
ATOM      5  O4  non d ame     -12.065  10.964  67.785  0.00  0.00    -0.271 OA
ATOM      6  H19 non d ame      -9.487  11.000  65.820  0.00  0.00     0.163 HD
BRANCH   4   7
ATOM      7  C9  non d ame     -11.426  12.884  66.614  0.00  0.00     0.092 C 
ATOM      8  H11 non d ame     -12.468  13.188  66.721  0.00  0.00     0.088 H 
BRANCH   7   9
ATOM      9  N3  non d ame     -10.634  13.727  67.514  0.00  0.00    -0.346 N 
ATOM     10  C7  non d ame     -11.262  14.361  68.647  0.00  0.00     0.240 C 
ATOM     11  O3  non d ame     -12.405  14.205  68.848  0.00  0.00    -0.271 OA
ATOM     12  H10 non d ame      -9.648  13.872  67.353  0.00  0.00     0.163 HD
BRANCH  10  13
ATOM     13  C6  non d ame     -10.414  15.260  69.599  0.00  0.00     0.086 C 
ATOM     14  H6  non d ame      -9.469  14.798  69.885  0.00  0.00     0.086 H 
BRANCH  13  15
ATOM     15  N2  non d ame     -10.082  16.496  68.910  0.00  0.00    -0.343 N 
ATOM     16  C5  non d ame      -8.872  16.559  68.086  0.00  0.00     0.273 C 
ATOM     17  O2  non d ame      -8.172  15.612  67.987  0.00  0.00    -0.266 OA
ATOM     18  H5  non d ame     -10.684  17.301  69.002  0.00  0.00     0.163 HD
BRANCH  16  19
ATOM     19  C4  non d ame      -8.509  17.858  67.350  0.00  0.00     0.154 A 
ATOM     20  C1  non d ame      -7.444  18.053  66.415  0.00  0.00    -0.017 A 
ATOM     21  C2  non d ame      -7.540  19.410  66.032  0.00  0.00     0.077 A 
ATOM     22  H1  non d ame      -6.713  17.323  66.067  0.00  0.00     0.091 H 
ATOM     23  O1  non d ame      -8.546  19.924  66.677  0.00  0.00    -0.218 OA
ATOM     24  N1  non d ame      -9.128  19.038  67.452  0.00  0.00    -0.123 NA
BRANCH  21  25
ATOM     25  C3  non d ame      -6.633  20.135  65.047  0.00  0.00    -0.029 C 
ATOM     26  H2  non d ame      -7.060  20.072  64.046  0.00  0.00     0.036 H 
ATOM     27  H3  non d ame      -6.543  21.182  65.339  0.00  0.00     0.036 H 
ATOM     28  H4  non d ame      -5.646  19.671  65.051  0.00  0.00     0.036 H 
ENDBRANCH  21  25
ENDBRANCH  16  19
ENDBRANCH  13  15
BRANCH  13  29
ATOM     29  C8  non d ame     -11.205  15.562  70.847  0.00  0.00    -0.049 C 
ATOM     30  H7  non d ame     -10.641  16.248  71.478  0.00  0.00     0.030 H 
ATOM     31  H8  non d ame     -12.156  16.019  70.573  0.00  0.00     0.030 H 
ATOM     32  H9  non d ame     -11.390  14.637  71.392  0.00  0.00     0.030 H 
ENDBRANCH  13  29
ENDBRANCH  10  13
ENDBRANCH   7   9
BRANCH   7  33
ATOM     33  C11 non d ame     -10.911  13.059  65.156  0.00  0.00    -0.033 C 
ATOM     34  H12 non d ame     -10.094  12.352  65.009  0.00  0.00     0.042 H 
BRANCH  33  35
ATOM     35  C12 non d ame     -12.022  12.714  64.115  0.00  0.00    -0.071 C 
ATOM     36  H13 non d ame     -12.242  13.596  63.513  0.00  0.00     0.028 H 
ATOM     37  H14 non d ame     -11.675  11.910  63.467  0.00  0.00     0.028 H 
ATOM     38  H15 non d ame     -12.923  12.396  64.638  0.00  0.00     0.028 H 
ENDBRANCH  33  35
BRANCH  33  39
ATOM     39  C13 non d ame     -10.351  14.500  64.930  0.00  0.00    -0.071 C 
ATOM     40  H16 non d ame     -10.592  15.122  65.791  0.00  0.00     0.028 H 
ATOM     41  H17 non d ame      -9.268  14.453  64.806  0.00  0.00     0.028 H 
ATOM     42  H18 non d ame     -10.801  14.928  64.034  0.00  0.00     0.028 H 
ENDBRANCH  33  39
ENDBRANCH   7  33
ENDBRANCH   4   7
ENDBRANCH   1   3
BRANCH   1  43
ATOM     43  C15 non d ame      -9.259   9.166  68.224  0.00  0.00     0.240 C 
ATOM     44  O5  non d ame      -8.271   9.808  68.382  0.00  0.00    -0.271 OA
ATOM     45  N6  non d ame      -9.780   8.320  69.336  0.00  0.00    -0.355 N 
ATOM     46  H46 non d ame     -10.621   7.774  69.215  0.00  0.00     0.162 HD
BRANCH  45  47
ATOM     47  C20 non d ame      -9.059   8.281  70.626  0.00  0.00     0.013 C 
ATOM     48  H30 non d ame      -8.227   8.983  70.567  0.00  0.00     0.072 H 
BRANCH  47  49
ATOM     49  C21 non d ame      -8.539   6.882  70.866  0.00  0.00    -0.038 C 
ATOM     50  H31 non d ame      -8.452   6.781  71.948  0.00  0.00     0.036 H 
ATOM     51  H32 non d ame      -9.204   6.222  70.309  0.00  0.00     0.036 H 
BRANCH  49  52
ATOM     52  C22 non d ame      -7.123   6.662  70.292  0.00  0.00     0.018 C 
ATOM     53  H33 non d ame      -6.797   7.636  69.927  0.00  0.00     0.048 H 
ATOM     54  H34 non d ame      -6.560   6.159  71.079  0.00  0.00     0.048 H 
BRANCH  52  55
ATOM     55  C23 non d ame      -7.086   5.710  69.064  0.00  0.00     0.259 C 
ATOM     56  O7  non d ame      -6.340   4.785  69.040  0.00  0.00    -0.265 OA
BRANCH  55  57
ATOM     57  O8  non d ame      -7.945   5.965  67.959  0.00  0.00    -0.317 OA
BRANCH  57  58
ATOM     58  C29 non d ame      -8.177   4.824  67.128  0.00  0.00     0.052 C 
ATOM     59  H47 non d ame      -7.512   4.046  67.502  0.00  0.00     0.082 H 
ATOM     60  H48 non d ame      -9.255   4.669  67.134  0.00  0.00     0.082 H 
BRANCH  58  61
ATOM     61  C35 non d ame      -7.742   5.189  65.683  0.00  0.00    -0.034 A 
ATOM     62  C30 non d ame      -8.667   5.142  64.645  0.00  0.00    -0.075 A 
ATOM     63  C31 non d ame      -8.277   5.469  63.347  0.00  0.00    -0.082 A 
ATOM     64  H49 non d ame      -9.698   4.850  64.848  0.00  0.00     0.084 H 
ATOM     65  C32 non d ame      -6.955   5.842  63.089  0.00  0.00    -0.083 A 
ATOM     66  H50 non d ame      -9.005   5.434  62.536  0.00  0.00     0.083 H 
ATOM     67  C33 non d ame      -6.035   5.884  64.127  0.00  0.00    -0.082 A 
ATOM     68  H51 non d ame      -6.642   6.100  62.077  0.00  0.00     0.083 H 
ATOM     69  C34 non d ame      -6.421   5.560  65.426  0.00  0.00    -0.075 A 
ATOM     70  H52 non d ame      -5.004   6.173  63.922  0.00  0.00     0.083 H 
ATOM     71  H53 non d ame      -5.693   5.596  66.237  0.00  0.00     0.084 H 
ENDBRANCH  58  61
ENDBRANCH  57  58
ENDBRANCH  55  57
ENDBRANCH  52  55
ENDBRANCH  49  52
ENDBRANCH  47  49
BRANCH  47  72
ATOM     72  C24 non d ame     -10.005   8.675  71.759  0.00  0.00    -0.039 C 
ATOM     73  H35 non d ame      -9.869   7.915  72.528  0.00  0.00     0.036 H 
ATOM     74  H36 non d ame      -9.777   9.719  71.977  0.00  0.00     0.036 H 
BRANCH  72  75
ATOM     75  C25 non d ame     -11.538   8.612  71.299  0.00  0.00    -0.001 C 
ATOM     76  C26 non d ame     -12.158  10.133  71.205  0.00  0.00    -0.035 C 
ATOM     77  C27 non d ame     -13.314  10.177  71.910  0.00  0.00     0.085 C 
ATOM     78  H38 non d ame     -11.510  10.833  71.732  0.00  0.00     0.036 H 
ATOM     79  H39 non d ame     -12.474  10.346  70.184  0.00  0.00     0.036 H 
ATOM     80  N5  non d ame     -13.371   8.920  72.744  0.00  0.00    -0.049 N 
ATOM     81  H40 non d ame     -13.218  11.039  72.572  0.00  0.00     0.075 H 
ATOM     82  H41 non d ame     -14.109  10.147  71.166  0.00  0.00     0.075 H 
ATOM     83  C28 non d ame     -12.250   7.932  72.134  0.00  0.00     0.193 C 
ATOM     84  H42 non d ame     -13.094   9.184  73.678  0.00  0.00     0.280 HD
ATOM     85  H43 non d ame     -14.281   8.512  72.583  0.00  0.00     0.280 HD
ATOM     86  H44 non d ame     -12.537   7.087  71.508  0.00  0.00     0.129 H 
ATOM     87  H37 non d ame     -11.684   7.963  70.435  0.00  0.00     0.046 H 
BRANCH  83  88
ATOM     88  O6  non d ame     -11.459   7.375  73.186  0.00  0.00    -0.369 OA
ATOM     89  H45 non d ame     -10.908   6.672  72.835  0.00  0.00     0.212 HD
ENDBRANCH  83  88
ENDBRANCH  72  75
ENDBRANCH  47  72
ENDBRANCH  45  47
ENDBRANCH   1  43
BRANCH   1  90
ATOM     90  C16 non d ame      -9.192   8.493  65.802  0.00  0.00    -0.035 C 
ATOM     91  H21 non d ame      -8.453   7.911  66.355  0.00  0.00     0.037 H 
ATOM     92  H22 non d ame      -9.923   7.986  65.172  0.00  0.00     0.037 H 
BRANCH  90  93
ATOM     93  C17 non d ame      -8.388   9.449  64.864  0.00  0.00    -0.059 C 
ATOM     94  H23 non d ame      -8.705  10.469  65.082  0.00  0.00     0.038 H 
BRANCH  93  95
ATOM     95  C18 non d ame      -6.848   9.364  65.116  0.00  0.00    -0.073 C 
ATOM     96  H24 non d ame      -6.409   8.632  64.438  0.00  0.00     0.028 H 
ATOM     97  H25 non d ame      -6.397  10.341  64.939  0.00  0.00     0.028 H 
ATOM     98  H26 non d ame      -6.665   9.061  66.147  0.00  0.00     0.028 H 
ENDBRANCH  93  95
BRANCH  93  99
ATOM     99  C19 non d ame      -8.715   9.175  63.394  0.00  0.00    -0.073 C 
ATOM    100  H27 non d ame      -8.064   8.385  63.018  0.00  0.00     0.028 H 
ATOM    101  H28 non d ame      -9.756   8.861  63.306  0.00  0.00     0.028 H 
ATOM    102  H29 non d ame      -8.559  10.083  62.812  0.00  0.00     0.028 H 
ENDBRANCH  93  99
ENDBRANCH  90  93
ENDBRANCH   1  90
TORSDOF 26
ENDMDL
MODEL 5
REMARK VINA RESULT:      -6.6      3.622      8.881
REMARK  26 active torsions:
REMARK  status: ('A' for Active; 'I' for Inactive)
REMARK    1  A    between atoms: C2_2  and  C3_3 
REMARK    2  A    between atoms: C4_6  and  C5_7 
REMARK       I    between atoms: C5_7  and  N2_9 
REMARK    3  A    between atoms: N2_9  and  C6_10 
REMARK    4  A    between atoms: C6_10  and  C7_11 
REMARK    5  A    between atoms: C6_10  and  C8_13 
REMARK       I    between atoms: C7_11  and  N3_14 
REMARK    6  A    between atoms: N3_14  and  C9_15 
REMARK    7  A    between atoms: C9_15  and  C10_16 
REMARK    8  A    between atoms: C9_15  and  C11_18 
REMARK       I    between atoms: C10_16  and  N4_21 
REMARK    9  A    between atoms: C11_18  and  C12_19 
REMARK   10  A    between atoms: C11_18  and  C13_20 
REMARK   11  A    between atoms: N4_21  and  C14_22 
REMARK   12  A    between atoms: C14_22  and  C15_23 
REMARK   13  A    between atoms: C14_22  and  C16_25 
REMARK       I    between atoms: C15_23  and  N6_40 
REMARK   14  A    between atoms: C16_25  and  C17_26 
REMARK   15  A    between atoms: C17_26  and  C18_27 
REMARK   16  A    between atoms: C17_26  and  C19_28 
REMARK   17  A    between atoms: C20_29  and  C21_30 
REMARK   18  A    between atoms: C20_29  and  C24_33 
REMARK   19  A    between atoms: C20_29  and  N6_40 
REMARK   20  A    between atoms: C21_30  and  C22_31 
REMARK   21  A    between atoms: C22_31  and  C23_32 
REMARK   22  A    between atoms: C23_32  and  O8_43 
REMARK   23  A    between atoms: C24_33  and  C25_34 
REMARK   24  A    between atoms: C28_38  and  O6_39 
REMARK   25  A    between atoms: C29_42  and  O8_43 
REMARK   26  A    between atoms: C29_42  and  C35_49 
ROOT
ATOM      1  C14 non d ame      -8.276   9.319  64.406  0.00  0.00     0.089 C 
ATOM      2  H20 non d ame      -7.517   9.737  65.069  0.00  0.00     0.087 H 
ENDROOT
BRANCH   1   3
ATOM      3  N4  non d ame      -8.758   8.087  65.013  0.00  0.00    -0.346 N 
ATOM      4  C10 non d ame      -7.895   7.333  65.993  0.00  0.00     0.241 C 
ATOM      5  O4  non d ame      -6.814   7.735  66.275  0.00  0.00    -0.271 OA
ATOM      6  H19 non d ame      -9.679   7.761  64.758  0.00  0.00     0.163 HD
BRANCH   4   7
ATOM      7  C9  non d ame      -8.412   6.063  66.616  0.00  0.00     0.092 C 
ATOM      8  H11 non d ame      -7.743   5.241  66.362  0.00  0.00     0.088 H 
BRANCH   7   9
ATOM      9  N3  non d ame      -8.401   6.195  68.076  0.00  0.00    -0.346 N 
ATOM     10  C7  non d ame      -7.841   5.144  68.890  0.00  0.00     0.240 C 
ATOM     11  O3  non d ame      -7.397   4.185  68.387  0.00  0.00    -0.271 OA
ATOM     12  H10 non d ame      -8.782   7.016  68.525  0.00  0.00     0.163 HD
BRANCH  10  13
ATOM     13  C6  non d ame      -7.835   5.289  70.444  0.00  0.00     0.086 C 
ATOM     14  H6  non d ame      -7.166   6.076  70.791  0.00  0.00     0.086 H 
BRANCH  13  15
ATOM     15  N2  non d ame      -9.170   5.652  70.889  0.00  0.00    -0.343 N 
ATOM     16  C5  non d ame      -9.544   7.065  70.973  0.00  0.00     0.273 C 
ATOM     17  O2  non d ame      -8.762   7.903  70.682  0.00  0.00    -0.266 OA
ATOM     18  H5  non d ame      -9.831   4.929  71.138  0.00  0.00     0.163 HD
BRANCH  16  19
ATOM     19  C4  non d ame     -10.953   7.463  71.440  0.00  0.00     0.154 A 
ATOM     20  C1  non d ame     -12.198   6.919  70.992  0.00  0.00    -0.017 A 
ATOM     21  C2  non d ame     -13.184   7.617  71.724  0.00  0.00     0.077 A 
ATOM     22  H1  non d ame     -12.361   6.137  70.249  0.00  0.00     0.091 H 
ATOM     23  O1  non d ame     -12.567   8.460  72.499  0.00  0.00    -0.218 OA
ATOM     24  N1  non d ame     -11.264   8.388  72.351  0.00  0.00    -0.123 NA
BRANCH  21  25
ATOM     25  C3  non d ame     -14.691   7.418  71.623  0.00  0.00    -0.029 C 
ATOM     26  H2  non d ame     -15.056   7.865  70.698  0.00  0.00     0.036 H 
ATOM     27  H3  non d ame     -14.917   6.352  71.626  0.00  0.00     0.036 H 
ATOM     28  H4  non d ame     -15.178   7.895  72.474  0.00  0.00     0.036 H 
ENDBRANCH  21  25
ENDBRANCH  16  19
ENDBRANCH  13  15
BRANCH  13  29
ATOM     29  C8  non d ame      -7.418   3.983  71.072  0.00  0.00    -0.049 C 
ATOM     30  H7  non d ame      -6.884   4.181  72.002  0.00  0.00     0.030 H 
ATOM     31  H8  non d ame      -8.302   3.382  71.281  0.00  0.00     0.030 H 
ATOM     32  H9  non d ame      -6.764   3.444  70.387  0.00  0.00     0.030 H 
ENDBRANCH  13  29
ENDBRANCH  10  13
ENDBRANCH   7   9
BRANCH   7  33
ATOM     33  C11 non d ame      -9.869   5.804  66.133  0.00  0.00    -0.033 C 
ATOM     34  H12 non d ame     -10.042   6.432  65.259  0.00  0.00     0.042 H 
BRANCH  33  35
ATOM     35  C12 non d ame     -10.066   4.320  65.690  0.00  0.00    -0.071 C 
ATOM     36  H13 non d ame      -9.607   4.169  64.713  0.00  0.00     0.028 H 
ATOM     37  H14 non d ame      -9.596   3.659  66.418  0.00  0.00     0.028 H 
ATOM     38  H15 non d ame     -11.131   4.098  65.631  0.00  0.00     0.028 H 
ENDBRANCH  33  35
BRANCH  33  39
ATOM     39  C13 non d ame     -10.903   6.209  67.232  0.00  0.00    -0.071 C 
ATOM     40  H16 non d ame     -10.829   5.520  68.073  0.00  0.00     0.028 H 
ATOM     41  H17 non d ame     -10.692   7.223  67.573  0.00  0.00     0.028 H 
ATOM     42  H18 non d ame     -11.910   6.168  66.816  0.00  0.00     0.028 H 
ENDBRANCH  33  39
ENDBRANCH   7  33
ENDBRANCH   4   7
ENDBRANCH   1   3
BRANCH   1  43
ATOM     43  C15 non d ame      -9.482  10.281  64.213  0.00  0.00     0.240 C 
ATOM     44  O5  non d ame     -10.015  10.357  63.153  0.00  0.00    -0.271 OA
ATOM     45  N6  non d ame      -9.980  11.103  65.352  0.00  0.00    -0.355 N 
ATOM     46  H46 non d ame      -9.539  11.045  66.259  0.00  0.00     0.162 HD
BRANCH  45  47
ATOM     47  C20 non d ame     -11.129  12.013  65.153  0.00  0.00     0.013 C 
ATOM     48  H30 non d ame     -11.786  11.565  64.408  0.00  0.00     0.072 H 
BRANCH  47  49
ATOM     49  C21 non d ame     -10.628  13.352  64.662  0.00  0.00    -0.038 C 
ATOM     50  H31 non d ame      -9.827  13.635  65.345  0.00  0.00     0.036 H 
ATOM     51  H32 non d ame     -10.416  13.216  63.601  0.00  0.00     0.036 H 
BRANCH  49  52
ATOM     52  C22 non d ame     -11.696  14.463  64.755  0.00  0.00     0.018 C 
ATOM     53  H33 non d ame     -12.371  14.295  63.916  0.00  0.00     0.048 H 
ATOM     54  H34 non d ame     -12.075  14.423  65.777  0.00  0.00     0.048 H 
BRANCH  52  55
ATOM     55  C23 non d ame     -11.126  15.897  64.567  0.00  0.00     0.259 C 
ATOM     56  O7  non d ame     -11.718  16.701  63.923  0.00  0.00    -0.265 OA
BRANCH  55  57
ATOM     57  O8  non d ame      -9.880  16.235  65.163  0.00  0.00    -0.317 OA
BRANCH  57  58
ATOM     58  C29 non d ame      -9.989  16.720  66.504  0.00  0.00     0.052 C 
ATOM     59  H47 non d ame      -9.596  17.737  66.483  0.00  0.00     0.082 H 
ATOM     60  H48 non d ame     -11.022  16.542  66.800  0.00  0.00     0.082 H 
BRANCH  58  61
ATOM     61  C35 non d ame      -9.065  15.856  67.403  0.00  0.00    -0.034 A 
ATOM     62  C30 non d ame      -9.031  16.071  68.777  0.00  0.00    -0.075 A 
ATOM     63  C31 non d ame      -8.201  15.294  69.585  0.00  0.00    -0.082 A 
ATOM     64  H49 non d ame      -9.654  16.847  69.221  0.00  0.00     0.084 H 
ATOM     65  C32 non d ame      -7.401  14.301  69.013  0.00  0.00    -0.083 A 
ATOM     66  H50 non d ame      -8.178  15.464  70.661  0.00  0.00     0.083 H 
ATOM     67  C33 non d ame      -7.437  14.093  67.641  0.00  0.00    -0.082 A 
ATOM     68  H51 non d ame      -6.750  13.689  69.637  0.00  0.00     0.083 H 
ATOM     69  C34 non d ame      -8.266  14.865  66.830  0.00  0.00    -0.075 A 
ATOM     70  H52 non d ame      -6.810  13.318  67.197  0.00  0.00     0.083 H 
ATOM     71  H53 non d ame      -8.289  14.694  65.753  0.00  0.00     0.084 H 
ENDBRANCH  58  61
ENDBRANCH  57  58
ENDBRANCH  55  57
ENDBRANCH  52  55
ENDBRANCH  49  52
ENDBRANCH  47  49
BRANCH  47  72
ATOM     72  C24 non d ame     -11.874  12.200  66.473  0.00  0.00    -0.039 C 
ATOM     73  H35 non d ame     -12.166  13.251  66.494  0.00  0.00     0.036 H 
ATOM     74  H36 non d ame     -12.638  11.423  66.488  0.00  0.00     0.036 H 
BRANCH  72  75
ATOM     75  C25 non d ame     -10.919  11.950  67.734  0.00  0.00    -0.001 C 
ATOM     76  C26 non d ame     -11.336  10.546  68.482  0.00  0.00    -0.035 C 
ATOM     77  C27 non d ame     -11.504  10.789  69.804  0.00  0.00     0.085 C 
ATOM     78  H38 non d ame     -12.325  10.227  68.154  0.00  0.00     0.036 H 
ATOM     79  H39 non d ame     -10.500   9.846  68.456  0.00  0.00     0.036 H 
ATOM     80  N5  non d ame     -11.560  12.288  69.973  0.00  0.00    -0.049 N 
ATOM     81  H40 non d ame     -12.477  10.366  70.057  0.00  0.00     0.075 H 
ATOM     82  H41 non d ame     -10.603  10.412  70.286  0.00  0.00     0.075 H 
ATOM     83  C28 non d ame     -11.011  12.913  68.589  0.00  0.00     0.193 C 
ATOM     84  H42 non d ame     -12.537  12.529  70.070  0.00  0.00     0.280 HD
ATOM     85  H43 non d ame     -10.909  12.518  70.710  0.00  0.00     0.280 HD
ATOM     86  H44 non d ame     -10.005  13.328  68.530  0.00  0.00     0.129 H 
ATOM     87  H37 non d ame      -9.866  12.087  67.488  0.00  0.00     0.046 H 
BRANCH  83  88
ATOM     88  O6  non d ame     -11.881  13.953  68.138  0.00  0.00    -0.369 OA
ATOM     89  H45 non d ame     -11.995  14.600  68.838  0.00  0.00     0.212 HD
ENDBRANCH  83  88
ENDBRANCH  72  75
ENDBRANCH  47  72
ENDBRANCH  45  47
ENDBRANCH   1  43
BRANCH   1  90
ATOM     90  C16 non d ame      -7.657   8.997  63.055  0.00  0.00    -0.035 C 
ATOM     91  H21 non d ame      -7.578   7.910  63.025  0.00  0.00     0.037 H 
ATOM     92  H22 non d ame      -8.275   9.518  62.323  0.00  0.00     0.037 H 
BRANCH  90  93
ATOM     93  C17 non d ame      -6.207   9.549  62.882  0.00  0.00    -0.059 C 
ATOM     94  H23 non d ame      -6.207  10.214  62.018  0.00  0.00     0.038 H 
BRANCH  93  95
ATOM     95  C18 non d ame      -5.740  10.379  64.121  0.00  0.00    -0.073 C 
ATOM     96  H24 non d ame      -4.739  10.064  64.412  0.00  0.00     0.028 H 
ATOM     97  H25 non d ame      -5.728  11.439  63.865  0.00  0.00     0.028 H 
ATOM     98  H26 non d ame      -6.429  10.213  64.949  0.00  0.00     0.028 H 
ENDBRANCH  93  95
BRANCH  93  99
ATOM     99  C19 non d ame      -5.222   8.416  62.583  0.00  0.00    -0.073 C 
ATOM    100  H27 non d ame      -5.037   7.845  63.493  0.00  0.00     0.028 H 
ATOM    101  H28 non d ame      -5.644   7.760  61.821  0.00  0.00     0.028 H 
ATOM    102  H29 non d ame      -4.284   8.836  62.220  0.00  0.00     0.028 H 
ENDBRANCH  93  99
ENDBRANCH  90  93
ENDBRANCH   1  90
TORSDOF 26
ENDMDL
MODEL 6
REMARK VINA RESULT:      -6.4      2.916      6.744
REMARK  26 active torsions:
REMARK  status: ('A' for Active; 'I' for Inactive)
REMARK    1  A    between atoms: C2_2  and  C3_3 
REMARK    2  A    between atoms: C4_6  and  C5_7 
REMARK       I    between atoms: C5_7  and  N2_9 
REMARK    3  A    between atoms: N2_9  and  C6_10 
REMARK    4  A    between atoms: C6_10  and  C7_11 
REMARK    5  A    between atoms: C6_10  and  C8_13 
REMARK       I    between atoms: C7_11  and  N3_14 
REMARK    6  A    between atoms: N3_14  and  C9_15 
REMARK    7  A    between atoms: C9_15  and  C10_16 
REMARK    8  A    between atoms: C9_15  and  C11_18 
REMARK       I    between atoms: C10_16  and  N4_21 
REMARK    9  A    between atoms: C11_18  and  C12_19 
REMARK   10  A    between atoms: C11_18  and  C13_20 
REMARK   11  A    between atoms: N4_21  and  C14_22 
REMARK   12  A    between atoms: C14_22  and  C15_23 
REMARK   13  A    between atoms: C14_22  and  C16_25 
REMARK       I    between atoms: C15_23  and  N6_40 
REMARK   14  A    between atoms: C16_25  and  C17_26 
REMARK   15  A    between atoms: C17_26  and  C18_27 
REMARK   16  A    between atoms: C17_26  and  C19_28 
REMARK   17  A    between atoms: C20_29  and  C21_30 
REMARK   18  A    between atoms: C20_29  and  C24_33 
REMARK   19  A    between atoms: C20_29  and  N6_40 
REMARK   20  A    between atoms: C21_30  and  C22_31 
REMARK   21  A    between atoms: C22_31  and  C23_32 
REMARK   22  A    between atoms: C23_32  and  O8_43 
REMARK   23  A    between atoms: C24_33  and  C25_34 
REMARK   24  A    between atoms: C28_38  and  O6_39 
REMARK   25  A    between atoms: C29_42  and  O8_43 
REMARK   26  A    between atoms: C29_42  and  C35_49 
ROOT
ATOM      1  C14 non d ame      -9.797  11.545  65.937  0.00  0.00     0.089 C 
ATOM      2  H20 non d ame     -10.305  11.355  66.883  0.00  0.00     0.087 H 
ENDROOT
BRANCH   1   3
ATOM      3  N4  non d ame      -8.844  12.622  66.160  0.00  0.00    -0.346 N 
ATOM      4  C10 non d ame      -8.119  12.736  67.478  0.00  0.00     0.241 C 
ATOM      5  O4  non d ame      -8.323  11.952  68.345  0.00  0.00    -0.271 OA
ATOM      6  H19 non d ame      -8.687  13.281  65.411  0.00  0.00     0.163 HD
BRANCH   4   7
ATOM      7  C9  non d ame      -7.132  13.854  67.690  0.00  0.00     0.092 C 
ATOM      8  H11 non d ame      -6.739  14.173  66.724  0.00  0.00     0.088 H 
BRANCH   7   9
ATOM      9  N3  non d ame      -7.817  15.007  68.281  0.00  0.00    -0.346 N 
ATOM     10  C7  non d ame      -8.608  15.879  67.449  0.00  0.00     0.240 C 
ATOM     11  O3  non d ame      -8.703  15.669  66.302  0.00  0.00    -0.271 OA
ATOM     12  H10 non d ame      -7.743  15.202  69.269  0.00  0.00     0.163 HD
BRANCH  10  13
ATOM     13  C6  non d ame      -9.333  17.107  68.084  0.00  0.00     0.086 C 
ATOM     14  H6  non d ame     -10.133  17.496  67.455  0.00  0.00     0.086 H 
BRANCH  13  15
ATOM     15  N2  non d ame      -9.949  16.695  69.334  0.00  0.00    -0.343 N 
ATOM     16  C5  non d ame     -11.340  16.237  69.337  0.00  0.00     0.273 C 
ATOM     17  O2  non d ame     -11.956  16.207  68.328  0.00  0.00    -0.266 OA
ATOM     18  H5  non d ame      -9.417  16.728  70.192  0.00  0.00     0.163 HD
BRANCH  16  19
ATOM     19  C4  non d ame     -12.004  15.798  70.651  0.00  0.00     0.154 A 
ATOM     20  C1  non d ame     -11.585  16.120  71.981  0.00  0.00    -0.017 A 
ATOM     21  C2  non d ame     -12.522  15.480  72.822  0.00  0.00     0.077 A 
ATOM     22  H1  non d ame     -10.733  16.726  72.288  0.00  0.00     0.091 H 
ATOM     23  O1  non d ame     -13.375  14.866  72.055  0.00  0.00    -0.218 OA
ATOM     24  N1  non d ame     -13.093  15.037  70.784  0.00  0.00    -0.123 NA
BRANCH  21  25
ATOM     25  C3  non d ame     -12.532  15.505  74.345  0.00  0.00    -0.029 C 
ATOM     26  H2  non d ame     -11.525  15.706  74.712  0.00  0.00     0.036 H 
ATOM     27  H3  non d ame     -13.207  16.287  74.691  0.00  0.00     0.036 H 
ATOM     28  H4  non d ame     -12.870  14.539  74.723  0.00  0.00     0.036 H 
ENDBRANCH  21  25
ENDBRANCH  16  19
ENDBRANCH  13  15
BRANCH  13  29
ATOM     29  C8  non d ame      -8.334  18.207  68.338  0.00  0.00    -0.049 C 
ATOM     30  H7  non d ame      -8.720  18.879  69.104  0.00  0.00     0.030 H 
ATOM     31  H8  non d ame      -7.393  17.773  68.676  0.00  0.00     0.030 H 
ATOM     32  H9  non d ame      -8.168  18.765  67.417  0.00  0.00     0.030 H 
ENDBRANCH  13  29
ENDBRANCH  10  13
ENDBRANCH   7   9
BRANCH   7  33
ATOM     33  C11 non d ame      -6.005  13.374  68.651  0.00  0.00    -0.033 C 
ATOM     34  H12 non d ame      -6.182  12.320  68.866  0.00  0.00     0.042 H 
BRANCH  33  35
ATOM     35  C12 non d ame      -4.600  13.486  67.980  0.00  0.00    -0.071 C 
ATOM     36  H13 non d ame      -4.006  14.235  68.505  0.00  0.00     0.028 H 
ATOM     37  H14 non d ame      -4.095  12.521  68.032  0.00  0.00     0.028 H 
ATOM     38  H15 non d ame      -4.718  13.780  66.938  0.00  0.00     0.028 H 
ENDBRANCH  33  35
BRANCH  33  39
ATOM     39  C13 non d ame      -6.051  14.157  70.002  0.00  0.00    -0.071 C 
ATOM     40  H16 non d ame      -5.697  13.514  70.807  0.00  0.00     0.028 H 
ATOM     41  H17 non d ame      -5.413  15.039  69.934  0.00  0.00     0.028 H 
ATOM     42  H18 non d ame      -7.076  14.466  70.207  0.00  0.00     0.028 H 
ENDBRANCH  33  39
ENDBRANCH   7  33
ENDBRANCH   4   7
ENDBRANCH   1   3
BRANCH   1  43
ATOM     43  C15 non d ame      -9.024  10.297  65.424  0.00  0.00     0.240 C 
ATOM     44  O5  non d ame      -9.193   9.914  64.311  0.00  0.00    -0.271 OA
ATOM     45  N6  non d ame      -8.066   9.585  66.316  0.00  0.00    -0.355 N 
ATOM     46  H46 non d ame      -7.911   9.904  67.262  0.00  0.00     0.162 HD
BRANCH  45  47
ATOM     47  C20 non d ame      -7.338   8.400  65.813  0.00  0.00     0.013 C 
ATOM     48  H30 non d ame      -7.859   8.037  64.927  0.00  0.00     0.072 H 
BRANCH  47  49
ATOM     49  C21 non d ame      -7.326   7.330  66.881  0.00  0.00    -0.038 C 
ATOM     50  H31 non d ame      -6.534   6.637  66.595  0.00  0.00     0.036 H 
ATOM     51  H32 non d ame      -7.268   7.862  67.830  0.00  0.00     0.036 H 
BRANCH  49  52
ATOM     52  C22 non d ame      -8.632   6.507  66.919  0.00  0.00     0.018 C 
ATOM     53  H33 non d ame      -8.924   6.367  65.878  0.00  0.00     0.048 H 
ATOM     54  H34 non d ame      -8.417   5.641  67.546  0.00  0.00     0.048 H 
BRANCH  52  55
ATOM     55  C23 non d ame      -9.817   7.246  67.601  0.00  0.00     0.259 C 
ATOM     56  O7  non d ame     -10.699   7.703  66.948  0.00  0.00    -0.265 OA
BRANCH  55  57
ATOM     57  O8  non d ame      -9.831   7.382  69.017  0.00  0.00    -0.317 OA
BRANCH  57  58
ATOM     58  C29 non d ame      -9.489   8.691  69.479  0.00  0.00     0.052 C 
ATOM     59  H47 non d ame      -8.689   8.548  70.205  0.00  0.00     0.082 H 
ATOM     60  H48 non d ame      -9.311   9.284  68.582  0.00  0.00     0.082 H 
BRANCH  58  61
ATOM     61  C35 non d ame     -10.722   9.277  70.217  0.00  0.00    -0.034 A 
ATOM     62  C30 non d ame     -11.182  10.552  69.903  0.00  0.00    -0.075 A 
ATOM     63  C31 non d ame     -12.289  11.078  70.566  0.00  0.00    -0.082 A 
ATOM     64  H49 non d ame     -10.674  11.139  69.137  0.00  0.00     0.084 H 
ATOM     65  C32 non d ame     -12.937  10.324  71.548  0.00  0.00    -0.083 A 
ATOM     66  H50 non d ame     -12.648  12.076  70.316  0.00  0.00     0.083 H 
ATOM     67  C33 non d ame     -12.474   9.054  71.861  0.00  0.00    -0.082 A 
ATOM     68  H51 non d ame     -13.805  10.728  72.071  0.00  0.00     0.083 H 
ATOM     69  C34 non d ame     -11.368   8.523  71.199  0.00  0.00    -0.075 A 
ATOM     70  H52 non d ame     -12.980   8.469  72.629  0.00  0.00     0.083 H 
ATOM     71  H53 non d ame     -11.010   7.524  71.449  0.00  0.00     0.084 H 
ENDBRANCH  58  61
ENDBRANCH  57  58
ENDBRANCH  55  57
ENDBRANCH  52  55
ENDBRANCH  49  52
ENDBRANCH  47  49
BRANCH  47  72
ATOM     72  C24 non d ame      -5.902   8.787  65.462  0.00  0.00    -0.039 C 
ATOM     73  H35 non d ame      -5.697   9.690  66.038  0.00  0.00     0.036 H 
ATOM     74  H36 non d ame      -5.310   7.888  65.631  0.00  0.00     0.036 H 
BRANCH  72  75
ATOM     75  C25 non d ame      -5.753   9.169  63.914  0.00  0.00    -0.001 C 
ATOM     76  C26 non d ame      -4.483   8.356  63.257  0.00  0.00    -0.035 C 
ATOM     77  C27 non d ame      -3.681   9.242  62.619  0.00  0.00     0.085 C 
ATOM     78  H38 non d ame      -3.847   7.957  64.046  0.00  0.00     0.036 H 
ATOM     79  H39 non d ame      -4.831   7.705  62.455  0.00  0.00     0.036 H 
ATOM     80  N5  non d ame      -4.109  10.621  63.058  0.00  0.00    -0.049 N 
ATOM     81  H40 non d ame      -2.675   9.046  62.994  0.00  0.00     0.075 H 
ATOM     82  H41 non d ame      -3.900   9.122  61.559  0.00  0.00     0.075 H 
ATOM     83  C28 non d ame      -5.550  10.435  63.762  0.00  0.00     0.193 C 
ATOM     84  H42 non d ame      -3.445  10.918  63.758  0.00  0.00     0.280 HD
ATOM     85  H43 non d ame      -4.231  11.164  62.215  0.00  0.00     0.280 HD
ATOM     86  H44 non d ame      -6.463  10.721  63.239  0.00  0.00     0.129 H 
ATOM     87  H37 non d ame      -6.703   9.118  63.382  0.00  0.00     0.046 H 
BRANCH  83  88
ATOM     88  O6  non d ame      -5.586  11.140  65.005  0.00  0.00    -0.369 OA
ATOM     89  H45 non d ame      -4.867  11.775  65.033  0.00  0.00     0.212 HD
ENDBRANCH  83  88
ENDBRANCH  72  75
ENDBRANCH  47  72
ENDBRANCH  45  47
ENDBRANCH   1  43
BRANCH   1  90
ATOM     90  C16 non d ame     -10.808  11.987  64.890  0.00  0.00    -0.035 C 
ATOM     91  H21 non d ame     -10.268  12.676  64.240  0.00  0.00     0.037 H 
ATOM     92  H22 non d ame     -11.223  11.065  64.482  0.00  0.00     0.037 H 
BRANCH  90  93
ATOM     93  C17 non d ame     -12.011  12.789  65.480  0.00  0.00    -0.059 C 
ATOM     94  H23 non d ame     -12.925  12.258  65.214  0.00  0.00     0.038 H 
BRANCH  93  95
ATOM     95  C18 non d ame     -11.950  12.882  67.039  0.00  0.00    -0.073 C 
ATOM     96  H24 non d ame     -12.768  13.506  67.397  0.00  0.00     0.028 H 
ATOM     97  H25 non d ame     -12.042  11.882  67.466  0.00  0.00     0.028 H 
ATOM     98  H26 non d ame     -10.999  13.320  67.340  0.00  0.00     0.028 H 
ENDBRANCH  93  95
BRANCH  93  99
ATOM     99  C19 non d ame     -12.098  14.184  64.855  0.00  0.00    -0.073 C 
ATOM    100  H27 non d ame     -11.327  14.824  65.286  0.00  0.00     0.028 H 
ATOM    101  H28 non d ame     -11.947  14.108  63.778  0.00  0.00     0.028 H 
ATOM    102  H29 non d ame     -13.080  14.611  65.055  0.00  0.00     0.028 H 
ENDBRANCH  93  99
ENDBRANCH  90  93
ENDBRANCH   1  90
TORSDOF 26
ENDMDL
MODEL 7
REMARK VINA RESULT:      -6.3      3.525      9.160
REMARK  26 active torsions:
REMARK  status: ('A' for Active; 'I' for Inactive)
REMARK    1  A    between atoms: C2_2  and  C3_3 
REMARK    2  A    between atoms: C4_6  and  C5_7 
REMARK       I    between atoms: C5_7  and  N2_9 
REMARK    3  A    between atoms: N2_9  and  C6_10 
REMARK    4  A    between atoms: C6_10  and  C7_11 
REMARK    5  A    between atoms: C6_10  and  C8_13 
REMARK       I    between atoms: C7_11  and  N3_14 
REMARK    6  A    between atoms: N3_14  and  C9_15 
REMARK    7  A    between atoms: C9_15  and  C10_16 
REMARK    8  A    between atoms: C9_15  and  C11_18 
REMARK       I    between atoms: C10_16  and  N4_21 
REMARK    9  A    between atoms: C11_18  and  C12_19 
REMARK   10  A    between atoms: C11_18  and  C13_20 
REMARK   11  A    between atoms: N4_21  and  C14_22 
REMARK   12  A    between atoms: C14_22  and  C15_23 
REMARK   13  A    between atoms: C14_22  and  C16_25 
REMARK       I    between atoms: C15_23  and  N6_40 
REMARK   14  A    between atoms: C16_25  and  C17_26 
REMARK   15  A    between atoms: C17_26  and  C18_27 
REMARK   16  A    between atoms: C17_26  and  C19_28 
REMARK   17  A    between atoms: C20_29  and  C21_30 
REMARK   18  A    between atoms: C20_29  and  C24_33 
REMARK   19  A    between atoms: C20_29  and  N6_40 
REMARK   20  A    between atoms: C21_30  and  C22_31 
REMARK   21  A    between atoms: C22_31  and  C23_32 
REMARK   22  A    between atoms: C23_32  and  O8_43 
REMARK   23  A    between atoms: C24_33  and  C25_34 
REMARK   24  A    between atoms: C28_38  and  O6_39 
REMARK   25  A    between atoms: C29_42  and  O8_43 
REMARK   26  A    between atoms: C29_42  and  C35_49 
ROOT
ATOM      1  C14 non d ame      -7.730   9.810  65.584  0.00  0.00     0.089 C 
ATOM      2  H20 non d ame      -6.911   9.910  66.297  0.00  0.00     0.087 H 
ENDROOT
BRANCH   1   3
ATOM      3  N4  non d ame      -8.160   8.420  65.602  0.00  0.00    -0.346 N 
ATOM      4  C10 non d ame      -7.192   7.328  65.982  0.00  0.00     0.241 C 
ATOM      5  O4  non d ame      -6.071   7.592  66.266  0.00  0.00    -0.271 OA
ATOM      6  H19 non d ame      -9.118   8.216  65.355  0.00  0.00     0.163 HD
BRANCH   4   7
ATOM      7  C9  non d ame      -7.656   5.895  66.001  0.00  0.00     0.092 C 
ATOM      8  H11 non d ame      -6.788   5.237  65.989  0.00  0.00     0.088 H 
BRANCH   7   9
ATOM      9  N3  non d ame      -8.381   5.632  67.248  0.00  0.00    -0.346 N 
ATOM     10  C7  non d ame      -7.713   4.976  68.345  0.00  0.00     0.240 C 
ATOM     11  O3  non d ame      -6.593   4.652  68.241  0.00  0.00    -0.271 OA
ATOM     12  H10 non d ame      -9.348   5.905  67.352  0.00  0.00     0.163 HD
BRANCH  10  13
ATOM     13  C6  non d ame      -8.490   4.697  69.669  0.00  0.00     0.086 C 
ATOM     14  H6  non d ame      -7.841   4.683  70.544  0.00  0.00     0.086 H 
BRANCH  13  15
ATOM     15  N2  non d ame      -9.455   5.763  69.883  0.00  0.00    -0.343 N 
ATOM     16  C5  non d ame      -9.468   6.478  71.161  0.00  0.00     0.273 C 
ATOM     17  O2  non d ame      -8.701   6.186  72.011  0.00  0.00    -0.266 OA
ATOM     18  H5  non d ame     -10.109   6.004  69.152  0.00  0.00     0.163 HD
BRANCH  16  19
ATOM     19  C4  non d ame     -10.481   7.608  71.401  0.00  0.00     0.154 A 
ATOM     20  C1  non d ame     -11.831   7.477  71.858  0.00  0.00    -0.017 A 
ATOM     21  C2  non d ame     -12.327   8.798  71.911  0.00  0.00     0.077 A 
ATOM     22  H1  non d ame     -12.368   6.563  72.113  0.00  0.00     0.091 H 
ATOM     23  O1  non d ame     -11.367   9.588  71.528  0.00  0.00    -0.218 OA
ATOM     24  N1  non d ame     -10.280   8.917  71.224  0.00  0.00    -0.123 NA
BRANCH  21  25
ATOM     25  C3  non d ame     -13.727   9.219  72.339  0.00  0.00    -0.029 C 
ATOM     26  H2  non d ame     -14.098   9.989  71.662  0.00  0.00     0.036 H 
ATOM     27  H3  non d ame     -14.392   8.356  72.306  0.00  0.00     0.036 H 
ATOM     28  H4  non d ame     -13.694   9.614  73.355  0.00  0.00     0.036 H 
ENDBRANCH  21  25
ENDBRANCH  16  19
ENDBRANCH  13  15
BRANCH  13  29
ATOM     29  C8  non d ame      -9.200   3.371  69.568  0.00  0.00    -0.049 C 
ATOM     30  H7  non d ame      -9.198   2.882  70.542  0.00  0.00     0.030 H 
ATOM     31  H8  non d ame     -10.228   3.532  69.244  0.00  0.00     0.030 H 
ATOM     32  H9  non d ame      -8.686   2.738  68.844  0.00  0.00     0.030 H 
ENDBRANCH  13  29
ENDBRANCH  10  13
ENDBRANCH   7   9
BRANCH   7  33
ATOM     33  C11 non d ame      -8.602   5.640  64.791  0.00  0.00    -0.033 C 
ATOM     34  H12 non d ame      -9.223   6.527  64.667  0.00  0.00     0.042 H 
BRANCH  33  35
ATOM     35  C12 non d ame      -7.795   5.443  63.470  0.00  0.00    -0.071 C 
ATOM     36  H13 non d ame      -6.796   5.074  63.706  0.00  0.00     0.028 H 
ATOM     37  H14 non d ame      -8.308   4.721  62.835  0.00  0.00     0.028 H 
ATOM     38  H15 non d ame      -7.716   6.396  62.948  0.00  0.00     0.028 H 
ENDBRANCH  33  35
BRANCH  33  39
ATOM     39  C13 non d ame      -9.545   4.424  65.065  0.00  0.00    -0.071 C 
ATOM     40  H16 non d ame      -8.945   3.537  65.266  0.00  0.00     0.028 H 
ATOM     41  H17 non d ame     -10.175   4.641  65.928  0.00  0.00     0.028 H 
ATOM     42  H18 non d ame     -10.173   4.249  64.192  0.00  0.00     0.028 H 
ENDBRANCH  33  39
ENDBRANCH   7  33
ENDBRANCH   4   7
ENDBRANCH   1   3
BRANCH   1  43
ATOM     43  C15 non d ame      -8.944  10.709  65.954  0.00  0.00     0.240 C 
ATOM     44  O5  non d ame      -9.980  10.210  66.254  0.00  0.00    -0.271 OA
ATOM     45  N6  non d ame      -8.813  12.194  65.943  0.00  0.00    -0.355 N 
ATOM     46  H46 non d ame      -7.937  12.630  65.694  0.00  0.00     0.162 HD
BRANCH  45  47
ATOM     47  C20 non d ame      -9.976  13.035  66.298  0.00  0.00     0.013 C 
ATOM     48  H30 non d ame     -10.876  12.527  65.952  0.00  0.00     0.072 H 
BRANCH  47  49
ATOM     49  C21 non d ame      -9.847  14.380  65.618  0.00  0.00    -0.038 C 
ATOM     50  H31 non d ame      -9.385  14.178  64.652  0.00  0.00     0.036 H 
ATOM     51  H32 non d ame     -10.839  14.829  65.665  0.00  0.00     0.036 H 
BRANCH  49  52
ATOM     52  C22 non d ame      -8.896  15.340  66.365  0.00  0.00     0.018 C 
ATOM     53  H33 non d ame      -8.829  14.957  67.383  0.00  0.00     0.048 H 
ATOM     54  H34 non d ame      -8.000  15.407  65.747  0.00  0.00     0.048 H 
BRANCH  52  55
ATOM     55  C23 non d ame      -9.441  16.790  66.488  0.00  0.00     0.259 C 
ATOM     56  O7  non d ame     -10.493  16.998  66.999  0.00  0.00    -0.265 OA
BRANCH  55  57
ATOM     57  O8  non d ame      -8.672  17.869  65.970  0.00  0.00    -0.317 OA
BRANCH  57  58
ATOM     58  C29 non d ame      -9.054  19.152  66.476  0.00  0.00     0.052 C 
ATOM     59  H47 non d ame      -9.155  19.796  65.603  0.00  0.00     0.082 H 
ATOM     60  H48 non d ame      -9.912  18.970  67.122  0.00  0.00     0.082 H 
BRANCH  58  61
ATOM     61  C35 non d ame      -7.888  19.688  67.349  0.00  0.00    -0.034 A 
ATOM     62  C30 non d ame      -6.994  20.616  66.824  0.00  0.00    -0.075 A 
ATOM     63  C31 non d ame      -5.947  21.098  67.607  0.00  0.00    -0.082 A 
ATOM     64  H49 non d ame      -7.115  20.966  65.798  0.00  0.00     0.084 H 
ATOM     65  C32 non d ame      -5.793  20.647  68.921  0.00  0.00    -0.083 A 
ATOM     66  H50 non d ame      -5.250  21.827  67.194  0.00  0.00     0.083 H 
ATOM     67  C33 non d ame      -6.685  19.718  69.440  0.00  0.00    -0.082 A 
ATOM     68  H51 non d ame      -4.978  21.019  69.541  0.00  0.00     0.083 H 
ATOM     69  C34 non d ame      -7.735  19.235  68.661  0.00  0.00    -0.075 A 
ATOM     70  H52 non d ame      -6.561  19.366  70.464  0.00  0.00     0.083 H 
ATOM     71  H53 non d ame      -8.432  18.507  69.076  0.00  0.00     0.084 H 
ENDBRANCH  58  61
ENDBRANCH  57  58
ENDBRANCH  55  57
ENDBRANCH  52  55
ENDBRANCH  49  52
ENDBRANCH  47  49
BRANCH  47  72
ATOM     72  C24 non d ame     -10.028  13.232  67.812  0.00  0.00    -0.039 C 
ATOM     73  H35 non d ame      -9.413  12.434  68.229  0.00  0.00     0.036 H 
ATOM     74  H36 non d ame      -9.754  14.274  67.978  0.00  0.00     0.036 H 
BRANCH  72  75
ATOM     75  C25 non d ame     -11.511  13.036  68.385  0.00  0.00    -0.001 C 
ATOM     76  C26 non d ame     -11.951  14.356  69.262  0.00  0.00    -0.035 C 
ATOM     77  C27 non d ame     -12.404  13.945  70.470  0.00  0.00     0.085 C 
ATOM     78  H38 non d ame     -11.073  14.951  69.508  0.00  0.00     0.036 H 
ATOM     79  H39 non d ame     -12.823  14.830  68.811  0.00  0.00     0.036 H 
ATOM     80  N5  non d ame     -12.008  12.496  70.622  0.00  0.00    -0.049 N 
ATOM     81  H40 non d ame     -11.860  14.541  71.204  0.00  0.00     0.075 H 
ATOM     82  H41 non d ame     -13.490  14.012  70.412  0.00  0.00     0.075 H 
ATOM     83  C28 non d ame     -11.583  11.996  69.147  0.00  0.00     0.193 C 
ATOM     84  H42 non d ame     -11.190  12.484  71.214  0.00  0.00     0.280 HD
ATOM     85  H43 non d ame     -12.842  11.999  70.902  0.00  0.00     0.280 HD
ATOM     86  H44 non d ame     -12.255  11.368  68.560  0.00  0.00     0.129 H 
ATOM     87  H37 non d ame     -12.207  12.694  67.619  0.00  0.00     0.046 H 
BRANCH  83  88
ATOM     88  O6  non d ame     -10.347  11.283  69.205  0.00  0.00    -0.369 OA
ATOM     89  H45 non d ame      -9.899  11.486  70.030  0.00  0.00     0.212 HD
ENDBRANCH  83  88
ENDBRANCH  72  75
ENDBRANCH  47  72
ENDBRANCH  45  47
ENDBRANCH   1  43
BRANCH   1  90
ATOM     90  C16 non d ame      -7.242  10.160  64.187  0.00  0.00    -0.035 C 
ATOM     91  H21 non d ame      -7.099  11.240  64.193  0.00  0.00     0.037 H 
ATOM     92  H22 non d ame      -6.394   9.499  64.004  0.00  0.00     0.037 H 
BRANCH  90  93
ATOM     93  C17 non d ame      -8.286   9.859  63.065  0.00  0.00    -0.059 C 
ATOM     94  H23 non d ame      -9.167   9.428  63.540  0.00  0.00     0.038 H 
BRANCH  93  95
ATOM     95  C18 non d ame      -8.735  11.155  62.315  0.00  0.00    -0.073 C 
ATOM     96  H24 non d ame      -9.791  11.078  62.059  0.00  0.00     0.028 H 
ATOM     97  H25 non d ame      -8.579  12.020  62.960  0.00  0.00     0.028 H 
ATOM     98  H26 non d ame      -8.146  11.269  61.405  0.00  0.00     0.028 H 
ENDBRANCH  93  95
BRANCH  93  99
ATOM     99  C19 non d ame      -7.745   8.820  62.079  0.00  0.00    -0.073 C 
ATOM    100  H27 non d ame      -7.337   9.326  61.204  0.00  0.00     0.028 H 
ATOM    101  H28 non d ame      -6.960   8.237  62.561  0.00  0.00     0.028 H 
ATOM    102  H29 non d ame      -8.553   8.156  61.772  0.00  0.00     0.028 H 
ENDBRANCH  93  99
ENDBRANCH  90  93
ENDBRANCH   1  90
TORSDOF 26
ENDMDL
MODEL 8
REMARK VINA RESULT:      -6.2      3.373      8.270
REMARK  26 active torsions:
REMARK  status: ('A' for Active; 'I' for Inactive)
REMARK    1  A    between atoms: C2_2  and  C3_3 
REMARK    2  A    between atoms: C4_6  and  C5_7 
REMARK       I    between atoms: C5_7  and  N2_9 
REMARK    3  A    between atoms: N2_9  and  C6_10 
REMARK    4  A    between atoms: C6_10  and  C7_11 
REMARK    5  A    between atoms: C6_10  and  C8_13 
REMARK       I    between atoms: C7_11  and  N3_14 
REMARK    6  A    between atoms: N3_14  and  C9_15 
REMARK    7  A    between atoms: C9_15  and  C10_16 
REMARK    8  A    between atoms: C9_15  and  C11_18 
REMARK       I    between atoms: C10_16  and  N4_21 
REMARK    9  A    between atoms: C11_18  and  C12_19 
REMARK   10  A    between atoms: C11_18  and  C13_20 
REMARK   11  A    between atoms: N4_21  and  C14_22 
REMARK   12  A    between atoms: C14_22  and  C15_23 
REMARK   13  A    between atoms: C14_22  and  C16_25 
REMARK       I    between atoms: C15_23  and  N6_40 
REMARK   14  A    between atoms: C16_25  and  C17_26 
REMARK   15  A    between atoms: C17_26  and  C18_27 
REMARK   16  A    between atoms: C17_26  and  C19_28 
REMARK   17  A    between atoms: C20_29  and  C21_30 
REMARK   18  A    between atoms: C20_29  and  C24_33 
REMARK   19  A    between atoms: C20_29  and  N6_40 
REMARK   20  A    between atoms: C21_30  and  C22_31 
REMARK   21  A    between atoms: C22_31  and  C23_32 
REMARK   22  A    between atoms: C23_32  and  O8_43 
REMARK   23  A    between atoms: C24_33  and  C25_34 
REMARK   24  A    between atoms: C28_38  and  O6_39 
REMARK   25  A    between atoms: C29_42  and  O8_43 
REMARK   26  A    between atoms: C29_42  and  C35_49 
ROOT
ATOM      1  C14 non d ame      -7.201  10.112  66.027  0.00  0.00     0.089 C 
ATOM      2  H20 non d ame      -7.381   9.391  65.229  0.00  0.00     0.087 H 
ENDROOT
BRANCH   1   3
ATOM      3  N4  non d ame      -8.273  11.095  65.980  0.00  0.00    -0.346 N 
ATOM      4  C10 non d ame      -9.701  10.655  65.774  0.00  0.00     0.241 C 
ATOM      5  O4  non d ame      -9.962   9.504  65.646  0.00  0.00    -0.271 OA
ATOM      6  H19 non d ame      -8.030  12.069  66.089  0.00  0.00     0.163 HD
BRANCH   4   7
ATOM      7  C9  non d ame     -10.799  11.685  65.734  0.00  0.00     0.092 C 
ATOM      8  H11 non d ame     -11.760  11.190  65.873  0.00  0.00     0.088 H 
BRANCH   7   9
ATOM      9  N3  non d ame     -10.630  12.624  66.847  0.00  0.00    -0.346 N 
ATOM     10  C7  non d ame     -11.414  12.467  68.047  0.00  0.00     0.240 C 
ATOM     11  O3  non d ame     -12.187  11.592  68.134  0.00  0.00    -0.271 OA
ATOM     12  H10 non d ame      -9.968  13.385  66.786  0.00  0.00     0.163 HD
BRANCH  10  13
ATOM     13  C6  non d ame     -11.232  13.472  69.227  0.00  0.00     0.086 C 
ATOM     14  H6  non d ame     -10.261  13.379  69.714  0.00  0.00     0.086 H 
BRANCH  13  15
ATOM     15  N2  non d ame     -11.309  14.827  68.708  0.00  0.00    -0.343 N 
ATOM     16  C5  non d ame     -10.166  15.729  68.874  0.00  0.00     0.273 C 
ATOM     17  O2  non d ame      -9.192  15.355  69.428  0.00  0.00    -0.266 OA
ATOM     18  H5  non d ame     -12.147  15.140  68.239  0.00  0.00     0.163 HD
BRANCH  16  19
ATOM     19  C4  non d ame     -10.233  17.164  68.329  0.00  0.00     0.154 A 
ATOM     20  C1  non d ame     -10.356  17.565  66.960  0.00  0.00    -0.017 A 
ATOM     21  C2  non d ame     -10.373  18.977  66.995  0.00  0.00     0.077 A 
ATOM     22  H1  non d ame     -10.422  16.929  66.078  0.00  0.00     0.091 H 
ATOM     23  O1  non d ame     -10.274  19.335  68.242  0.00  0.00    -0.218 OA
ATOM     24  N1  non d ame     -10.190  18.295  69.039  0.00  0.00    -0.123 NA
BRANCH  21  25
ATOM     25  C3  non d ame     -10.489  19.907  65.795  0.00  0.00    -0.029 C 
ATOM     26  H2  non d ame     -10.685  20.923  66.139  0.00  0.00     0.036 H 
ATOM     27  H3  non d ame      -9.557  19.888  65.230  0.00  0.00     0.036 H 
ATOM     28  H4  non d ame     -11.308  19.576  65.156  0.00  0.00     0.036 H 
ENDBRANCH  21  25
ENDBRANCH  16  19
ENDBRANCH  13  15
BRANCH  13  29
ATOM     29  C8  non d ame     -12.314  13.249  70.252  0.00  0.00    -0.049 C 
ATOM     30  H7  non d ame     -13.066  14.033  70.164  0.00  0.00     0.030 H 
ATOM     31  H8  non d ame     -12.780  12.278  70.084  0.00  0.00     0.030 H 
ATOM     32  H9  non d ame     -11.879  13.275  71.251  0.00  0.00     0.030 H 
ENDBRANCH  13  29
ENDBRANCH  10  13
ENDBRANCH   7   9
BRANCH   7  33
ATOM     33  C11 non d ame     -10.731  12.463  64.387  0.00  0.00    -0.033 C 
ATOM     34  H12 non d ame      -9.739  12.911  64.317  0.00  0.00     0.042 H 
BRANCH  33  35
ATOM     35  C12 non d ame     -10.900  11.504  63.168  0.00  0.00    -0.071 C 
ATOM     36  H13 non d ame      -9.926  11.313  62.717  0.00  0.00     0.028 H 
ATOM     37  H14 non d ame     -11.336  10.563  63.503  0.00  0.00     0.028 H 
ATOM     38  H15 non d ame     -11.557  11.967  62.431  0.00  0.00     0.028 H 
ENDBRANCH  33  35
BRANCH  33  39
ATOM     39  C13 non d ame     -11.785  13.615  64.353  0.00  0.00    -0.071 C 
ATOM     40  H16 non d ame     -12.788  13.191  64.389  0.00  0.00     0.028 H 
ATOM     41  H17 non d ame     -11.637  14.270  65.213  0.00  0.00     0.028 H 
ATOM     42  H18 non d ame     -11.665  14.190  63.435  0.00  0.00     0.028 H 
ENDBRANCH  33  39
ENDBRANCH   7  33
ENDBRANCH   4   7
ENDBRANCH   1   3
BRANCH   1  43
ATOM     43  C15 non d ame      -7.201   9.445  67.433  0.00  0.00     0.240 C 
ATOM     44  O5  non d ame      -6.642   9.973  68.338  0.00  0.00    -0.271 OA
ATOM     45  N6  non d ame      -7.908   8.151  67.652  0.00  0.00    -0.355 N 
ATOM     46  H46 non d ame      -8.391   7.695  66.892  0.00  0.00     0.162 HD
BRANCH  45  47
ATOM     47  C20 non d ame      -7.901   7.530  68.994  0.00  0.00     0.013 C 
ATOM     48  H30 non d ame      -7.324   8.174  69.658  0.00  0.00     0.072 H 
BRANCH  47  49
ATOM     49  C21 non d ame      -7.255   6.165  68.910  0.00  0.00    -0.038 C 
ATOM     50  H31 non d ame      -6.734   6.144  67.953  0.00  0.00     0.036 H 
ATOM     51  H32 non d ame      -6.697   6.046  69.839  0.00  0.00     0.036 H 
BRANCH  49  52
ATOM     52  C22 non d ame      -8.286   5.016  68.871  0.00  0.00     0.018 C 
ATOM     53  H33 non d ame      -8.106   4.426  69.770  0.00  0.00     0.048 H 
ATOM     54  H34 non d ame      -9.255   5.494  68.718  0.00  0.00     0.048 H 
BRANCH  52  55
ATOM     55  C23 non d ame      -8.095   4.043  67.674  0.00  0.00     0.259 C 
ATOM     56  O7  non d ame      -8.540   2.942  67.715  0.00  0.00    -0.265 OA
BRANCH  55  57
ATOM     57  O8  non d ame      -7.368   4.479  66.532  0.00  0.00    -0.317 OA
BRANCH  57  58
ATOM     58  C29 non d ame      -8.177   5.103  65.530  0.00  0.00     0.052 C 
ATOM     59  H47 non d ame      -8.616   4.287  64.956  0.00  0.00     0.082 H 
ATOM     60  H48 non d ame      -8.821   5.801  66.064  0.00  0.00     0.082 H 
BRANCH  58  61
ATOM     61  C35 non d ame      -7.241   5.915  64.596  0.00  0.00    -0.034 A 
ATOM     62  C30 non d ame      -7.753   6.961  63.836  0.00  0.00    -0.075 A 
ATOM     63  C31 non d ame      -6.912   7.691  62.996  0.00  0.00    -0.082 A 
ATOM     64  H49 non d ame      -8.812   7.211  63.898  0.00  0.00     0.084 H 
ATOM     65  C32 non d ame      -5.555   7.368  62.916  0.00  0.00    -0.083 A 
ATOM     66  H50 non d ame      -7.316   8.512  62.404  0.00  0.00     0.083 H 
ATOM     67  C33 non d ame      -5.049   6.320  63.674  0.00  0.00    -0.082 A 
ATOM     68  H51 non d ame      -4.890   7.933  62.263  0.00  0.00     0.083 H 
ATOM     69  C34 non d ame      -5.885   5.590  64.516  0.00  0.00    -0.075 A 
ATOM     70  H52 non d ame      -3.990   6.069  63.607  0.00  0.00     0.083 H 
ATOM     71  H53 non d ame      -5.481   4.769  65.109  0.00  0.00     0.084 H 
ENDBRANCH  58  61
ENDBRANCH  57  58
ENDBRANCH  55  57
ENDBRANCH  52  55
ENDBRANCH  49  52
ENDBRANCH  47  49
BRANCH  47  72
ATOM     72  C24 non d ame      -9.333   7.387  69.505  0.00  0.00    -0.039 C 
ATOM     73  H35 non d ame      -9.954   7.321  68.611  0.00  0.00     0.036 H 
ATOM     74  H36 non d ame      -9.307   6.558  70.212  0.00  0.00     0.036 H 
BRANCH  72  75
ATOM     75  C25 non d ame      -9.806   8.685  70.315  0.00  0.00    -0.001 C 
ATOM     76  C26 non d ame     -10.500   8.236  71.737  0.00  0.00    -0.035 C 
ATOM     77  C27 non d ame     -11.706   8.843  71.844  0.00  0.00     0.085 C 
ATOM     78  H38 non d ame     -10.749   7.176  71.712  0.00  0.00     0.036 H 
ATOM     79  H39 non d ame      -9.934   8.644  72.574  0.00  0.00     0.036 H 
ATOM     80  N5  non d ame     -12.041   9.403  70.483  0.00  0.00    -0.049 N 
ATOM     81  H40 non d ame     -12.412   8.047  72.084  0.00  0.00     0.075 H 
ATOM     82  H41 non d ame     -11.557   9.667  72.540  0.00  0.00     0.075 H 
ATOM     83  C28 non d ame     -10.666   9.371  69.638  0.00  0.00     0.193 C 
ATOM     84  H42 non d ame     -12.693   8.758  70.060  0.00  0.00     0.280 HD
ATOM     85  H43 non d ame     -12.307  10.367  70.627  0.00  0.00     0.280 HD
ATOM     86  H44 non d ame     -10.099  10.286  69.468  0.00  0.00     0.129 H 
ATOM     87  H37 non d ame      -9.029   9.449  70.362  0.00  0.00     0.046 H 
BRANCH  83  88
ATOM     88  O6  non d ame     -10.896   8.817  68.342  0.00  0.00    -0.369 OA
ATOM     89  H45 non d ame     -11.785   9.036  68.054  0.00  0.00     0.212 HD
ENDBRANCH  83  88
ENDBRANCH  72  75
ENDBRANCH  47  72
ENDBRANCH  45  47
ENDBRANCH   1  43
BRANCH   1  90
ATOM     90  C16 non d ame      -5.873  10.815  65.796  0.00  0.00    -0.035 C 
ATOM     91  H21 non d ame      -6.112  11.693  65.195  0.00  0.00     0.037 H 
ATOM     92  H22 non d ame      -5.434  10.936  66.786  0.00  0.00     0.037 H 
BRANCH  90  93
ATOM     93  C17 non d ame      -4.855   9.974  64.961  0.00  0.00    -0.059 C 
ATOM     94  H23 non d ame      -5.413   9.185  64.457  0.00  0.00     0.038 H 
BRANCH  93  95
ATOM     95  C18 non d ame      -4.143  10.829  63.865  0.00  0.00    -0.073 C 
ATOM     96  H24 non d ame      -4.789  10.912  62.992  0.00  0.00     0.028 H 
ATOM     97  H25 non d ame      -3.934  11.824  64.259  0.00  0.00     0.028 H 
ATOM     98  H26 non d ame      -3.207  10.348  63.581  0.00  0.00     0.028 H 
ENDBRANCH  93  95
BRANCH  93  99
ATOM     99  C19 non d ame      -3.831   9.294  65.873  0.00  0.00    -0.073 C 
ATOM    100  H27 non d ame      -3.946   8.212  65.806  0.00  0.00     0.028 H 
ATOM    101  H28 non d ame      -2.824   9.572  65.560  0.00  0.00     0.028 H 
ATOM    102  H29 non d ame      -3.992   9.614  66.903  0.00  0.00     0.028 H 
ENDBRANCH  93  99
ENDBRANCH  90  93
ENDBRANCH   1  90
TORSDOF 26
ENDMDL
MODEL 9
REMARK VINA RESULT:      -6.2      3.628      8.687
REMARK  26 active torsions:
REMARK  status: ('A' for Active; 'I' for Inactive)
REMARK    1  A    between atoms: C2_2  and  C3_3 
REMARK    2  A    between atoms: C4_6  and  C5_7 
REMARK       I    between atoms: C5_7  and  N2_9 
REMARK    3  A    between atoms: N2_9  and  C6_10 
REMARK    4  A    between atoms: C6_10  and  C7_11 
REMARK    5  A    between atoms: C6_10  and  C8_13 
REMARK       I    between atoms: C7_11  and  N3_14 
REMARK    6  A    between atoms: N3_14  and  C9_15 
REMARK    7  A    between atoms: C9_15  and  C10_16 
REMARK    8  A    between atoms: C9_15  and  C11_18 
REMARK       I    between atoms: C10_16  and  N4_21 
REMARK    9  A    between atoms: C11_18  and  C12_19 
REMARK   10  A    between atoms: C11_18  and  C13_20 
REMARK   11  A    between atoms: N4_21  and  C14_22 
REMARK   12  A    between atoms: C14_22  and  C15_23 
REMARK   13  A    between atoms: C14_22  and  C16_25 
REMARK       I    between atoms: C15_23  and  N6_40 
REMARK   14  A    between atoms: C16_25  and  C17_26 
REMARK   15  A    between atoms: C17_26  and  C18_27 
REMARK   16  A    between atoms: C17_26  and  C19_28 
REMARK   17  A    between atoms: C20_29  and  C21_30 
REMARK   18  A    between atoms: C20_29  and  C24_33 
REMARK   19  A    between atoms: C20_29  and  N6_40 
REMARK   20  A    between atoms: C21_30  and  C22_31 
REMARK   21  A    between atoms: C22_31  and  C23_32 
REMARK   22  A    between atoms: C23_32  and  O8_43 
REMARK   23  A    between atoms: C24_33  and  C25_34 
REMARK   24  A    between atoms: C28_38  and  O6_39 
REMARK   25  A    between atoms: C29_42  and  O8_43 
REMARK   26  A    between atoms: C29_42  and  C35_49 
ROOT
ATOM      1  C14 non d ame      -7.622   9.678  66.645  0.00  0.00     0.089 C 
ATOM      2  H20 non d ame      -7.715   9.076  65.741  0.00  0.00     0.087 H 
ENDROOT
BRANCH   1   3
ATOM      3  N4  non d ame      -8.593  10.758  66.554  0.00  0.00    -0.346 N 
ATOM      4  C10 non d ame      -9.947  10.515  65.937  0.00  0.00     0.241 C 
ATOM      5  O4  non d ame     -10.232   9.442  65.517  0.00  0.00    -0.271 OA
ATOM      6  H19 non d ame      -8.331  11.664  66.915  0.00  0.00     0.163 HD
BRANCH   4   7
ATOM      7  C9  non d ame     -10.942  11.643  65.856  0.00  0.00     0.092 C 
ATOM      8  H11 non d ame     -11.947  11.246  65.998  0.00  0.00     0.088 H 
BRANCH   7   9
ATOM      9  N3  non d ame     -10.694  12.593  66.944  0.00  0.00    -0.346 N 
ATOM     10  C7  non d ame     -11.501  12.547  68.139  0.00  0.00     0.240 C 
ATOM     11  O3  non d ame     -12.356  11.754  68.239  0.00  0.00    -0.271 OA
ATOM     12  H10 non d ame      -9.961  13.284  66.871  0.00  0.00     0.163 HD
BRANCH  10  13
ATOM     13  C6  non d ame     -11.234  13.563  69.293  0.00  0.00     0.086 C 
ATOM     14  H6  non d ame     -10.309  13.357  69.830  0.00  0.00     0.086 H 
BRANCH  13  15
ATOM     15  N2  non d ame     -11.098  14.895  68.726  0.00  0.00    -0.343 N 
ATOM     16  C5  non d ame      -9.829  15.611  68.866  0.00  0.00     0.273 C 
ATOM     17  O2  non d ame      -8.924  15.109  69.437  0.00  0.00    -0.266 OA
ATOM     18  H5  non d ame     -11.877  15.318  68.242  0.00  0.00     0.163 HD
BRANCH  16  19
ATOM     19  C4  non d ame      -9.670  17.019  68.271  0.00  0.00     0.154 A 
ATOM     20  C1  non d ame     -10.502  17.641  67.286  0.00  0.00    -0.017 A 
ATOM     21  C2  non d ame      -9.935  18.919  67.085  0.00  0.00     0.077 A 
ATOM     22  H1  non d ame     -11.382  17.228  66.793  0.00  0.00     0.091 H 
ATOM     23  O1  non d ame      -8.900  19.011  67.868  0.00  0.00    -0.218 OA
ATOM     24  N1  non d ame      -8.725  17.915  68.570  0.00  0.00    -0.123 NA
BRANCH  21  25
ATOM     25  C3  non d ame     -10.442  19.990  66.129  0.00  0.00    -0.029 C 
ATOM     26  H2  non d ame      -9.973  20.944  66.369  0.00  0.00     0.036 H 
ATOM     27  H3  non d ame     -10.194  19.711  65.105  0.00  0.00     0.036 H 
ATOM     28  H4  non d ame     -11.524  20.083  66.228  0.00  0.00     0.036 H 
ENDBRANCH  21  25
ENDBRANCH  16  19
ENDBRANCH  13  15
BRANCH  13  29
ATOM     29  C8  non d ame     -12.383  13.532  70.269  0.00  0.00    -0.049 C 
ATOM     30  H7  non d ame     -12.173  14.207  71.099  0.00  0.00     0.030 H 
ATOM     31  H8  non d ame     -13.296  13.848  69.765  0.00  0.00     0.030 H 
ATOM     32  H9  non d ame     -12.509  12.518  70.649  0.00  0.00     0.030 H 
ENDBRANCH  13  29
ENDBRANCH  10  13
ENDBRANCH   7   9
BRANCH   7  33
ATOM     33  C11 non d ame     -10.788  12.373  64.489  0.00  0.00    -0.033 C 
ATOM     34  H12 non d ame      -9.935  11.931  63.975  0.00  0.00     0.042 H 
BRANCH  33  35
ATOM     35  C12 non d ame     -12.043  12.158  63.586  0.00  0.00    -0.071 C 
ATOM     36  H13 non d ame     -12.613  13.086  63.530  0.00  0.00     0.028 H 
ATOM     37  H14 non d ame     -11.724  11.867  62.585  0.00  0.00     0.028 H 
ATOM     38  H15 non d ame     -12.666  11.373  64.012  0.00  0.00     0.028 H 
ENDBRANCH  33  35
BRANCH  33  39
ATOM     39  C13 non d ame     -10.493  13.893  64.697  0.00  0.00    -0.071 C 
ATOM     40  H16 non d ame     -11.421  14.458  64.611  0.00  0.00     0.028 H 
ATOM     41  H17 non d ame     -10.064  14.048  65.687  0.00  0.00     0.028 H 
ATOM     42  H18 non d ame      -9.789  14.233  63.938  0.00  0.00     0.028 H 
ENDBRANCH  33  39
ENDBRANCH   7  33
ENDBRANCH   4   7
ENDBRANCH   1   3
BRANCH   1  43
ATOM     43  C15 non d ame      -7.917   8.854  67.932  0.00  0.00     0.240 C 
ATOM     44  O5  non d ame      -7.488   9.220  68.979  0.00  0.00    -0.271 OA
ATOM     45  N6  non d ame      -8.741   7.614  67.861  0.00  0.00    -0.355 N 
ATOM     46  H46 non d ame      -9.114   7.296  66.978  0.00  0.00     0.162 HD
BRANCH  45  47
ATOM     47  C20 non d ame      -9.013   6.843  69.093  0.00  0.00     0.013 C 
ATOM     48  H30 non d ame      -8.327   7.191  69.865  0.00  0.00     0.072 H 
BRANCH  47  49
ATOM     49  C21 non d ame      -8.784   5.373  68.823  0.00  0.00    -0.038 C 
ATOM     50  H31 non d ame      -8.758   4.895  69.803  0.00  0.00     0.036 H 
ATOM     51  H32 non d ame      -9.544   5.086  68.096  0.00  0.00     0.036 H 
BRANCH  49  52
ATOM     52  C22 non d ame      -7.418   5.090  68.163  0.00  0.00     0.018 C 
ATOM     53  H33 non d ame      -6.921   6.058  68.084  0.00  0.00     0.048 H 
ATOM     54  H34 non d ame      -6.965   4.292  68.751  0.00  0.00     0.048 H 
BRANCH  52  55
ATOM     55  C23 non d ame      -7.524   4.545  66.711  0.00  0.00     0.259 C 
ATOM     56  O7  non d ame      -6.564   4.124  66.153  0.00  0.00    -0.265 OA
BRANCH  55  57
ATOM     57  O8  non d ame      -8.784   4.567  66.050  0.00  0.00    -0.317 OA
BRANCH  57  58
ATOM     58  C29 non d ame      -8.820   5.410  64.895  0.00  0.00     0.052 C 
ATOM     59  H47 non d ame      -9.519   6.211  65.137  0.00  0.00     0.082 H 
ATOM     60  H48 non d ame      -7.781   5.644  64.667  0.00  0.00     0.082 H 
BRANCH  58  61
ATOM     61  C35 non d ame      -9.407   4.585  63.719  0.00  0.00    -0.034 A 
ATOM     62  C30 non d ame     -10.527   3.785  63.919  0.00  0.00    -0.075 A 
ATOM     63  C31 non d ame     -11.054   3.044  62.863  0.00  0.00    -0.082 A 
ATOM     64  H49 non d ame     -10.992   3.739  64.904  0.00  0.00     0.084 H 
ATOM     65  C32 non d ame     -10.455   3.103  61.602  0.00  0.00    -0.083 A 
ATOM     66  H50 non d ame     -11.934   2.419  63.023  0.00  0.00     0.083 H 
ATOM     67  C33 non d ame      -9.335   3.900  61.407  0.00  0.00    -0.082 A 
ATOM     68  H51 non d ame     -10.861   2.527  60.770  0.00  0.00     0.083 H 
ATOM     69  C34 non d ame      -8.807   4.644  62.459  0.00  0.00    -0.075 A 
ATOM     70  H52 non d ame      -8.869   3.942  60.422  0.00  0.00     0.083 H 
ATOM     71  H53 non d ame      -7.928   5.269  62.298  0.00  0.00     0.084 H 
ENDBRANCH  58  61
ENDBRANCH  57  58
ENDBRANCH  55  57
ENDBRANCH  52  55
ENDBRANCH  49  52
ENDBRANCH  47  49
BRANCH  47  72
ATOM     72  C24 non d ame     -10.460   7.063  69.531  0.00  0.00    -0.039 C 
ATOM     73  H35 non d ame     -10.993   7.363  68.628  0.00  0.00     0.036 H 
ATOM     74  H36 non d ame     -10.746   6.150  70.054  0.00  0.00     0.036 H 
BRANCH  72  75
ATOM     75  C25 non d ame     -10.586   8.268  70.578  0.00  0.00    -0.001 C 
ATOM     76  C26 non d ame     -11.622   7.855  71.786  0.00  0.00    -0.035 C 
ATOM     77  C27 non d ame     -12.545   8.836  71.925  0.00  0.00     0.085 C 
ATOM     78  H38 non d ame     -12.213   6.989  71.491  0.00  0.00     0.036 H 
ATOM     79  H39 non d ame     -11.100   7.858  72.743  0.00  0.00     0.036 H 
ATOM     80  N5  non d ame     -12.430   9.724  70.709  0.00  0.00    -0.049 N 
ATOM     81  H40 non d ame     -13.512   8.332  71.907  0.00  0.00     0.075 H 
ATOM     82  H41 non d ame     -12.240   9.400  72.806  0.00  0.00     0.075 H 
ATOM     83  C28 non d ame     -11.029   9.339  70.007  0.00  0.00     0.193 C 
ATOM     84  H42 non d ame     -13.184   9.460  70.090  0.00  0.00     0.280 HD
ATOM     85  H43 non d ame     -12.368  10.672  71.052  0.00  0.00     0.280 HD
ATOM     86  H44 non d ame     -10.161   9.991  70.108  0.00  0.00     0.129 H 
ATOM     87  H37 non d ame      -9.613   8.663  70.872  0.00  0.00     0.046 H 
BRANCH  83  88
ATOM     88  O6  non d ame     -11.213   9.163  68.601  0.00  0.00    -0.369 OA
ATOM     89  H45 non d ame     -11.402   8.241  68.416  0.00  0.00     0.212 HD
ENDBRANCH  83  88
ENDBRANCH  72  75
ENDBRANCH  47  72
ENDBRANCH  45  47
ENDBRANCH   1  43
BRANCH   1  90
ATOM     90  C16 non d ame      -6.225  10.272  66.727  0.00  0.00    -0.035 C 
ATOM     91  H21 non d ame      -6.374  11.349  66.808  0.00  0.00     0.037 H 
ATOM     92  H22 non d ame      -5.727   9.729  67.531  0.00  0.00     0.037 H 
BRANCH  90  93
ATOM     93  C17 non d ame      -5.369  10.040  65.442  0.00  0.00    -0.059 C 
ATOM     94  H23 non d ame      -5.149  11.016  65.010  0.00  0.00     0.038 H 
BRANCH  93  95
ATOM     95  C18 non d ame      -4.008   9.341  65.758  0.00  0.00    -0.073 C 
ATOM     96  H24 non d ame      -3.385  10.011  66.349  0.00  0.00     0.028 H 
ATOM     97  H25 non d ame      -4.192   8.425  66.320  0.00  0.00     0.028 H 
ATOM     98  H26 non d ame      -3.499   9.098  64.825  0.00  0.00     0.028 H 
ENDBRANCH  93  95
BRANCH  93  99
ATOM     99  C19 non d ame      -6.158   9.247  64.396  0.00  0.00    -0.073 C 
ATOM    100  H27 non d ame      -6.704   9.938  63.752  0.00  0.00     0.028 H 
ATOM    101  H28 non d ame      -5.468   8.657  63.792  0.00  0.00     0.028 H 
ATOM    102  H29 non d ame      -6.861   8.583  64.897  0.00  0.00     0.028 H 
ENDBRANCH  93  99
ENDBRANCH  90  93
ENDBRANCH   1  90
TORSDOF 26
ENDMDL
MODEL 10
REMARK VINA RESULT:      -6.2      2.062      2.868
REMARK  26 active torsions:
REMARK  status: ('A' for Active; 'I' for Inactive)
REMARK    1  A    between atoms: C2_2  and  C3_3 
REMARK    2  A    between atoms: C4_6  and  C5_7 
REMARK       I    between atoms: C5_7  and  N2_9 
REMARK    3  A    between atoms: N2_9  and  C6_10 
REMARK    4  A    between atoms: C6_10  and  C7_11 
REMARK    5  A    between atoms: C6_10  and  C8_13 
REMARK       I    between atoms: C7_11  and  N3_14 
REMARK    6  A    between atoms: N3_14  and  C9_15 
REMARK    7  A    between atoms: C9_15  and  C10_16 
REMARK    8  A    between atoms: C9_15  and  C11_18 
REMARK       I    between atoms: C10_16  and  N4_21 
REMARK    9  A    between atoms: C11_18  and  C12_19 
REMARK   10  A    between atoms: C11_18  and  C13_20 
REMARK   11  A    between atoms: N4_21  and  C14_22 
REMARK   12  A    between atoms: C14_22  and  C15_23 
REMARK   13  A    between atoms: C14_22  and  C16_25 
REMARK       I    between atoms: C15_23  and  N6_40 
REMARK   14  A    between atoms: C16_25  and  C17_26 
REMARK   15  A    between atoms: C17_26  and  C18_27 
REMARK   16  A    between atoms: C17_26  and  C19_28 
REMARK   17  A    between atoms: C20_29  and  C21_30 
REMARK   18  A    between atoms: C20_29  and  C24_33 
REMARK   19  A    between atoms: C20_29  and  N6_40 
REMARK   20  A    between atoms: C21_30  and  C22_31 
REMARK   21  A    between atoms: C22_31  and  C23_32 
REMARK   22  A    between atoms: C23_32  and  O8_43 
REMARK   23  A    between atoms: C24_33  and  C25_34 
REMARK   24  A    between atoms: C28_38  and  O6_39 
REMARK   25  A    between atoms: C29_42  and  O8_43 
REMARK   26  A    between atoms: C29_42  and  C35_49 
ROOT
ATOM      1  C14 non d ame      -6.431  16.700  67.806  0.00  0.00     0.089 C 
ATOM      2  H20 non d ame      -5.898  17.334  67.097  0.00  0.00     0.087 H 
ENDROOT
BRANCH   1   3
ATOM      3  N4  non d ame      -7.848  16.775  67.482  0.00  0.00    -0.346 N 
ATOM      4  C10 non d ame      -8.306  17.463  66.221  0.00  0.00     0.241 C 
ATOM      5  O4  non d ame      -7.515  17.953  65.484  0.00  0.00    -0.271 OA
ATOM      6  H19 non d ame      -8.505  16.354  68.124  0.00  0.00     0.163 HD
BRANCH   4   7
ATOM      7  C9  non d ame      -9.776  17.526  65.899  0.00  0.00     0.092 C 
ATOM      8  H11 non d ame      -9.909  18.000  64.926  0.00  0.00     0.088 H 
BRANCH   7   9
ATOM      9  N3  non d ame     -10.312  16.166  65.795  0.00  0.00    -0.346 N 
ATOM     10  C7  non d ame     -11.239  15.836  64.740  0.00  0.00     0.240 C 
ATOM     11  O3  non d ame     -11.565  16.652  63.968  0.00  0.00    -0.271 OA
ATOM     12  H10 non d ame     -10.042  15.451  66.455  0.00  0.00     0.163 HD
BRANCH  10  13
ATOM     13  C6  non d ame     -11.809  14.387  64.636  0.00  0.00     0.086 C 
ATOM     14  H6  non d ame     -12.534  14.276  63.831  0.00  0.00     0.086 H 
BRANCH  13  15
ATOM     15  N2  non d ame     -10.719  13.471  64.344  0.00  0.00    -0.343 N 
ATOM     16  C5  non d ame     -10.990  12.243  63.593  0.00  0.00     0.273 C 
ATOM     17  O2  non d ame     -12.089  12.000  63.232  0.00  0.00    -0.266 OA
ATOM     18  H5  non d ame      -9.783  13.686  64.659  0.00  0.00     0.163 HD
BRANCH  16  19
ATOM     19  C4  non d ame      -9.847  11.267  63.275  0.00  0.00     0.154 A 
ATOM     20  C1  non d ame      -9.389  10.179  64.085  0.00  0.00    -0.017 A 
ATOM     21  C2  non d ame      -8.330   9.601  63.350  0.00  0.00     0.077 A 
ATOM     22  H1  non d ame      -9.767   9.858  65.055  0.00  0.00     0.091 H 
ATOM     23  O1  non d ame      -8.203  10.283  62.250  0.00  0.00    -0.218 OA
ATOM     24  N1  non d ame      -9.077  11.261  62.184  0.00  0.00    -0.123 NA
BRANCH  21  25
ATOM     25  C3  non d ame      -7.492   8.400  63.770  0.00  0.00    -0.029 C 
ATOM     26  H2  non d ame      -6.499   8.476  63.327  0.00  0.00     0.036 H 
ATOM     27  H3  non d ame      -7.405   8.380  64.856  0.00  0.00     0.036 H 
ATOM     28  H4  non d ame      -7.973   7.483  63.427  0.00  0.00     0.036 H 
ENDBRANCH  21  25
ENDBRANCH  16  19
ENDBRANCH  13  15
BRANCH  13  29
ATOM     29  C8  non d ame     -12.466  14.008  65.939  0.00  0.00    -0.049 C 
ATOM     30  H7  non d ame     -12.904  14.895  66.397  0.00  0.00     0.030 H 
ATOM     31  H8  non d ame     -13.249  13.273  65.751  0.00  0.00     0.030 H 
ATOM     32  H9  non d ame     -11.721  13.583  66.612  0.00  0.00     0.030 H 
ENDBRANCH  13  29
ENDBRANCH  10  13
ENDBRANCH   7   9
BRANCH   7  33
ATOM     33  C11 non d ame     -10.523  18.290  67.031  0.00  0.00    -0.033 C 
ATOM     34  H12 non d ame     -11.557  18.420  66.713  0.00  0.00     0.042 H 
BRANCH  33  35
ATOM     35  C12 non d ame     -10.540  17.467  68.357  0.00  0.00    -0.071 C 
ATOM     36  H13 non d ame     -11.554  17.122  68.557  0.00  0.00     0.028 H 
ATOM     37  H14 non d ame      -9.876  16.608  68.259  0.00  0.00     0.028 H 
ATOM     38  H15 non d ame     -10.201  18.097  69.179  0.00  0.00     0.028 H 
ENDBRANCH  33  35
BRANCH  33  39
ATOM     39  C13 non d ame      -9.903  19.708  67.252  0.00  0.00    -0.071 C 
ATOM     40  H16 non d ame      -9.555  19.796  68.281  0.00  0.00     0.028 H 
ATOM     41  H17 non d ame      -9.063  19.848  66.571  0.00  0.00     0.028 H 
ATOM     42  H18 non d ame     -10.659  20.468  67.057  0.00  0.00     0.028 H 
ENDBRANCH  33  39
ENDBRANCH   7  33
ENDBRANCH   4   7
ENDBRANCH   1   3
BRANCH   1  43
ATOM     43  C15 non d ame      -5.981  15.214  67.719  0.00  0.00     0.240 C 
ATOM     44  O5  non d ame      -4.836  14.953  67.536  0.00  0.00    -0.271 OA
ATOM     45  N6  non d ame      -6.976  14.115  67.873  0.00  0.00    -0.355 N 
ATOM     46  H46 non d ame      -7.951  14.324  68.034  0.00  0.00     0.162 HD
BRANCH  45  47
ATOM     47  C20 non d ame      -6.532  12.707  67.790  0.00  0.00     0.013 C 
ATOM     48  H30 non d ame      -5.550  12.692  67.317  0.00  0.00     0.072 H 
BRANCH  47  49
ATOM     49  C21 non d ame      -7.518  11.920  66.956  0.00  0.00    -0.038 C 
ATOM     50  H31 non d ame      -8.247  12.647  66.598  0.00  0.00     0.036 H 
ATOM     51  H32 non d ame      -6.916  11.356  66.243  0.00  0.00     0.036 H 
BRANCH  49  52
ATOM     52  C22 non d ame      -8.306  10.881  67.782  0.00  0.00     0.018 C 
ATOM     53  H33 non d ame      -8.382   9.996  67.148  0.00  0.00     0.048 H 
ATOM     54  H34 non d ame      -7.796  10.819  68.743  0.00  0.00     0.048 H 
BRANCH  52  55
ATOM     55  C23 non d ame      -9.766  11.308  68.098  0.00  0.00     0.259 C 
ATOM     56  O7  non d ame     -10.171  12.371  67.753  0.00  0.00    -0.265 OA
BRANCH  55  57
ATOM     57  O8  non d ame     -10.612  10.420  68.817  0.00  0.00    -0.317 OA
BRANCH  57  58
ATOM     58  C29 non d ame      -9.923   9.593  69.759  0.00  0.00     0.052 C 
ATOM     59  H47 non d ame      -9.302   8.923  69.164  0.00  0.00     0.082 H 
ATOM     60  H48 non d ame      -9.459  10.278  70.469  0.00  0.00     0.082 H 
BRANCH  58  61
ATOM     61  C35 non d ame     -10.979   8.743  70.514  0.00  0.00    -0.034 A 
ATOM     62  C30 non d ame     -11.081   7.378  70.267  0.00  0.00    -0.075 A 
ATOM     63  C31 non d ame     -12.030   6.615  70.945  0.00  0.00    -0.082 A 
ATOM     64  H49 non d ame     -10.417   6.906  69.543  0.00  0.00     0.084 H 
ATOM     65  C32 non d ame     -12.881   7.222  71.872  0.00  0.00    -0.083 A 
ATOM     66  H50 non d ame     -12.105   5.545  70.751  0.00  0.00     0.083 H 
ATOM     67  C33 non d ame     -12.778   8.586  72.113  0.00  0.00    -0.082 A 
ATOM     68  H51 non d ame     -13.625   6.633  72.407  0.00  0.00     0.083 H 
ATOM     69  C34 non d ame     -11.829   9.352  71.439  0.00  0.00    -0.075 A 
ATOM     70  H52 non d ame     -13.445   9.057  72.835  0.00  0.00     0.083 H 
ATOM     71  H53 non d ame     -11.754  10.422  71.634  0.00  0.00     0.084 H 
ENDBRANCH  58  61
ENDBRANCH  57  58
ENDBRANCH  55  57
ENDBRANCH  52  55
ENDBRANCH  49  52
ENDBRANCH  47  49
BRANCH  47  72
ATOM     72  C24 non d ame      -6.455  12.105  69.191  0.00  0.00    -0.039 C 
ATOM     73  H35 non d ame      -7.157  12.682  69.793  0.00  0.00     0.036 H 
ATOM     74  H36 non d ame      -6.606  11.034  69.056  0.00  0.00     0.036 H 
BRANCH  72  75
ATOM     75  C25 non d ame      -5.004  12.300  69.841  0.00  0.00    -0.001 C 
ATOM     76  C26 non d ame      -4.442  10.858  70.399  0.00  0.00    -0.035 C 
ATOM     77  C27 non d ame      -4.042  11.013  71.684  0.00  0.00     0.085 C 
ATOM     78  H38 non d ame      -5.259  10.141  70.471  0.00  0.00     0.036 H 
ATOM     79  H39 non d ame      -3.523  10.588  69.877  0.00  0.00     0.036 H 
ATOM     80  N5  non d ame      -4.582  12.341  72.157  0.00  0.00    -0.049 N 
ATOM     81  H40 non d ame      -4.531  10.213  72.240  0.00  0.00     0.075 H 
ATOM     82  H41 non d ame      -2.955  11.065  71.646  0.00  0.00     0.075 H 
ATOM     83  C28 non d ame      -5.041  13.133  70.827  0.00  0.00     0.193 C 
ATOM     84  H42 non d ame      -5.402  12.137  72.709  0.00  0.00     0.280 HD
ATOM     85  H43 non d ame      -3.804  12.835  72.572  0.00  0.00     0.280 HD
ATOM     86  H44 non d ame      -4.431  13.942  70.425  0.00  0.00     0.129 H 
ATOM     87  H37 non d ame      -4.338  12.877  69.199  0.00  0.00     0.046 H 
BRANCH  83  88
ATOM     88  O6  non d ame      -6.343  13.692  71.011  0.00  0.00    -0.369 OA
ATOM     89  H45 non d ame      -6.329  14.298  71.755  0.00  0.00     0.212 HD
ENDBRANCH  83  88
ENDBRANCH  72  75
ENDBRANCH  47  72
ENDBRANCH  45  47
ENDBRANCH   1  43
BRANCH   1  90
ATOM     90  C16 non d ame      -6.218  17.217  69.220  0.00  0.00    -0.035 C 
ATOM     91  H21 non d ame      -7.218  17.356  69.631  0.00  0.00     0.037 H 
ATOM     92  H22 non d ame      -5.531  16.509  69.685  0.00  0.00     0.037 H 
BRANCH  90  93
ATOM     93  C17 non d ame      -5.519  18.613  69.278  0.00  0.00    -0.059 C 
ATOM     94  H23 non d ame      -4.662  18.582  68.605  0.00  0.00     0.038 H 
BRANCH  93  95
ATOM     95  C18 non d ame      -6.460  19.764  68.798  0.00  0.00    -0.073 C 
ATOM     96  H24 non d ame      -6.784  19.565  67.777  0.00  0.00     0.028 H 
ATOM     97  H25 non d ame      -7.331  19.817  69.452  0.00  0.00     0.028 H 
ATOM     98  H26 non d ame      -5.922  20.711  68.832  0.00  0.00     0.028 H 
ENDBRANCH  93  95
BRANCH  93  99
ATOM     99  C19 non d ame      -4.982  18.897  70.683  0.00  0.00    -0.073 C 
ATOM    100  H27 non d ame      -4.606  19.920  70.728  0.00  0.00     0.028 H 
ATOM    101  H28 non d ame      -5.786  18.774  71.410  0.00  0.00     0.028 H 
ATOM    102  H29 non d ame      -4.176  18.202  70.912  0.00  0.00     0.028 H 
ENDBRANCH  93  99
ENDBRANCH  90  93
ENDBRANCH   1  90
TORSDOF 26
ENDMDL
MODEL 11
REMARK VINA RESULT:      -6.2      3.611      8.756
REMARK  26 active torsions:
REMARK  status: ('A' for Active; 'I' for Inactive)
REMARK    1  A    between atoms: C2_2  and  C3_3 
REMARK    2  A    between atoms: C4_6  and  C5_7 
REMARK       I    between atoms: C5_7  and  N2_9 
REMARK    3  A    between atoms: N2_9  and  C6_10 
REMARK    4  A    between atoms: C6_10  and  C7_11 
REMARK    5  A    between atoms: C6_10  and  C8_13 
REMARK       I    between atoms: C7_11  and  N3_14 
REMARK    6  A    between atoms: N3_14  and  C9_15 
REMARK    7  A    between atoms: C9_15  and  C10_16 
REMARK    8  A    between atoms: C9_15  and  C11_18 
REMARK       I    between atoms: C10_16  and  N4_21 
REMARK    9  A    between atoms: C11_18  and  C12_19 
REMARK   10  A    between atoms: C11_18  and  C13_20 
REMARK   11  A    between atoms: N4_21  and  C14_22 
REMARK   12  A    between atoms: C14_22  and  C15_23 
REMARK   13  A    between atoms: C14_22  and  C16_25 
REMARK       I    between atoms: C15_23  and  N6_40 
REMARK   14  A    between atoms: C16_25  and  C17_26 
REMARK   15  A    between atoms: C17_26  and  C18_27 
REMARK   16  A    between atoms: C17_26  and  C19_28 
REMARK   17  A    between atoms: C20_29  and  C21_30 
REMARK   18  A    between atoms: C20_29  and  C24_33 
REMARK   19  A    between atoms: C20_29  and  N6_40 
REMARK   20  A    between atoms: C21_30  and  C22_31 
REMARK   21  A    between atoms: C22_31  and  C23_32 
REMARK   22  A    between atoms: C23_32  and  O8_43 
REMARK   23  A    between atoms: C24_33  and  C25_34 
REMARK   24  A    between atoms: C28_38  and  O6_39 
REMARK   25  A    between atoms: C29_42  and  O8_43 
REMARK   26  A    between atoms: C29_42  and  C35_49 
ROOT
ATOM      1  C14 non d ame     -10.856   8.953  69.346  0.00  0.00     0.089 C 
ATOM      2  H20 non d ame     -11.935   8.797  69.351  0.00  0.00     0.087 H 
ENDROOT
BRANCH   1   3
ATOM      3  N4  non d ame     -10.234   7.704  68.934  0.00  0.00    -0.346 N 
ATOM      4  C10 non d ame     -10.930   6.389  69.180  0.00  0.00     0.241 C 
ATOM      5  O4  non d ame     -11.990   6.362  69.714  0.00  0.00    -0.271 OA
ATOM      6  H19 non d ame      -9.331   7.748  68.483  0.00  0.00     0.163 HD
BRANCH   4   7
ATOM      7  C9  non d ame     -10.275   5.106  68.742  0.00  0.00     0.092 C 
ATOM      8  H11 non d ame     -11.003   4.494  68.210  0.00  0.00     0.088 H 
BRANCH   7   9
ATOM      9  N3  non d ame      -9.192   5.406  67.801  0.00  0.00    -0.346 N 
ATOM     10  C7  non d ame      -9.289   4.975  66.428  0.00  0.00     0.240 C 
ATOM     11  O3  non d ame     -10.232   4.383  66.064  0.00  0.00    -0.271 OA
ATOM     12  H10 non d ame      -8.372   5.914  68.100  0.00  0.00     0.163 HD
BRANCH  10  13
ATOM     13  C6  non d ame      -8.132   5.295  65.432  0.00  0.00     0.086 C 
ATOM     14  H6  non d ame      -8.110   4.617  64.579  0.00  0.00     0.086 H 
BRANCH  13  15
ATOM     15  N2  non d ame      -8.328   6.632  64.895  0.00  0.00    -0.343 N 
ATOM     16  C5  non d ame      -7.902   6.929  63.526  0.00  0.00     0.273 C 
ATOM     17  O2  non d ame      -7.400   6.087  62.865  0.00  0.00    -0.266 OA
ATOM     18  H5  non d ame      -8.756   7.346  65.467  0.00  0.00     0.163 HD
BRANCH  16  19
ATOM     19  C4  non d ame      -8.105   8.337  62.945  0.00  0.00     0.154 A 
ATOM     20  C1  non d ame      -7.225   9.045  62.066  0.00  0.00    -0.017 A 
ATOM     21  C2  non d ame      -7.864  10.282  61.831  0.00  0.00     0.077 A 
ATOM     22  H1  non d ame      -6.269   8.712  61.662  0.00  0.00     0.091 H 
ATOM     23  O1  non d ame      -8.980  10.275  62.499  0.00  0.00    -0.218 OA
ATOM     24  N1  non d ame      -9.143   9.151  63.157  0.00  0.00    -0.123 NA
BRANCH  21  25
ATOM     25  C3  non d ame      -7.343  11.414  60.955  0.00  0.00    -0.029 C 
ATOM     26  H2  non d ame      -6.425  11.098  60.460  0.00  0.00     0.036 H 
ATOM     27  H3  non d ame      -8.092  11.667  60.205  0.00  0.00     0.036 H 
ATOM     28  H4  non d ame      -7.140  12.289  61.574  0.00  0.00     0.036 H 
ENDBRANCH  21  25
ENDBRANCH  16  19
ENDBRANCH  13  15
BRANCH  13  29
ATOM     29  C8  non d ame      -6.810   5.216  66.151  0.00  0.00    -0.049 C 
ATOM     30  H7  non d ame      -6.817   5.899  67.001  0.00  0.00     0.030 H 
ATOM     31  H8  non d ame      -6.648   4.198  66.505  0.00  0.00     0.030 H 
ATOM     32  H9  non d ame      -6.008   5.496  65.468  0.00  0.00     0.030 H 
ENDBRANCH  13  29
ENDBRANCH  10  13
ENDBRANCH   7   9
BRANCH   7  33
ATOM     33  C11 non d ame      -9.690   4.372  69.984  0.00  0.00    -0.033 C 
ATOM     34  H12 non d ame     -10.460   4.366  70.755  0.00  0.00     0.042 H 
BRANCH  33  35
ATOM     35  C12 non d ame      -9.344   2.886  69.656  0.00  0.00    -0.071 C 
ATOM     36  H13 non d ame      -8.536   2.549  70.305  0.00  0.00     0.028 H 
ATOM     37  H14 non d ame     -10.224   2.264  69.819  0.00  0.00     0.028 H 
ATOM     38  H15 non d ame      -9.031   2.807  68.615  0.00  0.00     0.028 H 
ENDBRANCH  33  35
BRANCH  33  39
ATOM     39  C13 non d ame      -8.446   5.131  70.548  0.00  0.00    -0.071 C 
ATOM     40  H16 non d ame      -7.734   4.412  70.952  0.00  0.00     0.028 H 
ATOM     41  H17 non d ame      -7.974   5.700  69.747  0.00  0.00     0.028 H 
ATOM     42  H18 non d ame      -8.764   5.812  71.338  0.00  0.00     0.028 H 
ENDBRANCH  33  39
ENDBRANCH   7  33
ENDBRANCH   4   7
ENDBRANCH   1   3
BRANCH   1  43
ATOM     43  C15 non d ame     -10.430  10.070  68.350  0.00  0.00     0.240 C 
ATOM     44  O5  non d ame      -9.807   9.789  67.378  0.00  0.00    -0.271 OA
ATOM     45  N6  non d ame     -10.806  11.490  68.605  0.00  0.00    -0.355 N 
ATOM     46  H46 non d ame     -11.339  11.740  69.425  0.00  0.00     0.162 HD
BRANCH  45  47
ATOM     47  C20 non d ame     -10.395  12.540  67.649  0.00  0.00     0.013 C 
ATOM     48  H30 non d ame      -9.496  12.195  67.138  0.00  0.00     0.072 H 
BRANCH  47  49
ATOM     49  C21 non d ame     -10.102  13.817  68.404  0.00  0.00    -0.038 C 
ATOM     50  H31 non d ame      -9.329  13.560  69.129  0.00  0.00     0.036 H 
ATOM     51  H32 non d ame      -9.905  14.571  67.642  0.00  0.00     0.036 H 
BRANCH  49  52
ATOM     52  C22 non d ame     -11.313  14.324  69.217  0.00  0.00     0.018 C 
ATOM     53  H33 non d ame     -12.187  14.139  68.592  0.00  0.00     0.048 H 
ATOM     54  H34 non d ame     -11.232  13.847  70.195  0.00  0.00     0.048 H 
BRANCH  52  55
ATOM     55  C23 non d ame     -11.292  15.854  69.484  0.00  0.00     0.259 C 
ATOM     56  O7  non d ame     -11.579  16.284  70.554  0.00  0.00    -0.265 OA
BRANCH  55  57
ATOM     57  O8  non d ame     -10.938  16.741  68.429  0.00  0.00    -0.317 OA
BRANCH  57  58
ATOM     58  C29 non d ame     -10.109  17.832  68.838  0.00  0.00     0.052 C 
ATOM     59  H47 non d ame     -10.756  18.709  68.839  0.00  0.00     0.082 H 
ATOM     60  H48 non d ame      -9.630  17.508  69.762  0.00  0.00     0.082 H 
BRANCH  58  61
ATOM     61  C35 non d ame      -9.012  18.031  67.759  0.00  0.00    -0.034 A 
ATOM     62  C30 non d ame      -8.364  16.928  67.212  0.00  0.00    -0.075 A 
ATOM     63  C31 non d ame      -7.379  17.107  66.243  0.00  0.00    -0.082 A 
ATOM     64  H49 non d ame      -8.629  15.924  67.542  0.00  0.00     0.084 H 
ATOM     65  C32 non d ame      -7.039  18.396  65.822  0.00  0.00    -0.083 A 
ATOM     66  H50 non d ame      -6.875  16.241  65.814  0.00  0.00     0.083 H 
ATOM     67  C33 non d ame      -7.686  19.494  66.373  0.00  0.00    -0.082 A 
ATOM     68  H51 non d ame      -6.270  18.545  65.064  0.00  0.00     0.083 H 
ATOM     69  C34 non d ame      -8.673  19.320  67.341  0.00  0.00    -0.075 A 
ATOM     70  H52 non d ame      -7.418  20.498  66.045  0.00  0.00     0.083 H 
ATOM     71  H53 non d ame      -9.178  20.187  67.768  0.00  0.00     0.084 H 
ENDBRANCH  58  61
ENDBRANCH  57  58
ENDBRANCH  55  57
ENDBRANCH  52  55
ENDBRANCH  49  52
ENDBRANCH  47  49
BRANCH  47  72
ATOM     72  C24 non d ame     -11.515  12.789  66.641  0.00  0.00    -0.039 C 
ATOM     73  H35 non d ame     -11.900  11.802  66.386  0.00  0.00     0.036 H 
ATOM     74  H36 non d ame     -12.169  13.524  67.111  0.00  0.00     0.036 H 
BRANCH  72  75
ATOM     75  C25 non d ame     -10.962  13.445  65.289  0.00  0.00    -0.001 C 
ATOM     76  C26 non d ame     -10.979  15.085  65.414  0.00  0.00    -0.035 C 
ATOM     77  C27 non d ame     -11.615  15.598  64.333  0.00  0.00     0.085 C 
ATOM     78  H38 non d ame     -11.609  15.389  66.249  0.00  0.00     0.036 H 
ATOM     79  H39 non d ame      -9.966  15.477  65.323  0.00  0.00     0.036 H 
ATOM     80  N5  non d ame     -12.318  14.451  63.649  0.00  0.00    -0.049 N 
ATOM     81  H40 non d ame     -12.361  16.285  64.734  0.00  0.00     0.075 H 
ATOM     82  H41 non d ame     -10.826  15.970  63.681  0.00  0.00     0.075 H 
ATOM     83  C28 non d ame     -11.684  13.104  64.274  0.00  0.00     0.193 C 
ATOM     84  H42 non d ame     -13.289  14.506  63.923  0.00  0.00     0.280 HD
ATOM     85  H43 non d ame     -12.066  14.501  62.672  0.00  0.00     0.280 HD
ATOM     86  H44 non d ame     -10.963  12.516  63.706  0.00  0.00     0.129 H 
ATOM     87  H37 non d ame     -10.032  12.983  64.956  0.00  0.00     0.046 H 
BRANCH  83  88
ATOM     88  O6  non d ame     -12.722  12.191  64.634  0.00  0.00    -0.369 OA
ATOM     89  H45 non d ame     -12.989  11.690  63.860  0.00  0.00     0.212 HD
ENDBRANCH  83  88
ENDBRANCH  72  75
ENDBRANCH  47  72
ENDBRANCH  45  47
ENDBRANCH   1  43
BRANCH   1  90
ATOM     90  C16 non d ame     -10.380   9.307  70.745  0.00  0.00    -0.035 C 
ATOM     91  H21 non d ame      -9.697   8.506  71.029  0.00  0.00     0.037 H 
ATOM     92  H22 non d ame     -10.017  10.333  70.676  0.00  0.00     0.037 H 
BRANCH  90  93
ATOM     93  C17 non d ame     -11.520   9.313  71.813  0.00  0.00    -0.059 C 
ATOM     94  H23 non d ame     -11.297  10.101  72.531  0.00  0.00     0.038 H 
BRANCH  93  95
ATOM     95  C18 non d ame     -12.915   9.624  71.182  0.00  0.00    -0.073 C 
ATOM     96  H24 non d ame     -13.314   8.721  70.720  0.00  0.00     0.028 H 
ATOM     97  H25 non d ame     -13.598   9.965  71.961  0.00  0.00     0.028 H 
ATOM     98  H26 non d ame     -12.807  10.402  70.427  0.00  0.00     0.028 H 
ENDBRANCH  93  95
BRANCH  93  99
ATOM     99  C19 non d ame     -11.553   7.991  72.584  0.00  0.00    -0.073 C 
ATOM    100  H27 non d ame     -11.563   7.159  71.880  0.00  0.00     0.028 H 
ATOM    101  H28 non d ame     -10.670   7.919  73.220  0.00  0.00     0.028 H 
ATOM    102  H29 non d ame     -12.450   7.954  73.203  0.00  0.00     0.028 H 
ENDBRANCH  93  99
ENDBRANCH  90  93
ENDBRANCH   1  90
TORSDOF 26
ENDMDL
MODEL 12
REMARK VINA RESULT:      -6.1      3.392      8.372
REMARK  26 active torsions:
REMARK  status: ('A' for Active; 'I' for Inactive)
REMARK    1  A    between atoms: C2_2  and  C3_3 
REMARK    2  A    between atoms: C4_6  and  C5_7 
REMARK       I    between atoms: C5_7  and  N2_9 
REMARK    3  A    between atoms: N2_9  and  C6_10 
REMARK    4  A    between atoms: C6_10  and  C7_11 
REMARK    5  A    between atoms: C6_10  and  C8_13 
REMARK       I    between atoms: C7_11  and  N3_14 
REMARK    6  A    between atoms: N3_14  and  C9_15 
REMARK    7  A    between atoms: C9_15  and  C10_16 
REMARK    8  A    between atoms: C9_15  and  C11_18 
REMARK       I    between atoms: C10_16  and  N4_21 
REMARK    9  A    between atoms: C11_18  and  C12_19 
REMARK   10  A    between atoms: C11_18  and  C13_20 
REMARK   11  A    between atoms: N4_21  and  C14_22 
REMARK   12  A    between atoms: C14_22  and  C15_23 
REMARK   13  A    between atoms: C14_22  and  C16_25 
REMARK       I    between atoms: C15_23  and  N6_40 
REMARK   14  A    between atoms: C16_25  and  C17_26 
REMARK   15  A    between atoms: C17_26  and  C18_27 
REMARK   16  A    between atoms: C17_26  and  C19_28 
REMARK   17  A    between atoms: C20_29  and  C21_30 
REMARK   18  A    between atoms: C20_29  and  C24_33 
REMARK   19  A    between atoms: C20_29  and  N6_40 
REMARK   20  A    between atoms: C21_30  and  C22_31 
REMARK   21  A    between atoms: C22_31  and  C23_32 
REMARK   22  A    between atoms: C23_32  and  O8_43 
REMARK   23  A    between atoms: C24_33  and  C25_34 
REMARK   24  A    between atoms: C28_38  and  O6_39 
REMARK   25  A    between atoms: C29_42  and  O8_43 
REMARK   26  A    between atoms: C29_42  and  C35_49 
ROOT
ATOM      1  C14 non d ame     -10.889   9.300  69.241  0.00  0.00     0.089 C 
ATOM      2  H20 non d ame     -11.779   8.672  69.187  0.00  0.00     0.087 H 
ENDROOT
BRANCH   1   3
ATOM      3  N4  non d ame      -9.793   8.557  68.637  0.00  0.00    -0.346 N 
ATOM      4  C10 non d ame      -9.980   7.117  68.231  0.00  0.00     0.241 C 
ATOM      5  O4  non d ame     -11.022   6.576  68.403  0.00  0.00    -0.271 OA
ATOM      6  H19 non d ame      -8.913   9.035  68.502  0.00  0.00     0.163 HD
BRANCH   4   7
ATOM      7  C9  non d ame      -8.836   6.366  67.602  0.00  0.00     0.092 C 
ATOM      8  H11 non d ame      -9.063   5.300  67.605  0.00  0.00     0.088 H 
BRANCH   7   9
ATOM      9  N3  non d ame      -8.692   6.776  66.202  0.00  0.00    -0.346 N 
ATOM     10  C7  non d ame      -8.558   5.778  65.170  0.00  0.00     0.240 C 
ATOM     11  O3  non d ame      -8.562   4.641  65.448  0.00  0.00    -0.271 OA
ATOM     12  H10 non d ame      -8.685   7.753  65.947  0.00  0.00     0.163 HD
BRANCH  10  13
ATOM     13  C6  non d ame      -8.402   6.220  63.682  0.00  0.00     0.086 C 
ATOM     14  H6  non d ame      -9.109   6.999  63.397  0.00  0.00     0.086 H 
BRANCH  13  15
ATOM     15  N2  non d ame      -7.072   6.776  63.492  0.00  0.00    -0.343 N 
ATOM     16  C5  non d ame      -6.922   8.205  63.209  0.00  0.00     0.273 C 
ATOM     17  O2  non d ame      -7.876   8.898  63.133  0.00  0.00    -0.266 OA
ATOM     18  H5  non d ame      -6.262   6.176  63.555  0.00  0.00     0.163 HD
BRANCH  16  19
ATOM     19  C4  non d ame      -5.522   8.806  63.007  0.00  0.00     0.154 A 
ATOM     20  C1  non d ame      -5.084  10.119  63.372  0.00  0.00    -0.017 A 
ATOM     21  C2  non d ame      -3.729  10.173  62.977  0.00  0.00     0.077 A 
ATOM     22  H1  non d ame      -5.662  10.911  63.851  0.00  0.00     0.091 H 
ATOM     23  O1  non d ame      -3.433   9.022  62.450  0.00  0.00    -0.218 OA
ATOM     24  N1  non d ame      -4.463   8.207  62.456  0.00  0.00    -0.123 NA
BRANCH  21  25
ATOM     25  C3  non d ame      -2.789  11.361  63.140  0.00  0.00    -0.029 C 
ATOM     26  H2  non d ame      -2.937  12.057  62.314  0.00  0.00     0.036 H 
ATOM     27  H3  non d ame      -3.001  11.865  64.083  0.00  0.00     0.036 H 
ATOM     28  H4  non d ame      -1.757  11.010  63.140  0.00  0.00     0.036 H 
ENDBRANCH  21  25
ENDBRANCH  16  19
ENDBRANCH  13  15
BRANCH  13  29
ATOM     29  C8  non d ame      -8.598   5.030  62.777  0.00  0.00    -0.049 C 
ATOM     30  H7  non d ame      -7.755   4.951  62.091  0.00  0.00     0.030 H 
ATOM     31  H8  non d ame      -8.663   4.123  63.379  0.00  0.00     0.030 H 
ATOM     32  H9  non d ame      -9.519   5.155  62.208  0.00  0.00     0.030 H 
ENDBRANCH  13  29
ENDBRANCH  10  13
ENDBRANCH   7   9
BRANCH   7  33
ATOM     33  C11 non d ame      -7.521   6.686  68.371  0.00  0.00    -0.033 C 
ATOM     34  H12 non d ame      -7.797   7.165  69.311  0.00  0.00     0.042 H 
BRANCH  33  35
ATOM     35  C12 non d ame      -6.736   5.384  68.722  0.00  0.00    -0.071 C 
ATOM     36  H13 non d ame      -5.701   5.483  68.392  0.00  0.00     0.028 H 
ATOM     37  H14 non d ame      -6.759   5.225  69.800  0.00  0.00     0.028 H 
ATOM     38  H15 non d ame      -7.198   4.535  68.219  0.00  0.00     0.028 H 
ENDBRANCH  33  35
BRANCH  33  39
ATOM     39  C13 non d ame      -6.630   7.684  67.564  0.00  0.00    -0.071 C 
ATOM     40  H16 non d ame      -7.260   8.446  67.107  0.00  0.00     0.028 H 
ATOM     41  H17 non d ame      -5.915   8.160  68.237  0.00  0.00     0.028 H 
ATOM     42  H18 non d ame      -6.091   7.143  66.786  0.00  0.00     0.028 H 
ENDBRANCH  33  39
ENDBRANCH   7  33
ENDBRANCH   4   7
ENDBRANCH   1   3
BRANCH   1  43
ATOM     43  C15 non d ame     -11.067  10.638  68.467  0.00  0.00     0.240 C 
ATOM     44  O5  non d ame     -11.608  10.641  67.409  0.00  0.00    -0.271 OA
ATOM     45  N6  non d ame     -10.570  11.917  69.050  0.00  0.00    -0.355 N 
ATOM     46  H46 non d ame     -10.113  11.927  69.950  0.00  0.00     0.162 HD
BRANCH  45  47
ATOM     47  C20 non d ame     -10.748  13.180  68.303  0.00  0.00     0.013 C 
ATOM     48  H30 non d ame     -10.870  12.932  67.248  0.00  0.00     0.072 H 
BRANCH  47  49
ATOM     49  C21 non d ame      -9.524  14.048  68.491  0.00  0.00    -0.038 C 
ATOM     50  H31 non d ame      -9.739  14.979  67.965  0.00  0.00     0.036 H 
ATOM     51  H32 non d ame      -9.334  14.060  69.564  0.00  0.00     0.036 H 
BRANCH  49  52
ATOM     52  C22 non d ame      -8.261  13.455  67.830  0.00  0.00     0.018 C 
ATOM     53  H33 non d ame      -7.946  12.636  68.478  0.00  0.00     0.048 H 
ATOM     54  H34 non d ame      -8.535  13.256  66.794  0.00  0.00     0.048 H 
BRANCH  52  55
ATOM     55  C23 non d ame      -7.061  14.441  67.774  0.00  0.00     0.259 C 
ATOM     56  O7  non d ame      -6.014  14.093  67.333  0.00  0.00    -0.265 OA
BRANCH  55  57
ATOM     57  O8  non d ame      -7.224  15.765  68.268  0.00  0.00    -0.317 OA
BRANCH  57  58
ATOM     58  C29 non d ame      -7.085  16.781  67.270  0.00  0.00     0.052 C 
ATOM     59  H47 non d ame      -6.183  17.332  67.535  0.00  0.00     0.082 H 
ATOM     60  H48 non d ame      -7.147  16.264  66.313  0.00  0.00     0.082 H 
BRANCH  58  61
ATOM     61  C35 non d ame      -8.300  17.739  67.390  0.00  0.00    -0.034 A 
ATOM     62  C30 non d ame      -9.390  17.593  66.537  0.00  0.00    -0.075 A 
ATOM     63  C31 non d ame     -10.481  18.454  66.644  0.00  0.00    -0.082 A 
ATOM     64  H49 non d ame      -9.388  16.803  65.785  0.00  0.00     0.084 H 
ATOM     65  C32 non d ame     -10.479  19.466  67.608  0.00  0.00    -0.083 A 
ATOM     66  H50 non d ame     -11.334  18.335  65.976  0.00  0.00     0.083 H 
ATOM     67  C33 non d ame      -9.388  19.610  68.454  0.00  0.00    -0.082 A 
ATOM     68  H51 non d ame     -11.328  20.143  67.699  0.00  0.00     0.083 H 
ATOM     69  C34 non d ame      -8.296  18.751  68.352  0.00  0.00    -0.075 A 
ATOM     70  H52 non d ame      -9.389  20.402  69.204  0.00  0.00     0.083 H 
ATOM     71  H53 non d ame      -7.444  18.869  69.022  0.00  0.00     0.084 H 
ENDBRANCH  58  61
ENDBRANCH  57  58
ENDBRANCH  55  57
ENDBRANCH  52  55
ENDBRANCH  49  52
ENDBRANCH  47  49
BRANCH  47  72
ATOM     72  C24 non d ame     -11.981  13.918  68.821  0.00  0.00    -0.039 C 
ATOM     73  H35 non d ame     -12.066  14.811  68.201  0.00  0.00     0.036 H 
ATOM     74  H36 non d ame     -12.781  13.178  68.823  0.00  0.00     0.036 H 
BRANCH  72  75
ATOM     75  C25 non d ame     -11.786  14.409  70.333  0.00  0.00    -0.001 C 
ATOM     76  C26 non d ame     -12.796  13.575  71.327  0.00  0.00    -0.035 C 
ATOM     77  C27 non d ame     -13.489  14.458  72.085  0.00  0.00     0.085 C 
ATOM     78  H38 non d ame     -13.570  13.079  70.743  0.00  0.00     0.036 H 
ATOM     79  H39 non d ame     -12.218  13.010  72.059  0.00  0.00     0.036 H 
ATOM     80  N5  non d ame     -13.284  15.822  71.473  0.00  0.00    -0.049 N 
ATOM     81  H40 non d ame     -14.537  14.174  71.979  0.00  0.00     0.075 H 
ATOM     82  H41 non d ame     -13.015  14.435  73.066  0.00  0.00     0.075 H 
ATOM     83  C28 non d ame     -12.042  15.669  70.452  0.00  0.00     0.193 C 
ATOM     84  H42 non d ame     -14.117  16.024  70.938  0.00  0.00     0.280 HD
ATOM     85  H43 non d ame     -13.006  16.436  72.226  0.00  0.00     0.280 HD
ATOM     86  H44 non d ame     -11.056  16.048  70.719  0.00  0.00     0.129 H 
ATOM     87  H37 non d ame     -10.735  14.456  70.620  0.00  0.00     0.046 H 
BRANCH  83  88
ATOM     88  O6  non d ame     -12.358  16.276  69.198  0.00  0.00    -0.369 OA
ATOM     89  H45 non d ame     -11.722  16.970  69.009  0.00  0.00     0.212 HD
ENDBRANCH  83  88
ENDBRANCH  72  75
ENDBRANCH  47  72
ENDBRANCH  45  47
ENDBRANCH   1  43
BRANCH   1  90
ATOM     90  C16 non d ame     -10.551   9.591  70.694  0.00  0.00    -0.035 C 
ATOM     91  H21 non d ame      -9.669   8.988  70.911  0.00  0.00     0.037 H 
ATOM     92  H22 non d ame     -10.499  10.677  70.766  0.00  0.00     0.037 H 
BRANCH  90  93
ATOM     93  C17 non d ame     -11.656   9.134  71.698  0.00  0.00    -0.059 C 
ATOM     94  H23 non d ame     -11.306   9.367  72.704  0.00  0.00     0.038 H 
BRANCH  93  95
ATOM     95  C18 non d ame     -13.004   9.891  71.475  0.00  0.00    -0.073 C 
ATOM     96  H24 non d ame     -12.881  10.939  71.748  0.00  0.00     0.028 H 
ATOM     97  H25 non d ame     -13.292   9.820  70.426  0.00  0.00     0.028 H 
ATOM     98  H26 non d ame     -13.780   9.442  72.096  0.00  0.00     0.028 H 
ENDBRANCH  93  95
BRANCH  93  99
ATOM     99  C19 non d ame     -11.865   7.619  71.629  0.00  0.00    -0.073 C 
ATOM    100  H27 non d ame     -12.931   7.396  71.670  0.00  0.00     0.028 H 
ATOM    101  H28 non d ame     -11.449   7.237  70.697  0.00  0.00     0.028 H 
ATOM    102  H29 non d ame     -11.362   7.144  72.472  0.00  0.00     0.028 H 
ENDBRANCH  93  99
ENDBRANCH  90  93
ENDBRANCH   1  90
TORSDOF 26
ENDMDL
MODEL 13
REMARK VINA RESULT:      -6.1      3.298      7.446
REMARK  26 active torsions:
REMARK  status: ('A' for Active; 'I' for Inactive)
REMARK    1  A    between atoms: C2_2  and  C3_3 
REMARK    2  A    between atoms: C4_6  and  C5_7 
REMARK       I    between atoms: C5_7  and  N2_9 
REMARK    3  A    between atoms: N2_9  and  C6_10 
REMARK    4  A    between atoms: C6_10  and  C7_11 
REMARK    5  A    between atoms: C6_10  and  C8_13 
REMARK       I    between atoms: C7_11  and  N3_14 
REMARK    6  A    between atoms: N3_14  and  C9_15 
REMARK    7  A    between atoms: C9_15  and  C10_16 
REMARK    8  A    between atoms: C9_15  and  C11_18 
REMARK       I    between atoms: C10_16  and  N4_21 
REMARK    9  A    between atoms: C11_18  and  C12_19 
REMARK   10  A    between atoms: C11_18  and  C13_20 
REMARK   11  A    between atoms: N4_21  and  C14_22 
REMARK   12  A    between atoms: C14_22  and  C15_23 
REMARK   13  A    between atoms: C14_22  and  C16_25 
REMARK       I    between atoms: C15_23  and  N6_40 
REMARK   14  A    between atoms: C16_25  and  C17_26 
REMARK   15  A    between atoms: C17_26  and  C18_27 
REMARK   16  A    between atoms: C17_26  and  C19_28 
REMARK   17  A    between atoms: C20_29  and  C21_30 
REMARK   18  A    between atoms: C20_29  and  C24_33 
REMARK   19  A    between atoms: C20_29  and  N6_40 
REMARK   20  A    between atoms: C21_30  and  C22_31 
REMARK   21  A    between atoms: C22_31  and  C23_32 
REMARK   22  A    between atoms: C23_32  and  O8_43 
REMARK   23  A    between atoms: C24_33  and  C25_34 
REMARK   24  A    between atoms: C28_38  and  O6_39 
REMARK   25  A    between atoms: C29_42  and  O8_43 
REMARK   26  A    between atoms: C29_42  and  C35_49 
ROOT
ATOM      1  C14 non d ame      -6.762  12.292  67.504  0.00  0.00     0.089 C 
ATOM      2  H20 non d ame      -7.358  11.689  68.189  0.00  0.00     0.087 H 
ENDROOT
BRANCH   1   3
ATOM      3  N4  non d ame      -6.709  11.587  66.232  0.00  0.00    -0.346 N 
ATOM      4  C10 non d ame      -7.193  10.162  66.131  0.00  0.00     0.241 C 
ATOM      5  O4  non d ame      -7.619   9.603  67.087  0.00  0.00    -0.271 OA
ATOM      6  H19 non d ame      -6.341  12.079  65.430  0.00  0.00     0.163 HD
BRANCH   4   7
ATOM      7  C9  non d ame      -7.135   9.449  64.805  0.00  0.00     0.092 C 
ATOM      8  H11 non d ame      -6.095   9.241  64.555  0.00  0.00     0.088 H 
BRANCH   7   9
ATOM      9  N3  non d ame      -7.821   8.158  64.915  0.00  0.00    -0.346 N 
ATOM     10  C7  non d ame      -7.161   6.952  64.477  0.00  0.00     0.240 C 
ATOM     11  O3  non d ame      -6.079   7.003  64.034  0.00  0.00    -0.271 OA
ATOM     12  H10 non d ame      -8.755   8.098  65.294  0.00  0.00     0.163 HD
BRANCH  10  13
ATOM     13  C6  non d ame      -7.898   5.581  64.594  0.00  0.00     0.086 C 
ATOM     14  H6  non d ame      -7.221   4.757  64.819  0.00  0.00     0.086 H 
BRANCH  13  15
ATOM     15  N2  non d ame      -8.850   5.649  65.689  0.00  0.00    -0.343 N 
ATOM     16  C5  non d ame      -8.402   5.360  67.053  0.00  0.00     0.273 C 
ATOM     17  O2  non d ame      -7.275   5.070  67.258  0.00  0.00    -0.266 OA
ATOM     18  H5  non d ame      -9.813   5.895  65.505  0.00  0.00     0.163 HD
BRANCH  16  19
ATOM     19  C4  non d ame      -9.398   5.429  68.221  0.00  0.00     0.154 A 
ATOM     20  C1  non d ame      -9.165   5.045  69.580  0.00  0.00    -0.017 A 
ATOM     21  C2  non d ame     -10.385   5.303  70.245  0.00  0.00     0.077 A 
ATOM     22  H1  non d ame      -8.252   4.641  70.017  0.00  0.00     0.091 H 
ATOM     23  O1  non d ame     -11.214   5.781  69.363  0.00  0.00    -0.218 OA
ATOM     24  N1  non d ame     -10.661   5.863  68.175  0.00  0.00    -0.123 NA
BRANCH  21  25
ATOM     25  C3  non d ame     -10.675   5.067  71.721  0.00  0.00    -0.029 C 
ATOM     26  H2  non d ame     -10.716   3.996  71.917  0.00  0.00     0.036 H 
ATOM     27  H3  non d ame      -9.884   5.517  72.323  0.00  0.00     0.036 H 
ATOM     28  H4  non d ame     -11.631   5.521  71.982  0.00  0.00     0.036 H 
ENDBRANCH  21  25
ENDBRANCH  16  19
ENDBRANCH  13  15
BRANCH  13  29
ATOM     29  C8  non d ame      -8.616   5.283  63.302  0.00  0.00    -0.049 C 
ATOM     30  H7  non d ame      -8.834   4.216  63.246  0.00  0.00     0.030 H 
ATOM     31  H8  non d ame      -9.548   5.846  63.266  0.00  0.00     0.030 H 
ATOM     32  H9  non d ame      -7.985   5.569  62.461  0.00  0.00     0.030 H 
ENDBRANCH  13  29
ENDBRANCH  10  13
ENDBRANCH   7   9
BRANCH   7  33
ATOM     33  C11 non d ame      -7.838  10.315  63.719  0.00  0.00    -0.033 C 
ATOM     34  H12 non d ame      -7.763  11.357  64.031  0.00  0.00     0.042 H 
BRANCH  33  35
ATOM     35  C12 non d ame      -7.121  10.187  62.339  0.00  0.00    -0.071 C 
ATOM     36  H13 non d ame      -6.493   9.296  62.337  0.00  0.00     0.028 H 
ATOM     37  H14 non d ame      -7.868  10.105  61.549  0.00  0.00     0.028 H 
ATOM     38  H15 non d ame      -6.504  11.068  62.167  0.00  0.00     0.028 H 
ENDBRANCH  33  35
BRANCH  33  39
ATOM     39  C13 non d ame      -9.353   9.952  63.607  0.00  0.00    -0.071 C 
ATOM     40  H16 non d ame      -9.497   8.907  63.880  0.00  0.00     0.028 H 
ATOM     41  H17 non d ame      -9.930  10.587  64.281  0.00  0.00     0.028 H 
ATOM     42  H18 non d ame      -9.689  10.110  62.583  0.00  0.00     0.028 H 
ENDBRANCH  33  39
ENDBRANCH   7  33
ENDBRANCH   4   7
ENDBRANCH   1   3
BRANCH   1  43
ATOM     43  C15 non d ame      -7.385  13.698  67.264  0.00  0.00     0.240 C 
ATOM     44  O5  non d ame      -6.680  14.653  67.199  0.00  0.00    -0.271 OA
ATOM     45  N6  non d ame      -8.859  13.852  67.108  0.00  0.00    -0.355 N 
ATOM     46  H46 non d ame      -9.467  13.047  67.157  0.00  0.00     0.162 HD
BRANCH  45  47
ATOM     47  C20 non d ame      -9.435  15.195  66.880  0.00  0.00     0.013 C 
ATOM     48  H30 non d ame      -8.647  15.930  67.040  0.00  0.00     0.072 H 
BRANCH  47  49
ATOM     49  C21 non d ame     -10.564  15.427  67.859  0.00  0.00    -0.038 C 
ATOM     50  H31 non d ame     -10.376  16.406  68.299  0.00  0.00     0.036 H 
ATOM     51  H32 non d ame     -11.482  15.248  67.297  0.00  0.00     0.036 H 
BRANCH  49  52
ATOM     52  C22 non d ame     -10.563  14.416  69.026  0.00  0.00     0.018 C 
ATOM     53  H33 non d ame     -10.676  13.434  68.566  0.00  0.00     0.048 H 
ATOM     54  H34 non d ame      -9.673  14.644  69.613  0.00  0.00     0.048 H 
BRANCH  52  55
ATOM     55  C23 non d ame     -11.767  14.577  69.995  0.00  0.00     0.259 C 
ATOM     56  O7  non d ame     -12.322  15.622  70.099  0.00  0.00    -0.265 OA
BRANCH  55  57
ATOM     57  O8  non d ame     -12.192  13.461  70.769  0.00  0.00    -0.317 OA
BRANCH  57  58
ATOM     58  C29 non d ame     -12.738  12.389  69.994  0.00  0.00     0.052 C 
ATOM     59  H47 non d ame     -13.794  12.342  70.259  0.00  0.00     0.082 H 
ATOM     60  H48 non d ame     -12.443  12.589  68.965  0.00  0.00     0.082 H 
BRANCH  58  61
ATOM     61  C35 non d ame     -12.057  11.073  70.453  0.00  0.00    -0.034 A 
ATOM     62  C30 non d ame     -12.639  10.298  71.451  0.00  0.00    -0.075 A 
ATOM     63  C31 non d ame     -12.028   9.115  71.864  0.00  0.00    -0.082 A 
ATOM     64  H49 non d ame     -13.575  10.618  71.910  0.00  0.00     0.084 H 
ATOM     65  C32 non d ame     -10.827   8.709  71.276  0.00  0.00    -0.083 A 
ATOM     66  H50 non d ame     -12.488   8.509  72.644  0.00  0.00     0.083 H 
ATOM     67  C33 non d ame     -10.248   9.486  70.282  0.00  0.00    -0.082 A 
ATOM     68  H51 non d ame     -10.342   7.785  71.592  0.00  0.00     0.083 H 
ATOM     69  C34 non d ame     -10.857  10.668  69.866  0.00  0.00    -0.075 A 
ATOM     70  H52 non d ame      -9.310   9.168  69.827  0.00  0.00     0.083 H 
ATOM     71  H53 non d ame     -10.396  11.273  69.084  0.00  0.00     0.084 H 
ENDBRANCH  58  61
ENDBRANCH  57  58
ENDBRANCH  55  57
ENDBRANCH  52  55
ENDBRANCH  49  52
ENDBRANCH  47  49
BRANCH  47  72
ATOM     72  C24 non d ame      -9.970  15.291  65.453  0.00  0.00    -0.039 C 
ATOM     73  H35 non d ame     -10.202  16.346  65.301  0.00  0.00     0.036 H 
ATOM     74  H36 non d ame      -9.221  14.803  64.829  0.00  0.00     0.036 H 
BRANCH  72  75
ATOM     75  C25 non d ame     -11.337  14.476  65.275  0.00  0.00    -0.001 C 
ATOM     76  C26 non d ame     -11.017  12.956  64.736  0.00  0.00    -0.035 C 
ATOM     77  C27 non d ame     -11.784  12.707  63.648  0.00  0.00     0.085 C 
ATOM     78  H38 non d ame     -10.000  12.904  64.348  0.00  0.00     0.036 H 
ATOM     79  H39 non d ame     -11.360  12.220  65.464  0.00  0.00     0.036 H 
ATOM     80  N5  non d ame     -12.357  14.031  63.201  0.00  0.00    -0.049 N 
ATOM     81  H40 non d ame     -11.098  12.341  62.884  0.00  0.00     0.075 H 
ATOM     82  H41 non d ame     -12.595  12.071  64.003  0.00  0.00     0.075 H 
ATOM     83  C28 non d ame     -12.120  15.054  64.427  0.00  0.00     0.193 C 
ATOM     84  H42 non d ame     -11.799  14.334  62.416  0.00  0.00     0.280 HD
ATOM     85  H43 non d ame     -13.351  13.889  63.089  0.00  0.00     0.280 HD
ATOM     86  H44 non d ame     -12.946  15.337  65.080  0.00  0.00     0.129 H 
ATOM     87  H37 non d ame     -11.988  14.566  66.145  0.00  0.00     0.046 H 
BRANCH  83  88
ATOM     88  O6  non d ame     -11.577  16.284  63.944  0.00  0.00    -0.369 OA
ATOM     89  H45 non d ame     -10.957  16.635  64.587  0.00  0.00     0.212 HD
ENDBRANCH  83  88
ENDBRANCH  72  75
ENDBRANCH  47  72
ENDBRANCH  45  47
ENDBRANCH   1  43
BRANCH   1  90
ATOM     90  C16 non d ame      -5.350  12.444  68.046  0.00  0.00    -0.035 C 
ATOM     91  H21 non d ame      -4.692  12.189  67.215  0.00  0.00     0.037 H 
ATOM     92  H22 non d ame      -5.314  13.443  68.482  0.00  0.00     0.037 H 
BRANCH  90  93
ATOM     93  C17 non d ame      -5.011  11.448  69.200  0.00  0.00    -0.059 C 
ATOM     94  H23 non d ame      -4.320  11.948  69.877  0.00  0.00     0.038 H 
BRANCH  93  95
ATOM     95  C18 non d ame      -6.278  11.047  70.023  0.00  0.00    -0.073 C 
ATOM     96  H24 non d ame      -6.355   9.961  70.063  0.00  0.00     0.028 H 
ATOM     97  H25 non d ame      -6.193  11.443  71.035  0.00  0.00     0.028 H 
ATOM     98  H26 non d ame      -7.167  11.458  69.545  0.00  0.00     0.028 H 
ENDBRANCH  93  95
BRANCH  93  99
ATOM     99  C19 non d ame      -4.298  10.206  68.658  0.00  0.00    -0.073 C 
ATOM    100  H27 non d ame      -4.751   9.911  67.711  0.00  0.00     0.028 H 
ATOM    101  H28 non d ame      -3.243  10.433  68.502  0.00  0.00     0.028 H 
ATOM    102  H29 non d ame      -4.392   9.391  69.376  0.00  0.00     0.028 H 
ENDBRANCH  93  99
ENDBRANCH  90  93
ENDBRANCH   1  90
TORSDOF 26
ENDMDL
MODEL 14
REMARK VINA RESULT:      -6.1      4.001      8.204
REMARK  26 active torsions:
REMARK  status: ('A' for Active; 'I' for Inactive)
REMARK    1  A    between atoms: C2_2  and  C3_3 
REMARK    2  A    between atoms: C4_6  and  C5_7 
REMARK       I    between atoms: C5_7  and  N2_9 
REMARK    3  A    between atoms: N2_9  and  C6_10 
REMARK    4  A    between atoms: C6_10  and  C7_11 
REMARK    5  A    between atoms: C6_10  and  C8_13 
REMARK       I    between atoms: C7_11  and  N3_14 
REMARK    6  A    between atoms: N3_14  and  C9_15 
REMARK    7  A    between atoms: C9_15  and  C10_16 
REMARK    8  A    between atoms: C9_15  and  C11_18 
REMARK       I    between atoms: C10_16  and  N4_21 
REMARK    9  A    between atoms: C11_18  and  C12_19 
REMARK   10  A    between atoms: C11_18  and  C13_20 
REMARK   11  A    between atoms: N4_21  and  C14_22 
REMARK   12  A    between atoms: C14_22  and  C15_23 
REMARK   13  A    between atoms: C14_22  and  C16_25 
REMARK       I    between atoms: C15_23  and  N6_40 
REMARK   14  A    between atoms: C16_25  and  C17_26 
REMARK   15  A    between atoms: C17_26  and  C18_27 
REMARK   16  A    between atoms: C17_26  and  C19_28 
REMARK   17  A    between atoms: C20_29  and  C21_30 
REMARK   18  A    between atoms: C20_29  and  C24_33 
REMARK   19  A    between atoms: C20_29  and  N6_40 
REMARK   20  A    between atoms: C21_30  and  C22_31 
REMARK   21  A    between atoms: C22_31  and  C23_32 
REMARK   22  A    between atoms: C23_32  and  O8_43 
REMARK   23  A    between atoms: C24_33  and  C25_34 
REMARK   24  A    between atoms: C28_38  and  O6_39 
REMARK   25  A    between atoms: C29_42  and  O8_43 
REMARK   26  A    between atoms: C29_42  and  C35_49 
ROOT
ATOM      1  C14 non d ame      -7.209   8.739  65.342  0.00  0.00     0.089 C 
ATOM      2  H20 non d ame      -6.251   9.254  65.413  0.00  0.00     0.087 H 
ENDROOT
BRANCH   1   3
ATOM      3  N4  non d ame      -7.089   7.485  66.070  0.00  0.00    -0.346 N 
ATOM      4  C10 non d ame      -6.083   7.345  67.184  0.00  0.00     0.241 C 
ATOM      5  O4  non d ame      -5.378   8.255  67.475  0.00  0.00    -0.271 OA
ATOM      6  H19 non d ame      -7.696   6.722  65.806  0.00  0.00     0.163 HD
BRANCH   4   7
ATOM      7  C9  non d ame      -5.976   6.041  67.931  0.00  0.00     0.092 C 
ATOM      8  H11 non d ame      -5.965   6.242  69.003  0.00  0.00     0.088 H 
BRANCH   7   9
ATOM      9  N3  non d ame      -7.159   5.221  67.656  0.00  0.00    -0.346 N 
ATOM     10  C7  non d ame      -8.131   4.987  68.696  0.00  0.00     0.240 C 
ATOM     11  O3  non d ame      -7.976   5.450  69.759  0.00  0.00    -0.271 OA
ATOM     12  H10 non d ame      -7.306   4.814  66.744  0.00  0.00     0.163 HD
BRANCH  10  13
ATOM     13  C6  non d ame      -9.388   4.111  68.398  0.00  0.00     0.086 C 
ATOM     14  H6  non d ame     -10.323   4.635  68.593  0.00  0.00     0.086 H 
BRANCH  13  15
ATOM     15  N2  non d ame      -9.394   3.761  66.987  0.00  0.00    -0.343 N 
ATOM     16  C5  non d ame     -10.240   4.515  66.060  0.00  0.00     0.273 C 
ATOM     17  O2  non d ame     -10.915   5.400  66.459  0.00  0.00    -0.266 OA
ATOM     18  H5  non d ame      -8.816   3.001  66.655  0.00  0.00     0.163 HD
BRANCH  16  19
ATOM     19  C4  non d ame     -10.256   4.156  64.566  0.00  0.00     0.154 A 
ATOM     20  C1  non d ame      -9.237   4.433  63.600  0.00  0.00    -0.017 A 
ATOM     21  C2  non d ame      -9.732   3.902  62.387  0.00  0.00     0.077 A 
ATOM     22  H1  non d ame      -8.285   4.940  63.754  0.00  0.00     0.091 H 
ATOM     23  O1  non d ame     -10.898   3.383  62.639  0.00  0.00    -0.218 OA
ATOM     24  N1  non d ame     -11.225   3.519  63.904  0.00  0.00    -0.123 NA
BRANCH  21  25
ATOM     25  C3  non d ame      -9.029   3.932  61.037  0.00  0.00    -0.029 C 
ATOM     26  H2  non d ame      -8.311   4.752  61.018  0.00  0.00     0.036 H 
ATOM     27  H3  non d ame      -8.508   2.989  60.878  0.00  0.00     0.036 H 
ATOM     28  H4  non d ame      -9.766   4.077  60.246  0.00  0.00     0.036 H 
ENDBRANCH  21  25
ENDBRANCH  16  19
ENDBRANCH  13  15
BRANCH  13  29
ATOM     29  C8  non d ame      -9.344   2.862  69.240  0.00  0.00    -0.049 C 
ATOM     30  H7  non d ame     -10.347   2.444  69.323  0.00  0.00     0.030 H 
ATOM     31  H8  non d ame      -8.683   2.132  68.773  0.00  0.00     0.030 H 
ATOM     32  H9  non d ame      -8.971   3.108  70.234  0.00  0.00     0.030 H 
ENDBRANCH  13  29
ENDBRANCH  10  13
ENDBRANCH   7   9
BRANCH   7  33
ATOM     33  C11 non d ame      -4.701   5.280  67.465  0.00  0.00    -0.033 C 
ATOM     34  H12 non d ame      -3.889   6.004  67.404  0.00  0.00     0.042 H 
BRANCH  33  35
ATOM     35  C12 non d ame      -4.280   4.189  68.499  0.00  0.00    -0.071 C 
ATOM     36  H13 non d ame      -4.860   3.282  68.326  0.00  0.00     0.028 H 
ATOM     37  H14 non d ame      -3.219   3.969  68.383  0.00  0.00     0.028 H 
ATOM     38  H15 non d ame      -4.468   4.554  69.508  0.00  0.00     0.028 H 
ENDBRANCH  33  35
BRANCH  33  39
ATOM     39  C13 non d ame      -4.905   4.663  66.044  0.00  0.00    -0.071 C 
ATOM     40  H16 non d ame      -5.329   3.664  66.138  0.00  0.00     0.028 H 
ATOM     41  H17 non d ame      -5.585   5.293  65.469  0.00  0.00     0.028 H 
ATOM     42  H18 non d ame      -3.945   4.604  65.532  0.00  0.00     0.028 H 
ENDBRANCH  33  39
ENDBRANCH   7  33
ENDBRANCH   4   7
ENDBRANCH   1   3
BRANCH   1  43
ATOM     43  C15 non d ame      -8.368   9.567  65.968  0.00  0.00     0.240 C 
ATOM     44  O5  non d ame      -9.300   9.878  65.300  0.00  0.00    -0.271 OA
ATOM     45  N6  non d ame      -8.320   9.964  67.404  0.00  0.00    -0.355 N 
ATOM     46  H46 non d ame      -7.535   9.701  67.983  0.00  0.00     0.162 HD
BRANCH  45  47
ATOM     47  C20 non d ame      -9.430  10.749  67.985  0.00  0.00     0.013 C 
ATOM     48  H30 non d ame     -10.323  10.559  67.389  0.00  0.00     0.072 H 
BRANCH  47  49
ATOM     49  C21 non d ame      -9.081  12.219  67.937  0.00  0.00    -0.038 C 
ATOM     50  H31 non d ame      -9.184  12.580  68.961  0.00  0.00     0.036 H 
ATOM     51  H32 non d ame      -8.116  12.276  67.433  0.00  0.00     0.036 H 
BRANCH  49  52
ATOM     52  C22 non d ame     -10.069  13.042  67.082  0.00  0.00     0.018 C 
ATOM     53  H33 non d ame      -9.842  14.088  67.293  0.00  0.00     0.048 H 
ATOM     54  H34 non d ame      -9.972  12.658  66.067  0.00  0.00     0.048 H 
BRANCH  52  55
ATOM     55  C23 non d ame     -11.558  12.840  67.477  0.00  0.00     0.259 C 
ATOM     56  O7  non d ame     -12.338  12.413  66.688  0.00  0.00    -0.265 OA
BRANCH  55  57
ATOM     57  O8  non d ame     -11.984  13.181  68.790  0.00  0.00    -0.317 OA
BRANCH  57  58
ATOM     58  C29 non d ame     -11.886  14.577  69.089  0.00  0.00     0.052 C 
ATOM     59  H47 non d ame     -10.838  14.837  68.943  0.00  0.00     0.082 H 
ATOM     60  H48 non d ame     -12.657  15.061  68.490  0.00  0.00     0.082 H 
BRANCH  58  61
ATOM     61  C35 non d ame     -12.237  14.771  70.588  0.00  0.00    -0.034 A 
ATOM     62  C30 non d ame     -13.074  13.864  71.231  0.00  0.00    -0.075 A 
ATOM     63  C31 non d ame     -13.389  14.039  72.578  0.00  0.00    -0.082 A 
ATOM     64  H49 non d ame     -13.482  13.017  70.680  0.00  0.00     0.084 H 
ATOM     65  C32 non d ame     -12.865  15.127  73.282  0.00  0.00    -0.083 A 
ATOM     66  H50 non d ame     -14.043  13.325  73.080  0.00  0.00     0.083 H 
ATOM     67  C33 non d ame     -12.033  16.030  72.635  0.00  0.00    -0.082 A 
ATOM     68  H51 non d ame     -13.106  15.270  74.335  0.00  0.00     0.083 H 
ATOM     69  C34 non d ame     -11.714  15.859  71.290  0.00  0.00    -0.075 A 
ATOM     70  H52 non d ame     -11.629  16.880  73.187  0.00  0.00     0.083 H 
ATOM     71  H53 non d ame     -11.059  16.573  70.789  0.00  0.00     0.084 H 
ENDBRANCH  58  61
ENDBRANCH  57  58
ENDBRANCH  55  57
ENDBRANCH  52  55
ENDBRANCH  49  52
ENDBRANCH  47  49
BRANCH  47  72
ATOM     72  C24 non d ame      -9.659  10.326  69.434  0.00  0.00    -0.039 C 
ATOM     73  H35 non d ame      -8.864   9.614  69.658  0.00  0.00     0.036 H 
ATOM     74  H36 non d ame      -9.733  11.255  70.000  0.00  0.00     0.036 H 
BRANCH  72  75
ATOM     75  C25 non d ame     -11.050   9.551  69.613  0.00  0.00    -0.001 C 
ATOM     76  C26 non d ame     -11.903  10.212  70.854  0.00  0.00    -0.035 C 
ATOM     77  C27 non d ame     -12.283   9.222  71.698  0.00  0.00     0.085 C 
ATOM     78  H38 non d ame     -11.251  10.833  71.467  0.00  0.00     0.036 H 
ATOM     79  H39 non d ame     -12.849  10.611  70.487  0.00  0.00     0.036 H 
ATOM     80  N5  non d ame     -11.491   7.993  71.322  0.00  0.00    -0.049 N 
ATOM     81  H40 non d ame     -11.976   9.552  72.691  0.00  0.00     0.075 H 
ATOM     82  H41 non d ame     -13.336   9.045  71.483  0.00  0.00     0.075 H 
ATOM     83  C28 non d ame     -10.859   8.300  69.868  0.00  0.00     0.193 C 
ATOM     84  H42 non d ame     -10.738   7.922  71.991  0.00  0.00     0.280 HD
ATOM     85  H43 non d ame     -12.158   7.240  71.229  0.00  0.00     0.280 HD
ATOM     86  H44 non d ame     -11.285   7.848  68.973  0.00  0.00     0.129 H 
ATOM     87  H37 non d ame     -11.574   9.419  68.666  0.00  0.00     0.046 H 
BRANCH  83  88
ATOM     88  O6  non d ame      -9.473   7.952  69.850  0.00  0.00    -0.369 OA
ATOM     89  H45 non d ame      -9.384   7.001  69.754  0.00  0.00     0.212 HD
ENDBRANCH  83  88
ENDBRANCH  72  75
ENDBRANCH  47  72
ENDBRANCH  45  47
ENDBRANCH   1  43
BRANCH   1  90
ATOM     90  C16 non d ame      -7.525   8.439  63.885  0.00  0.00    -0.035 C 
ATOM     91  H21 non d ame      -7.228   7.401  63.733  0.00  0.00     0.037 H 
ATOM     92  H22 non d ame      -8.566   8.733  63.748  0.00  0.00     0.037 H 
BRANCH  90  93
ATOM     93  C17 non d ame      -6.690   9.288  62.875  0.00  0.00    -0.059 C 
ATOM     94  H23 non d ame      -6.498  10.257  63.336  0.00  0.00     0.038 H 
BRANCH  93  95
ATOM     95  C18 non d ame      -5.309   8.632  62.554  0.00  0.00    -0.073 C 
ATOM     96  H24 non d ame      -4.599   9.405  62.260  0.00  0.00     0.028 H 
ATOM     97  H25 non d ame      -4.938   8.115  63.439  0.00  0.00     0.028 H 
ATOM     98  H26 non d ame      -5.427   7.918  61.738  0.00  0.00     0.028 H 
ENDBRANCH  93  95
BRANCH  93  99
ATOM     99  C19 non d ame      -7.482   9.545  61.591  0.00  0.00    -0.073 C 
ATOM    100  H27 non d ame      -8.283  10.257  61.794  0.00  0.00     0.028 H 
ATOM    101  H28 non d ame      -6.817   9.954  60.829  0.00  0.00     0.028 H 
ATOM    102  H29 non d ame      -7.910   8.609  61.234  0.00  0.00     0.028 H 
ENDBRANCH  93  99
ENDBRANCH  90  93
ENDBRANCH   1  90
TORSDOF 26
ENDMDL
MODEL 15
REMARK VINA RESULT:      -6.1      2.528      7.483
REMARK  26 active torsions:
REMARK  status: ('A' for Active; 'I' for Inactive)
REMARK    1  A    between atoms: C2_2  and  C3_3 
REMARK    2  A    between atoms: C4_6  and  C5_7 
REMARK       I    between atoms: C5_7  and  N2_9 
REMARK    3  A    between atoms: N2_9  and  C6_10 
REMARK    4  A    between atoms: C6_10  and  C7_11 
REMARK    5  A    between atoms: C6_10  and  C8_13 
REMARK       I    between atoms: C7_11  and  N3_14 
REMARK    6  A    between atoms: N3_14  and  C9_15 
REMARK    7  A    between atoms: C9_15  and  C10_16 
REMARK    8  A    between atoms: C9_15  and  C11_18 
REMARK       I    between atoms: C10_16  and  N4_21 
REMARK    9  A    between atoms: C11_18  and  C12_19 
REMARK   10  A    between atoms: C11_18  and  C13_20 
REMARK   11  A    between atoms: N4_21  and  C14_22 
REMARK   12  A    between atoms: C14_22  and  C15_23 
REMARK   13  A    between atoms: C14_22  and  C16_25 
REMARK       I    between atoms: C15_23  and  N6_40 
REMARK   14  A    between atoms: C16_25  and  C17_26 
REMARK   15  A    between atoms: C17_26  and  C18_27 
REMARK   16  A    between atoms: C17_26  and  C19_28 
REMARK   17  A    between atoms: C20_29  and  C21_30 
REMARK   18  A    between atoms: C20_29  and  C24_33 
REMARK   19  A    between atoms: C20_29  and  N6_40 
REMARK   20  A    between atoms: C21_30  and  C22_31 
REMARK   21  A    between atoms: C22_31  and  C23_32 
REMARK   22  A    between atoms: C23_32  and  O8_43 
REMARK   23  A    between atoms: C24_33  and  C25_34 
REMARK   24  A    between atoms: C28_38  and  O6_39 
REMARK   25  A    between atoms: C29_42  and  O8_43 
REMARK   26  A    between atoms: C29_42  and  C35_49 
ROOT
ATOM      1  C14 non d ame      -9.972  12.149  65.603  0.00  0.00     0.089 C 
ATOM      2  H20 non d ame      -9.882  12.634  64.631  0.00  0.00     0.087 H 
ENDROOT
BRANCH   1   3
ATOM      3  N4  non d ame      -9.180  10.929  65.560  0.00  0.00    -0.346 N 
ATOM      4  C10 non d ame      -9.098  10.118  64.291  0.00  0.00     0.241 C 
ATOM      5  O4  non d ame      -9.683  10.465  63.318  0.00  0.00    -0.271 OA
ATOM      6  H19 non d ame      -8.692  10.649  66.399  0.00  0.00     0.163 HD
BRANCH   4   7
ATOM      7  C9  non d ame      -8.269   8.861  64.263  0.00  0.00     0.092 C 
ATOM      8  H11 non d ame      -7.271   9.081  64.643  0.00  0.00     0.088 H 
BRANCH   7   9
ATOM      9  N3  non d ame      -8.862   7.863  65.158  0.00  0.00    -0.346 N 
ATOM     10  C7  non d ame      -8.326   7.675  66.484  0.00  0.00     0.240 C 
ATOM     11  O3  non d ame      -7.416   8.317  66.846  0.00  0.00    -0.271 OA
ATOM     12  H10 non d ame      -9.646   7.300  64.859  0.00  0.00     0.163 HD
BRANCH  10  13
ATOM     13  C6  non d ame      -8.959   6.609  67.431  0.00  0.00     0.086 C 
ATOM     14  H6  non d ame      -8.226   5.907  67.827  0.00  0.00     0.086 H 
BRANCH  13  15
ATOM     15  N2  non d ame      -9.548   7.285  68.575  0.00  0.00    -0.343 N 
ATOM     16  C5  non d ame     -10.464   8.407  68.357  0.00  0.00     0.273 C 
ATOM     17  O2  non d ame     -10.719   8.759  67.258  0.00  0.00    -0.266 OA
ATOM     18  H5  non d ame      -9.322   6.979  69.511  0.00  0.00     0.163 HD
BRANCH  16  19
ATOM     19  C4  non d ame     -11.094   9.130  69.558  0.00  0.00     0.154 A 
ATOM     20  C1  non d ame     -11.686  10.433  69.569  0.00  0.00    -0.017 A 
ATOM     21  C2  non d ame     -12.111  10.627  70.902  0.00  0.00     0.077 A 
ATOM     22  H1  non d ame     -11.791  11.130  68.738  0.00  0.00     0.091 H 
ATOM     23  O1  non d ame     -11.797   9.555  71.569  0.00  0.00    -0.218 OA
ATOM     24  N1  non d ame     -11.203   8.667  70.806  0.00  0.00    -0.123 NA
BRANCH  21  25
ATOM     25  C3  non d ame     -12.810  11.863  71.455  0.00  0.00    -0.029 C 
ATOM     26  H2  non d ame     -13.825  11.914  71.061  0.00  0.00     0.036 H 
ATOM     27  H3  non d ame     -12.844  11.804  72.542  0.00  0.00     0.036 H 
ATOM     28  H4  non d ame     -12.259  12.756  71.156  0.00  0.00     0.036 H 
ENDBRANCH  21  25
ENDBRANCH  16  19
ENDBRANCH  13  15
BRANCH  13  29
ATOM     29  C8  non d ame     -10.019   5.837  66.686  0.00  0.00    -0.049 C 
ATOM     30  H7  non d ame     -10.579   6.517  66.043  0.00  0.00     0.030 H 
ATOM     31  H8  non d ame      -9.547   5.066  66.077  0.00  0.00     0.030 H 
ATOM     32  H9  non d ame     -10.698   5.372  67.400  0.00  0.00     0.030 H 
ENDBRANCH  13  29
ENDBRANCH  10  13
ENDBRANCH   7   9
BRANCH   7  33
ATOM     33  C11 non d ame      -8.232   8.296  62.813  0.00  0.00    -0.033 C 
ATOM     34  H12 non d ame      -9.201   8.499  62.356  0.00  0.00     0.042 H 
BRANCH  33  35
ATOM     35  C12 non d ame      -7.148   9.015  61.950  0.00  0.00    -0.071 C 
ATOM     36  H13 non d ame      -7.532   9.978  61.613  0.00  0.00     0.028 H 
ATOM     37  H14 non d ame      -6.252   9.171  62.550  0.00  0.00     0.028 H 
ATOM     38  H15 non d ame      -6.904   8.398  61.086  0.00  0.00     0.028 H 
ENDBRANCH  33  35
BRANCH  33  39
ATOM     39  C13 non d ame      -8.016   6.749  62.820  0.00  0.00    -0.071 C 
ATOM     40  H16 non d ame      -8.914   6.258  63.194  0.00  0.00     0.028 H 
ATOM     41  H17 non d ame      -7.810   6.406  61.806  0.00  0.00     0.028 H 
ATOM     42  H18 non d ame      -7.172   6.503  63.465  0.00  0.00     0.028 H 
ENDBRANCH  33  39
ENDBRANCH   7  33
ENDBRANCH   4   7
ENDBRANCH   1   3
BRANCH   1  43
ATOM     43  C15 non d ame      -9.440  13.045  66.758  0.00  0.00     0.240 C 
ATOM     44  O5  non d ame      -9.978  13.024  67.818  0.00  0.00    -0.271 OA
ATOM     45  N6  non d ame      -8.254  13.922  66.545  0.00  0.00    -0.355 N 
ATOM     46  H46 non d ame      -7.786  13.945  65.651  0.00  0.00     0.162 HD
BRANCH  45  47
ATOM     47  C20 non d ame      -7.760  14.767  67.653  0.00  0.00     0.013 C 
ATOM     48  H30 non d ame      -8.464  14.682  68.480  0.00  0.00     0.072 H 
BRANCH  47  49
ATOM     49  C21 non d ame      -7.679  16.204  67.189  0.00  0.00    -0.038 C 
ATOM     50  H31 non d ame      -7.833  16.811  68.081  0.00  0.00     0.036 H 
ATOM     51  H32 non d ame      -6.746  16.281  66.631  0.00  0.00     0.036 H 
BRANCH  49  52
ATOM     52  C22 non d ame      -8.809  16.580  66.206  0.00  0.00     0.018 C 
ATOM     53  H33 non d ame      -8.413  17.395  65.599  0.00  0.00     0.048 H 
ATOM     54  H34 non d ame      -9.111  15.646  65.732  0.00  0.00     0.048 H 
BRANCH  52  55
ATOM     55  C23 non d ame     -10.082  17.140  66.899  0.00  0.00     0.259 C 
ATOM     56  O7  non d ame     -10.834  16.410  67.459  0.00  0.00    -0.265 OA
BRANCH  55  57
ATOM     57  O8  non d ame     -10.347  18.536  66.845  0.00  0.00    -0.317 OA
BRANCH  57  58
ATOM     58  C29 non d ame     -10.107  19.222  68.077  0.00  0.00     0.052 C 
ATOM     59  H47 non d ame     -10.723  20.121  68.040  0.00  0.00     0.082 H 
ATOM     60  H48 non d ame     -10.268  18.484  68.862  0.00  0.00     0.082 H 
BRANCH  58  61
ATOM     61  C35 non d ame      -8.616  19.650  68.104  0.00  0.00    -0.034 A 
ATOM     62  C30 non d ame      -8.083  20.388  67.051  0.00  0.00    -0.075 A 
ATOM     63  C31 non d ame      -6.744  20.772  67.075  0.00  0.00    -0.082 A 
ATOM     64  H49 non d ame      -8.716  20.665  66.208  0.00  0.00     0.084 H 
ATOM     65  C32 non d ame      -5.934  20.414  68.156  0.00  0.00    -0.083 A 
ATOM     66  H50 non d ame      -6.330  21.352  66.250  0.00  0.00     0.083 H 
ATOM     67  C33 non d ame      -6.469  19.675  69.203  0.00  0.00    -0.082 A 
ATOM     68  H51 non d ame      -4.886  20.711  68.183  0.00  0.00     0.083 H 
ATOM     69  C34 non d ame      -7.808  19.291  69.184  0.00  0.00    -0.075 A 
ATOM     70  H52 non d ame      -5.834  19.396  70.044  0.00  0.00     0.083 H 
ATOM     71  H53 non d ame      -8.220  18.712  70.011  0.00  0.00     0.084 H 
ENDBRANCH  58  61
ENDBRANCH  57  58
ENDBRANCH  55  57
ENDBRANCH  52  55
ENDBRANCH  49  52
ENDBRANCH  47  49
BRANCH  47  72
ATOM     72  C24 non d ame      -6.374  14.293  68.086  0.00  0.00    -0.039 C 
ATOM     73  H35 non d ame      -5.818  14.139  67.161  0.00  0.00     0.036 H 
ATOM     74  H36 non d ame      -6.029  15.029  68.812  0.00  0.00     0.036 H 
BRANCH  72  75
ATOM     75  C25 non d ame      -6.439  12.880  68.839  0.00  0.00    -0.001 C 
ATOM     76  C26 non d ame      -5.598  12.959  70.250  0.00  0.00    -0.035 C 
ATOM     77  C27 non d ame      -4.729  11.920  70.298  0.00  0.00     0.085 C 
ATOM     78  H38 non d ame      -4.949  13.834  70.250  0.00  0.00     0.036 H 
ATOM     79  H39 non d ame      -6.263  12.773  71.093  0.00  0.00     0.036 H 
ATOM     80  N5  non d ame      -4.669  11.331  68.909  0.00  0.00    -0.049 N 
ATOM     81  H40 non d ame      -3.761  12.361  70.539  0.00  0.00     0.075 H 
ATOM     82  H41 non d ame      -5.180  11.194  70.973  0.00  0.00     0.075 H 
ATOM     83  C28 non d ame      -5.934  11.940  68.113  0.00  0.00     0.193 C 
ATOM     84  H42 non d ame      -3.822  11.683  68.485  0.00  0.00     0.280 HD
ATOM     85  H43 non d ame      -4.805  10.335  69.015  0.00  0.00     0.280 HD
ATOM     86  H44 non d ame      -6.820  11.331  67.933  0.00  0.00     0.129 H 
ATOM     87  H37 non d ame      -7.454  12.485  68.888  0.00  0.00     0.046 H 
BRANCH  83  88
ATOM     88  O6  non d ame      -5.527  12.411  66.827  0.00  0.00    -0.369 OA
ATOM     89  H45 non d ame      -6.012  13.211  66.611  0.00  0.00     0.212 HD
ENDBRANCH  83  88
ENDBRANCH  72  75
ENDBRANCH  47  72
ENDBRANCH  45  47
ENDBRANCH   1  43
BRANCH   1  90
ATOM     90  C16 non d ame     -11.426  11.787  65.865  0.00  0.00    -0.035 C 
ATOM     91  H21 non d ame     -11.531  10.754  65.531  0.00  0.00     0.037 H 
ATOM     92  H22 non d ame     -11.603  12.042  66.909  0.00  0.00     0.037 H 
BRANCH  90  93
ATOM     93  C17 non d ame     -12.441  12.627  65.026  0.00  0.00    -0.059 C 
ATOM     94  H23 non d ame     -13.381  12.076  64.997  0.00  0.00     0.038 H 
BRANCH  93  95
ATOM     95  C18 non d ame     -12.726  14.021  65.671  0.00  0.00    -0.073 C 
ATOM     96  H24 non d ame     -12.194  14.793  65.116  0.00  0.00     0.028 H 
ATOM     97  H25 non d ame     -13.797  14.224  65.639  0.00  0.00     0.028 H 
ATOM     98  H26 non d ame     -12.388  14.018  66.707  0.00  0.00     0.028 H 
ENDBRANCH  93  95
BRANCH  93  99
ATOM     99  C19 non d ame     -11.960  12.782  63.581  0.00  0.00    -0.073 C 
ATOM    100  H27 non d ame     -11.080  12.159  63.422  0.00  0.00     0.028 H 
ATOM    101  H28 non d ame     -12.753  12.474  62.899  0.00  0.00     0.028 H 
ATOM    102  H29 non d ame     -11.706  13.825  63.393  0.00  0.00     0.028 H 
ENDBRANCH  93  99
ENDBRANCH  90  93
ENDBRANCH   1  90
TORSDOF 26
ENDMDL
MODEL 16
REMARK VINA RESULT:      -6.1      4.256      9.506
REMARK  26 active torsions:
REMARK  status: ('A' for Active; 'I' for Inactive)
REMARK    1  A    between atoms: C2_2  and  C3_3 
REMARK    2  A    between atoms: C4_6  and  C5_7 
REMARK       I    between atoms: C5_7  and  N2_9 
REMARK    3  A    between atoms: N2_9  and  C6_10 
REMARK    4  A    between atoms: C6_10  and  C7_11 
REMARK    5  A    between atoms: C6_10  and  C8_13 
REMARK       I    between atoms: C7_11  and  N3_14 
REMARK    6  A    between atoms: N3_14  and  C9_15 
REMARK    7  A    between atoms: C9_15  and  C10_16 
REMARK    8  A    between atoms: C9_15  and  C11_18 
REMARK       I    between atoms: C10_16  and  N4_21 
REMARK    9  A    between atoms: C11_18  and  C12_19 
REMARK   10  A    between atoms: C11_18  and  C13_20 
REMARK   11  A    between atoms: N4_21  and  C14_22 
REMARK   12  A    between atoms: C14_22  and  C15_23 
REMARK   13  A    between atoms: C14_22  and  C16_25 
REMARK       I    between atoms: C15_23  and  N6_40 
REMARK   14  A    between atoms: C16_25  and  C17_26 
REMARK   15  A    between atoms: C17_26  and  C18_27 
REMARK   16  A    between atoms: C17_26  and  C19_28 
REMARK   17  A    between atoms: C20_29  and  C21_30 
REMARK   18  A    between atoms: C20_29  and  C24_33 
REMARK   19  A    between atoms: C20_29  and  N6_40 
REMARK   20  A    between atoms: C21_30  and  C22_31 
REMARK   21  A    between atoms: C22_31  and  C23_32 
REMARK   22  A    between atoms: C23_32  and  O8_43 
REMARK   23  A    between atoms: C24_33  and  C25_34 
REMARK   24  A    between atoms: C28_38  and  O6_39 
REMARK   25  A    between atoms: C29_42  and  O8_43 
REMARK   26  A    between atoms: C29_42  and  C35_49 
ROOT
ATOM      1  C14 non d ame      -9.698  10.485  66.974  0.00  0.00     0.089 C 
ATOM      2  H20 non d ame     -10.661  10.387  66.472  0.00  0.00     0.087 H 
ENDROOT
BRANCH   1   3
ATOM      3  N4  non d ame      -9.795   9.789  68.248  0.00  0.00    -0.346 N 
ATOM      4  C10 non d ame     -10.425   8.421  68.323  0.00  0.00     0.241 C 
ATOM      5  O4  non d ame     -10.851   7.902  67.344  0.00  0.00    -0.271 OA
ATOM      6  H19 non d ame      -9.429  10.249  69.070  0.00  0.00     0.163 HD
BRANCH   4   7
ATOM      7  C9  non d ame     -10.512   7.713  69.649  0.00  0.00     0.092 C 
ATOM      8  H11 non d ame      -9.757   8.119  70.323  0.00  0.00     0.088 H 
BRANCH   7   9
ATOM      9  N3  non d ame     -11.820   7.973  70.258  0.00  0.00    -0.346 N 
ATOM     10  C7  non d ame     -11.902   8.400  71.634  0.00  0.00     0.240 C 
ATOM     11  O3  non d ame     -10.926   8.537  72.265  0.00  0.00    -0.271 OA
ATOM     12  H10 non d ame     -12.671   7.858  69.727  0.00  0.00     0.163 HD
BRANCH  10  13
ATOM     13  C6  non d ame     -13.297   8.672  72.277  0.00  0.00     0.086 C 
ATOM     14  H6  non d ame     -13.437   8.145  73.221  0.00  0.00     0.086 H 
BRANCH  13  15
ATOM     15  N2  non d ame     -13.411  10.091  72.573  0.00  0.00    -0.343 N 
ATOM     16  C5  non d ame     -13.083  11.072  71.536  0.00  0.00     0.273 C 
ATOM     17  O2  non d ame     -12.726  10.710  70.469  0.00  0.00    -0.266 OA
ATOM     18  H5  non d ame     -13.715  10.391  73.488  0.00  0.00     0.163 HD
BRANCH  16  19
ATOM     19  C4  non d ame     -13.201  12.575  71.834  0.00  0.00     0.154 A 
ATOM     20  C1  non d ame     -12.337  13.618  71.372  0.00  0.00    -0.017 A 
ATOM     21  C2  non d ame     -12.873  14.804  71.921  0.00  0.00     0.077 A 
ATOM     22  H1  non d ame     -11.456  13.528  70.737  0.00  0.00     0.091 H 
ATOM     23  O1  non d ame     -13.923  14.470  72.613  0.00  0.00    -0.218 OA
ATOM     24  N1  non d ame     -14.134  13.175  72.578  0.00  0.00    -0.123 NA
BRANCH  21  25
ATOM     25  C3  non d ame     -12.325  16.212  71.734  0.00  0.00    -0.029 C 
ATOM     26  H2  non d ame     -12.191  16.413  70.671  0.00  0.00     0.036 H 
ATOM     27  H3  non d ame     -13.025  16.934  72.155  0.00  0.00     0.036 H 
ATOM     28  H4  non d ame     -11.365  16.299  72.244  0.00  0.00     0.036 H 
ENDBRANCH  21  25
ENDBRANCH  16  19
ENDBRANCH  13  15
BRANCH  13  29
ATOM     29  C8  non d ame     -14.385   8.255  71.321  0.00  0.00    -0.049 C 
ATOM     30  H7  non d ame     -13.939   7.937  70.379  0.00  0.00     0.030 H 
ATOM     31  H8  non d ame     -14.951   7.429  71.752  0.00  0.00     0.030 H 
ATOM     32  H9  non d ame     -15.052   9.097  71.139  0.00  0.00     0.030 H 
ENDBRANCH  13  29
ENDBRANCH  10  13
ENDBRANCH   7   9
BRANCH   7  33
ATOM     33  C11 non d ame     -10.340   6.181  69.431  0.00  0.00    -0.033 C 
ATOM     34  H12 non d ame     -10.924   5.907  68.553  0.00  0.00     0.042 H 
BRANCH  33  35
ATOM     35  C12 non d ame      -8.852   5.812  69.139  0.00  0.00    -0.071 C 
ATOM     36  H13 non d ame      -8.702   4.746  69.312  0.00  0.00     0.028 H 
ATOM     37  H14 non d ame      -8.617   6.048  68.102  0.00  0.00     0.028 H 
ATOM     38  H15 non d ame      -8.200   6.383  69.799  0.00  0.00     0.028 H 
ENDBRANCH  33  35
BRANCH  33  39
ATOM     39  C13 non d ame     -10.894   5.377  70.651  0.00  0.00    -0.071 C 
ATOM     40  H16 non d ame     -11.495   6.035  71.278  0.00  0.00     0.028 H 
ATOM     41  H17 non d ame     -11.512   4.553  70.293  0.00  0.00     0.028 H 
ATOM     42  H18 non d ame     -10.062   4.981  71.233  0.00  0.00     0.028 H 
ENDBRANCH  33  39
ENDBRANCH   7  33
ENDBRANCH   4   7
ENDBRANCH   1   3
BRANCH   1  43
ATOM     43  C15 non d ame      -8.539   9.853  66.151  0.00  0.00     0.240 C 
ATOM     44  O5  non d ame      -8.776   9.297  65.128  0.00  0.00    -0.271 OA
ATOM     45  N6  non d ame      -7.132   9.948  66.634  0.00  0.00    -0.355 N 
ATOM     46  H46 non d ame      -6.918  10.422  67.500  0.00  0.00     0.162 HD
BRANCH  45  47
ATOM     47  C20 non d ame      -6.042   9.343  65.840  0.00  0.00     0.013 C 
ATOM     48  H30 non d ame      -6.468   8.986  64.902  0.00  0.00     0.072 H 
BRANCH  47  49
ATOM     49  C21 non d ame      -5.445   8.186  66.609  0.00  0.00    -0.038 C 
ATOM     50  H31 non d ame      -4.370   8.241  66.438  0.00  0.00     0.036 H 
ATOM     51  H32 non d ame      -5.841   8.271  67.621  0.00  0.00     0.036 H 
BRANCH  49  52
ATOM     52  C22 non d ame      -5.902   6.811  66.075  0.00  0.00     0.018 C 
ATOM     53  H33 non d ame      -5.526   6.077  66.788  0.00  0.00     0.048 H 
ATOM     54  H34 non d ame      -6.975   6.904  65.902  0.00  0.00     0.048 H 
BRANCH  52  55
ATOM     55  C23 non d ame      -5.278   6.434  64.703  0.00  0.00     0.259 C 
ATOM     56  O7  non d ame      -4.167   6.759  64.435  0.00  0.00    -0.265 OA
BRANCH  55  57
ATOM     57  O8  non d ame      -6.055   5.703  63.761  0.00  0.00    -0.317 OA
BRANCH  57  58
ATOM     58  C29 non d ame      -7.254   6.368  63.355  0.00  0.00     0.052 C 
ATOM     59  H47 non d ame      -7.383   7.197  64.052  0.00  0.00     0.082 H 
ATOM     60  H48 non d ame      -7.135   6.566  62.290  0.00  0.00     0.082 H 
BRANCH  58  61
ATOM     61  C35 non d ame      -8.436   5.381  63.541  0.00  0.00    -0.034 A 
ATOM     62  C30 non d ame      -8.982   4.731  62.439  0.00  0.00    -0.075 A 
ATOM     63  C31 non d ame     -10.045   3.844  62.606  0.00  0.00    -0.082 A 
ATOM     64  H49 non d ame      -8.577   4.917  61.444  0.00  0.00     0.084 H 
ATOM     65  C32 non d ame     -10.563   3.610  63.883  0.00  0.00    -0.083 A 
ATOM     66  H50 non d ame     -10.468   3.335  61.741  0.00  0.00     0.083 H 
ATOM     67  C33 non d ame     -10.018   4.263  64.979  0.00  0.00    -0.082 A 
ATOM     68  H51 non d ame     -11.393   2.917  64.022  0.00  0.00     0.083 H 
ATOM     69  C34 non d ame      -8.954   5.149  64.817  0.00  0.00    -0.075 A 
ATOM     70  H52 non d ame     -10.426   4.080  65.974  0.00  0.00     0.083 H 
ATOM     71  H53 non d ame      -8.531   5.657  65.683  0.00  0.00     0.084 H 
ENDBRANCH  58  61
ENDBRANCH  57  58
ENDBRANCH  55  57
ENDBRANCH  52  55
ENDBRANCH  49  52
ENDBRANCH  47  49
BRANCH  47  72
ATOM     72  C24 non d ame      -4.960  10.386  65.567  0.00  0.00    -0.039 C 
ATOM     73  H35 non d ame      -5.323  11.307  66.026  0.00  0.00     0.036 H 
ATOM     74  H36 non d ame      -4.029   9.936  65.913  0.00  0.00     0.036 H 
BRANCH  72  75
ATOM     75  C25 non d ame      -4.794  10.673  64.000  0.00  0.00    -0.001 C 
ATOM     76  C26 non d ame      -6.048  10.004  63.173  0.00  0.00    -0.035 C 
ATOM     77  C27 non d ame      -5.551   9.247  62.165  0.00  0.00     0.085 C 
ATOM     78  H38 non d ame      -6.567   9.281  63.801  0.00  0.00     0.036 H 
ATOM     79  H39 non d ame      -6.611  10.780  62.654  0.00  0.00     0.036 H 
ATOM     80  N5  non d ame      -4.074   9.075  62.428  0.00  0.00    -0.049 N 
ATOM     81  H40 non d ame      -6.043   8.278  62.257  0.00  0.00     0.075 H 
ATOM     82  H41 non d ame      -5.683   9.842  61.262  0.00  0.00     0.075 H 
ATOM     83  C28 non d ame      -3.692  10.174  63.548  0.00  0.00     0.193 C 
ATOM     84  H42 non d ame      -3.960   8.155  62.828  0.00  0.00     0.280 HD
ATOM     85  H43 non d ame      -3.600   9.315  61.569  0.00  0.00     0.280 HD
ATOM     86  H44 non d ame      -3.161  11.085  63.271  0.00  0.00     0.129 H 
ATOM     87  H37 non d ame      -4.565  11.718  63.793  0.00  0.00     0.046 H 
BRANCH  83  88
ATOM     88  O6  non d ame      -2.909   9.573  64.581  0.00  0.00    -0.369 OA
ATOM     89  H45 non d ame      -3.479   9.057  65.155  0.00  0.00     0.212 HD
ENDBRANCH  83  88
ENDBRANCH  72  75
ENDBRANCH  47  72
ENDBRANCH  45  47
ENDBRANCH   1  43
BRANCH   1  90
ATOM     90  C16 non d ame      -9.399  11.953  67.232  0.00  0.00    -0.035 C 
ATOM     91  H21 non d ame      -9.492  12.082  68.311  0.00  0.00     0.037 H 
ATOM     92  H22 non d ame      -8.445  12.145  66.741  0.00  0.00     0.037 H 
BRANCH  90  93
ATOM     93  C17 non d ame     -10.433  12.927  66.582  0.00  0.00    -0.059 C 
ATOM     94  H23 non d ame      -9.925  13.459  65.777  0.00  0.00     0.038 H 
BRANCH  93  95
ATOM     95  C18 non d ame     -11.647  12.167  65.959  0.00  0.00    -0.073 C 
ATOM     96  H24 non d ame     -11.419  11.103  65.902  0.00  0.00     0.028 H 
ATOM     97  H25 non d ame     -12.529  12.316  66.584  0.00  0.00     0.028 H 
ATOM     98  H26 non d ame     -11.842  12.551  64.958  0.00  0.00     0.028 H 
ENDBRANCH  93  95
BRANCH  93  99
ATOM     99  C19 non d ame     -10.906  13.976  67.592  0.00  0.00    -0.073 C 
ATOM    100  H27 non d ame     -10.175  14.063  68.395  0.00  0.00     0.028 H 
ATOM    101  H28 non d ame     -11.014  14.939  67.091  0.00  0.00     0.028 H 
ATOM    102  H29 non d ame     -11.868  13.673  68.006  0.00  0.00     0.028 H 
ENDBRANCH  93  99
ENDBRANCH  90  93
ENDBRANCH   1  90
TORSDOF 26
ENDMDL
MODEL 17
REMARK VINA RESULT:      -6.0      2.993      7.235
REMARK  26 active torsions:
REMARK  status: ('A' for Active; 'I' for Inactive)
REMARK    1  A    between atoms: C2_2  and  C3_3 
REMARK    2  A    between atoms: C4_6  and  C5_7 
REMARK       I    between atoms: C5_7  and  N2_9 
REMARK    3  A    between atoms: N2_9  and  C6_10 
REMARK    4  A    between atoms: C6_10  and  C7_11 
REMARK    5  A    between atoms: C6_10  and  C8_13 
REMARK       I    between atoms: C7_11  and  N3_14 
REMARK    6  A    between atoms: N3_14  and  C9_15 
REMARK    7  A    between atoms: C9_15  and  C10_16 
REMARK    8  A    between atoms: C9_15  and  C11_18 
REMARK       I    between atoms: C10_16  and  N4_21 
REMARK    9  A    between atoms: C11_18  and  C12_19 
REMARK   10  A    between atoms: C11_18  and  C13_20 
REMARK   11  A    between atoms: N4_21  and  C14_22 
REMARK   12  A    between atoms: C14_22  and  C15_23 
REMARK   13  A    between atoms: C14_22  and  C16_25 
REMARK       I    between atoms: C15_23  and  N6_40 
REMARK   14  A    between atoms: C16_25  and  C17_26 
REMARK   15  A    between atoms: C17_26  and  C18_27 
REMARK   16  A    between atoms: C17_26  and  C19_28 
REMARK   17  A    between atoms: C20_29  and  C21_30 
REMARK   18  A    between atoms: C20_29  and  C24_33 
REMARK   19  A    between atoms: C20_29  and  N6_40 
REMARK   20  A    between atoms: C21_30  and  C22_31 
REMARK   21  A    between atoms: C22_31  and  C23_32 
REMARK   22  A    between atoms: C23_32  and  O8_43 
REMARK   23  A    between atoms: C24_33  and  C25_34 
REMARK   24  A    between atoms: C28_38  and  O6_39 
REMARK   25  A    between atoms: C29_42  and  O8_43 
REMARK   26  A    between atoms: C29_42  and  C35_49 
ROOT
ATOM      1  C14 non d ame      -6.523  12.061  69.163  0.00  0.00     0.089 C 
ATOM      2  H20 non d ame      -5.697  11.990  68.455  0.00  0.00     0.087 H 
ENDROOT
BRANCH   1   3
ATOM      3  N4  non d ame      -7.510  12.968  68.596  0.00  0.00    -0.346 N 
ATOM      4  C10 non d ame      -7.087  14.047  67.632  0.00  0.00     0.241 C 
ATOM      5  O4  non d ame      -5.946  14.169  67.330  0.00  0.00    -0.271 OA
ATOM      6  H19 non d ame      -8.476  12.849  68.868  0.00  0.00     0.163 HD
BRANCH   4   7
ATOM      7  C9  non d ame      -8.123  14.973  67.050  0.00  0.00     0.092 C 
ATOM      8  H11 non d ame      -8.039  14.967  65.963  0.00  0.00     0.088 H 
BRANCH   7   9
ATOM      9  N3  non d ame      -9.463  14.480  67.384  0.00  0.00    -0.346 N 
ATOM     10  C7  non d ame     -10.375  14.104  66.332  0.00  0.00     0.240 C 
ATOM     11  O3  non d ame     -10.048  14.193  65.212  0.00  0.00    -0.271 OA
ATOM     12  H10 non d ame      -9.759  14.399  68.346  0.00  0.00     0.163 HD
BRANCH  10  13
ATOM     13  C6  non d ame     -11.800  13.582  66.694  0.00  0.00     0.086 C 
ATOM     14  H6  non d ame     -11.843  12.497  66.781  0.00  0.00     0.086 H 
BRANCH  13  15
ATOM     15  N2  non d ame     -12.183  14.118  67.990  0.00  0.00    -0.343 N 
ATOM     16  C5  non d ame     -11.882  13.356  69.203  0.00  0.00     0.273 C 
ATOM     17  O2  non d ame     -11.334  12.311  69.126  0.00  0.00    -0.266 OA
ATOM     18  H5  non d ame     -12.654  15.010  68.046  0.00  0.00     0.163 HD
BRANCH  16  19
ATOM     19  C4  non d ame     -12.280  13.911  70.580  0.00  0.00     0.154 A 
ATOM     20  C1  non d ame     -11.834  15.129  71.183  0.00  0.00    -0.017 A 
ATOM     21  C2  non d ame     -12.487  15.176  72.434  0.00  0.00     0.077 A 
ATOM     22  H1  non d ame     -11.142  15.867  70.774  0.00  0.00     0.091 H 
ATOM     23  O1  non d ame     -13.221  14.106  72.529  0.00  0.00    -0.218 OA
ATOM     24  N1  non d ame     -13.116  13.352  71.459  0.00  0.00    -0.123 NA
BRANCH  21  25
ATOM     25  C3  non d ame     -12.357  16.277  73.479  0.00  0.00    -0.029 C 
ATOM     26  H2  non d ame     -12.382  17.250  72.987  0.00  0.00     0.036 H 
ATOM     27  H3  non d ame     -13.183  16.206  74.186  0.00  0.00     0.036 H 
ATOM     28  H4  non d ame     -11.412  16.164  74.011  0.00  0.00     0.036 H 
ENDBRANCH  21  25
ENDBRANCH  16  19
ENDBRANCH  13  15
BRANCH  13  29
ATOM     29  C8  non d ame     -12.783  14.026  65.641  0.00  0.00    -0.049 C 
ATOM     30  H7  non d ame     -13.702  14.363  66.120  0.00  0.00     0.030 H 
ATOM     31  H8  non d ame     -12.353  14.845  65.064  0.00  0.00     0.030 H 
ATOM     32  H9  non d ame     -13.005  13.191  64.977  0.00  0.00     0.030 H 
ENDBRANCH  13  29
ENDBRANCH  10  13
ENDBRANCH   7   9
BRANCH   7  33
ATOM     33  C11 non d ame      -7.936  16.400  67.644  0.00  0.00    -0.033 C 
ATOM     34  H12 non d ame      -6.992  16.792  67.266  0.00  0.00     0.042 H 
BRANCH  33  35
ATOM     35  C12 non d ame      -9.067  17.365  67.172  0.00  0.00    -0.071 C 
ATOM     36  H13 non d ame      -8.883  17.664  66.140  0.00  0.00     0.028 H 
ATOM     37  H14 non d ame     -10.029  16.856  67.236  0.00  0.00     0.028 H 
ATOM     38  H15 non d ame      -9.080  18.249  67.810  0.00  0.00     0.028 H 
ENDBRANCH  33  35
BRANCH  33  39
ATOM     39  C13 non d ame      -7.848  16.350  69.203  0.00  0.00    -0.071 C 
ATOM     40  H16 non d ame      -7.259  17.194  69.561  0.00  0.00     0.028 H 
ATOM     41  H17 non d ame      -8.851  16.401  69.626  0.00  0.00     0.028 H 
ATOM     42  H18 non d ame      -7.371  15.419  69.510  0.00  0.00     0.028 H 
ENDBRANCH  33  39
ENDBRANCH   7  33
ENDBRANCH   4   7
ENDBRANCH   1   3
BRANCH   1  43
ATOM     43  C15 non d ame      -7.201  10.684  69.415  0.00  0.00     0.240 C 
ATOM     44  O5  non d ame      -6.533   9.730  69.651  0.00  0.00    -0.271 OA
ATOM     45  N6  non d ame      -8.686  10.557  69.371  0.00  0.00    -0.355 N 
ATOM     46  H46 non d ame      -9.264  11.361  69.177  0.00  0.00     0.162 HD
BRANCH  45  47
ATOM     47  C20 non d ame      -9.316   9.241  69.615  0.00  0.00     0.013 C 
ATOM     48  H30 non d ame      -8.527   8.490  69.634  0.00  0.00     0.072 H 
BRANCH  47  49
ATOM     49  C21 non d ame     -10.289   8.939  68.498  0.00  0.00    -0.038 C 
ATOM     50  H31 non d ame     -11.216   8.638  68.987  0.00  0.00     0.036 H 
ATOM     51  H32 non d ame     -10.275   9.816  67.850  0.00  0.00     0.036 H 
BRANCH  49  52
ATOM     52  C22 non d ame      -9.848   7.744  67.625  0.00  0.00     0.018 C 
ATOM     53  H33 non d ame      -9.706   6.912  68.314  0.00  0.00     0.048 H 
ATOM     54  H34 non d ame     -10.589   7.672  66.828  0.00  0.00     0.048 H 
BRANCH  52  55
ATOM     55  C23 non d ame      -8.480   7.955  66.920  0.00  0.00     0.259 C 
ATOM     56  O7  non d ame      -7.533   7.311  67.236  0.00  0.00    -0.265 OA
BRANCH  55  57
ATOM     57  O8  non d ame      -8.367   8.939  65.898  0.00  0.00    -0.317 OA
BRANCH  57  58
ATOM     58  C29 non d ame      -8.381   8.404  64.571  0.00  0.00     0.052 C 
ATOM     59  H47 non d ame      -8.541   7.332  64.687  0.00  0.00     0.082 H 
ATOM     60  H48 non d ame      -9.102   9.006  64.018  0.00  0.00     0.082 H 
BRANCH  58  61
ATOM     61  C35 non d ame      -6.976   8.626  63.950  0.00  0.00    -0.034 A 
ATOM     62  C30 non d ame      -6.422   9.902  63.920  0.00  0.00    -0.075 A 
ATOM     63  C31 non d ame      -5.160  10.102  63.362  0.00  0.00    -0.082 A 
ATOM     64  H49 non d ame      -6.975  10.744  64.334  0.00  0.00     0.084 H 
ATOM     65  C32 non d ame      -4.453   9.020  62.829  0.00  0.00    -0.083 A 
ATOM     66  H50 non d ame      -4.727  11.102  63.342  0.00  0.00     0.083 H 
ATOM     67  C33 non d ame      -5.012   7.750  62.859  0.00  0.00    -0.082 A 
ATOM     68  H51 non d ame      -3.466   9.168  62.392  0.00  0.00     0.083 H 
ATOM     69  C34 non d ame      -6.272   7.545  63.418  0.00  0.00    -0.075 A 
ATOM     70  H52 non d ame      -4.459   6.908  62.441  0.00  0.00     0.083 H 
ATOM     71  H53 non d ame      -6.703   6.544  63.438  0.00  0.00     0.084 H 
ENDBRANCH  58  61
ENDBRANCH  57  58
ENDBRANCH  55  57
ENDBRANCH  52  55
ENDBRANCH  49  52
ENDBRANCH  47  49
BRANCH  47  72
ATOM     72  C24 non d ame     -10.061   9.264  70.948  0.00  0.00    -0.039 C 
ATOM     73  H35 non d ame      -9.543   8.543  71.581  0.00  0.00     0.036 H 
ATOM     74  H36 non d ame     -10.103  10.313  71.239  0.00  0.00     0.036 H 
BRANCH  72  75
ATOM     75  C25 non d ame     -11.572   8.756  70.791  0.00  0.00    -0.001 C 
ATOM     76  C26 non d ame     -12.611   9.920  71.309  0.00  0.00    -0.035 C 
ATOM     77  C27 non d ame     -13.475   9.371  72.196  0.00  0.00     0.085 C 
ATOM     78  H38 non d ame     -12.075  10.663  71.900  0.00  0.00     0.036 H 
ATOM     79  H39 non d ame     -13.255  10.238  70.489  0.00  0.00     0.036 H 
ATOM     80  N5  non d ame     -12.917   8.021  72.578  0.00  0.00    -0.049 N 
ATOM     81  H40 non d ame     -13.451  10.025  73.069  0.00  0.00     0.075 H 
ATOM     82  H41 non d ame     -14.405   9.229  71.647  0.00  0.00     0.075 H 
ATOM     83  C28 non d ame     -11.779   7.685  71.483  0.00  0.00     0.193 C 
ATOM     84  H42 non d ame     -12.473   8.139  73.478  0.00  0.00     0.280 HD
ATOM     85  H43 non d ame     -13.672   7.359  72.471  0.00  0.00     0.280 HD
ATOM     86  H44 non d ame     -11.973   6.968  70.686  0.00  0.00     0.129 H 
ATOM     87  H37 non d ame     -11.762   8.322  69.809  0.00  0.00     0.046 H 
BRANCH  83  88
ATOM     88  O6  non d ame     -10.592   7.224  72.131  0.00  0.00    -0.369 OA
ATOM     89  H45 non d ame      -9.829   7.668  71.755  0.00  0.00     0.212 HD
ENDBRANCH  83  88
ENDBRANCH  72  75
ENDBRANCH  47  72
ENDBRANCH  45  47
ENDBRANCH   1  43
BRANCH   1  90
ATOM     90  C16 non d ame      -6.023  12.633  70.480  0.00  0.00    -0.035 C 
ATOM     91  H21 non d ame      -6.572  13.565  70.617  0.00  0.00     0.037 H 
ATOM     92  H22 non d ame      -6.130  11.826  71.205  0.00  0.00     0.037 H 
BRANCH  90  93
ATOM     93  C17 non d ame      -4.508  13.013  70.464  0.00  0.00    -0.059 C 
ATOM     94  H23 non d ame      -4.073  12.680  71.406  0.00  0.00     0.038 H 
BRANCH  93  95
ATOM     95  C18 non d ame      -3.735  12.303  69.306  0.00  0.00    -0.073 C 
ATOM     96  H24 non d ame      -2.739  12.735  69.216  0.00  0.00     0.028 H 
ATOM     97  H25 non d ame      -3.651  11.238  69.524  0.00  0.00     0.028 H 
ATOM     98  H26 non d ame      -4.277  12.440  68.370  0.00  0.00     0.028 H 
ENDBRANCH  93  95
BRANCH  93  99
ATOM     99  C19 non d ame      -4.325  14.531  70.390  0.00  0.00    -0.073 C 
ATOM    100  H27 non d ame      -3.439  14.762  69.799  0.00  0.00     0.028 H 
ATOM    101  H28 non d ame      -5.202  14.980  69.923  0.00  0.00     0.028 H 
ATOM    102  H29 non d ame      -4.205  14.932  71.396  0.00  0.00     0.028 H 
ENDBRANCH  93  99
ENDBRANCH  90  93
ENDBRANCH   1  90
TORSDOF 26
ENDMDL
MODEL 18
REMARK VINA RESULT:      -6.0      3.748      9.145
REMARK  26 active torsions:
REMARK  status: ('A' for Active; 'I' for Inactive)
REMARK    1  A    between atoms: C2_2  and  C3_3 
REMARK    2  A    between atoms: C4_6  and  C5_7 
REMARK       I    between atoms: C5_7  and  N2_9 
REMARK    3  A    between atoms: N2_9  and  C6_10 
REMARK    4  A    between atoms: C6_10  and  C7_11 
REMARK    5  A    between atoms: C6_10  and  C8_13 
REMARK       I    between atoms: C7_11  and  N3_14 
REMARK    6  A    between atoms: N3_14  and  C9_15 
REMARK    7  A    between atoms: C9_15  and  C10_16 
REMARK    8  A    between atoms: C9_15  and  C11_18 
REMARK       I    between atoms: C10_16  and  N4_21 
REMARK    9  A    between atoms: C11_18  and  C12_19 
REMARK   10  A    between atoms: C11_18  and  C13_20 
REMARK   11  A    between atoms: N4_21  and  C14_22 
REMARK   12  A    between atoms: C14_22  and  C15_23 
REMARK   13  A    between atoms: C14_22  and  C16_25 
REMARK       I    between atoms: C15_23  and  N6_40 
REMARK   14  A    between atoms: C16_25  and  C17_26 
REMARK   15  A    between atoms: C17_26  and  C18_27 
REMARK   16  A    between atoms: C17_26  and  C19_28 
REMARK   17  A    between atoms: C20_29  and  C21_30 
REMARK   18  A    between atoms: C20_29  and  C24_33 
REMARK   19  A    between atoms: C20_29  and  N6_40 
REMARK   20  A    between atoms: C21_30  and  C22_31 
REMARK   21  A    between atoms: C22_31  and  C23_32 
REMARK   22  A    between atoms: C23_32  and  O8_43 
REMARK   23  A    between atoms: C24_33  and  C25_34 
REMARK   24  A    between atoms: C28_38  and  O6_39 
REMARK   25  A    between atoms: C29_42  and  O8_43 
REMARK   26  A    between atoms: C29_42  and  C35_49 
ROOT
ATOM      1  C14 non d ame      -8.578   9.135  64.757  0.00  0.00     0.089 C 
ATOM      2  H20 non d ame      -7.522   9.187  65.024  0.00  0.00     0.087 H 
ENDROOT
BRANCH   1   3
ATOM      3  N4  non d ame      -8.981   7.738  64.836  0.00  0.00    -0.346 N 
ATOM      4  C10 non d ame      -7.961   6.667  65.132  0.00  0.00     0.241 C 
ATOM      5  O4  non d ame      -6.822   6.953  65.300  0.00  0.00    -0.271 OA
ATOM      6  H19 non d ame      -9.955   7.516  64.688  0.00  0.00     0.163 HD
BRANCH   4   7
ATOM      7  C9  non d ame      -8.397   5.228  65.215  0.00  0.00     0.092 C 
ATOM      8  H11 non d ame      -7.535   4.582  65.048  0.00  0.00     0.088 H 
BRANCH   7   9
ATOM      9  N3  non d ame      -8.895   4.945  66.565  0.00  0.00    -0.346 N 
ATOM     10  C7  non d ame      -8.112   4.135  67.466  0.00  0.00     0.240 C 
ATOM     11  O3  non d ame      -7.081   3.702  67.121  0.00  0.00    -0.271 OA
ATOM     12  H10 non d ame      -9.783   5.310  66.876  0.00  0.00     0.163 HD
BRANCH  10  13
ATOM     13  C6  non d ame      -8.648   3.835  68.900  0.00  0.00     0.086 C 
ATOM     14  H6  non d ame      -7.859   3.822  69.651  0.00  0.00     0.086 H 
BRANCH  13  15
ATOM     15  N2  non d ame      -9.573   4.887  69.288  0.00  0.00    -0.343 N 
ATOM     16  C5  non d ame      -9.593   5.355  70.675  0.00  0.00     0.273 C 
ATOM     17  O2  non d ame      -8.864   4.876  71.473  0.00  0.00    -0.266 OA
ATOM     18  H5  non d ame     -10.195   5.289  68.600  0.00  0.00     0.163 HD
BRANCH  16  19
ATOM     19  C4  non d ame     -10.565   6.468  71.098  0.00  0.00     0.154 A 
ATOM     20  C1  non d ame     -11.978   6.511  70.881  0.00  0.00    -0.017 A 
ATOM     21  C2  non d ame     -12.398   7.732  71.455  0.00  0.00     0.077 A 
ATOM     22  H1  non d ame     -12.604   5.770  70.382  0.00  0.00     0.091 H 
ATOM     23  O1  non d ame     -11.341   8.313  71.944  0.00  0.00    -0.218 OA
ATOM     24  N1  non d ame     -10.260   7.595  71.748  0.00  0.00    -0.123 NA
BRANCH  21  25
ATOM     25  C3  non d ame     -13.823   8.267  71.495  0.00  0.00    -0.029 C 
ATOM     26  H2  non d ame     -14.525   7.432  71.507  0.00  0.00     0.036 H 
ATOM     27  H3  non d ame     -13.960   8.869  72.393  0.00  0.00     0.036 H 
ATOM     28  H4  non d ame     -14.006   8.882  70.614  0.00  0.00     0.036 H 
ENDBRANCH  21  25
ENDBRANCH  16  19
ENDBRANCH  13  15
BRANCH  13  29
ATOM     29  C8  non d ame      -9.351   2.501  68.908  0.00  0.00    -0.049 C 
ATOM     30  H7  non d ame     -10.291   2.582  68.362  0.00  0.00     0.030 H 
ATOM     31  H8  non d ame      -8.717   1.753  68.432  0.00  0.00     0.030 H 
ATOM     32  H9  non d ame      -9.554   2.204  69.937  0.00  0.00     0.030 H 
ENDBRANCH  13  29
ENDBRANCH  10  13
ENDBRANCH   7   9
BRANCH   7  33
ATOM     33  C11 non d ame      -9.532   4.969  64.182  0.00  0.00    -0.033 C 
ATOM     34  H12 non d ame     -10.119   5.884  64.102  0.00  0.00     0.042 H 
BRANCH  33  35
ATOM     35  C12 non d ame      -8.953   4.658  62.767  0.00  0.00    -0.071 C 
ATOM     36  H13 non d ame      -9.386   5.343  62.038  0.00  0.00     0.028 H 
ATOM     37  H14 non d ame      -7.870   4.782  62.782  0.00  0.00     0.028 H 
ATOM     38  H15 non d ame      -9.198   3.632  62.491  0.00  0.00     0.028 H 
ENDBRANCH  33  35
BRANCH  33  39
ATOM     39  C13 non d ame     -10.482   3.827  64.668  0.00  0.00    -0.071 C 
ATOM     40  H16 non d ame     -10.985   4.138  65.583  0.00  0.00     0.028 H 
ATOM     41  H17 non d ame     -11.225   3.619  63.898  0.00  0.00     0.028 H 
ATOM     42  H18 non d ame      -9.898   2.927  64.863  0.00  0.00     0.028 H 
ENDBRANCH  33  39
ENDBRANCH   7  33
ENDBRANCH   4   7
ENDBRANCH   1   3
BRANCH   1  43
ATOM     43  C15 non d ame      -9.470   9.963  65.725  0.00  0.00     0.240 C 
ATOM     44  O5  non d ame     -10.485   9.500  66.135  0.00  0.00    -0.271 OA
ATOM     45  N6  non d ame      -9.055  11.331  66.147  0.00  0.00    -0.355 N 
ATOM     46  H46 non d ame      -8.193  11.733  65.809  0.00  0.00     0.162 HD
BRANCH  45  47
ATOM     47  C20 non d ame      -9.914  12.106  67.069  0.00  0.00     0.013 C 
ATOM     48  H30 non d ame      -9.342  12.964  67.420  0.00  0.00     0.072 H 
BRANCH  47  49
ATOM     49  C21 non d ame     -10.306  11.232  68.239  0.00  0.00    -0.038 C 
ATOM     50  H31 non d ame     -10.209  10.205  67.886  0.00  0.00     0.036 H 
ATOM     51  H32 non d ame      -9.705  11.580  69.080  0.00  0.00     0.036 H 
BRANCH  49  52
ATOM     52  C22 non d ame     -11.782  11.413  68.654  0.00  0.00     0.018 C 
ATOM     53  H33 non d ame     -12.189  12.166  67.978  0.00  0.00     0.048 H 
ATOM     54  H34 non d ame     -12.209  10.410  68.673  0.00  0.00     0.048 H 
BRANCH  52  55
ATOM     55  C23 non d ame     -11.964  11.983  70.089  0.00  0.00     0.259 C 
ATOM     56  O7  non d ame     -12.360  11.288  70.968  0.00  0.00    -0.265 OA
BRANCH  55  57
ATOM     57  O8  non d ame     -11.665  13.351  70.338  0.00  0.00    -0.317 OA
BRANCH  57  58
ATOM     58  C29 non d ame     -12.166  14.248  69.343  0.00  0.00     0.052 C 
ATOM     59  H47 non d ame     -12.349  13.636  68.460  0.00  0.00     0.082 H 
ATOM     60  H48 non d ame     -12.990  14.782  69.816  0.00  0.00     0.082 H 
BRANCH  58  61
ATOM     61  C35 non d ame     -11.046  15.269  69.011  0.00  0.00    -0.034 A 
ATOM     62  C30 non d ame     -11.375  16.526  68.513  0.00  0.00    -0.075 A 
ATOM     63  C31 non d ame     -10.369  17.443  68.213  0.00  0.00    -0.082 A 
ATOM     64  H49 non d ame     -12.420  16.792  68.357  0.00  0.00     0.084 H 
ATOM     65  C32 non d ame      -9.029  17.099  68.412  0.00  0.00    -0.083 A 
ATOM     66  H50 non d ame     -10.629  18.428  67.826  0.00  0.00     0.083 H 
ATOM     67  C33 non d ame      -8.706  15.842  68.906  0.00  0.00    -0.082 A 
ATOM     68  H51 non d ame      -8.236  17.810  68.181  0.00  0.00     0.083 H 
ATOM     69  C34 non d ame      -9.708  14.923  69.208  0.00  0.00    -0.075 A 
ATOM     70  H52 non d ame      -7.659  15.576  69.057  0.00  0.00     0.083 H 
ATOM     71  H53 non d ame      -9.446  13.938  69.597  0.00  0.00     0.084 H 
ENDBRANCH  58  61
ENDBRANCH  57  58
ENDBRANCH  55  57
ENDBRANCH  52  55
ENDBRANCH  49  52
ENDBRANCH  47  49
BRANCH  47  72
ATOM     72  C24 non d ame     -11.171  12.570  66.336  0.00  0.00    -0.039 C 
ATOM     73  H35 non d ame     -11.676  11.657  66.018  0.00  0.00     0.036 H 
ATOM     74  H36 non d ame     -11.669  13.257  67.020  0.00  0.00     0.036 H 
BRANCH  72  75
ATOM     75  C25 non d ame     -10.814  13.398  65.012  0.00  0.00    -0.001 C 
ATOM     76  C26 non d ame     -10.479  14.960  65.401  0.00  0.00    -0.035 C 
ATOM     77  C27 non d ame     -11.225  15.775  64.617  0.00  0.00     0.085 C 
ATOM     78  H38 non d ame     -10.835  15.179  66.408  0.00  0.00     0.036 H 
ATOM     79  H39 non d ame      -9.455  15.205  65.120  0.00  0.00     0.036 H 
ATOM     80  N5  non d ame     -12.275  14.913  63.958  0.00  0.00    -0.049 N 
ATOM     81  H40 non d ame     -11.714  16.470  65.301  0.00  0.00     0.075 H 
ATOM     82  H41 non d ame     -10.544  16.149  63.854  0.00  0.00     0.075 H 
ATOM     83  C28 non d ame     -11.796  13.386  64.174  0.00  0.00     0.193 C 
ATOM     84  H42 non d ame     -13.130  15.057  64.476  0.00  0.00     0.280 HD
ATOM     85  H43 non d ame     -12.241  15.124  62.971  0.00  0.00     0.280 HD
ATOM     86  H44 non d ame     -11.349  12.825  63.353  0.00  0.00     0.129 H 
ATOM     87  H37 non d ame     -10.091  12.878  64.383  0.00  0.00     0.046 H 
BRANCH  83  88
ATOM     88  O6  non d ame     -12.887  12.587  64.633  0.00  0.00    -0.369 OA
ATOM     89  H45 non d ame     -12.583  11.690  64.791  0.00  0.00     0.212 HD
ENDBRANCH  83  88
ENDBRANCH  72  75
ENDBRANCH  47  72
ENDBRANCH  45  47
ENDBRANCH   1  43
BRANCH   1  90
ATOM     90  C16 non d ame      -8.773   9.628  63.332  0.00  0.00    -0.035 C 
ATOM     91  H21 non d ame      -9.061   8.746  62.759  0.00  0.00     0.037 H 
ATOM     92  H22 non d ame      -9.457  10.473  63.411  0.00  0.00     0.037 H 
BRANCH  90  93
ATOM     93  C17 non d ame      -7.467  10.175  62.674  0.00  0.00    -0.059 C 
ATOM     94  H23 non d ame      -7.039  10.913  63.353  0.00  0.00     0.038 H 
BRANCH  93  95
ATOM     95  C18 non d ame      -6.402   9.053  62.455  0.00  0.00    -0.073 C 
ATOM     96  H24 non d ame      -6.488   8.664  61.441  0.00  0.00     0.028 H 
ATOM     97  H25 non d ame      -5.404   9.466  62.603  0.00  0.00     0.028 H 
ATOM     98  H26 non d ame      -6.572   8.248  63.170  0.00  0.00     0.028 H 
ENDBRANCH  93  95
BRANCH  93  99
ATOM     99  C19 non d ame      -7.778  10.895  61.359  0.00  0.00    -0.073 C 
ATOM    100  H27 non d ame      -6.849  11.096  60.826  0.00  0.00     0.028 H 
ATOM    101  H28 non d ame      -8.421  10.265  60.743  0.00  0.00     0.028 H 
ATOM    102  H29 non d ame      -8.287  11.835  61.570  0.00  0.00     0.028 H 
ENDBRANCH  93  99
ENDBRANCH  90  93
ENDBRANCH   1  90
TORSDOF 26
ENDMDL
MODEL 19
REMARK VINA RESULT:      -5.9      3.750      8.360
REMARK  26 active torsions:
REMARK  status: ('A' for Active; 'I' for Inactive)
REMARK    1  A    between atoms: C2_2  and  C3_3 
REMARK    2  A    between atoms: C4_6  and  C5_7 
REMARK       I    between atoms: C5_7  and  N2_9 
REMARK    3  A    between atoms: N2_9  and  C6_10 
REMARK    4  A    between atoms: C6_10  and  C7_11 
REMARK    5  A    between atoms: C6_10  and  C8_13 
REMARK       I    between atoms: C7_11  and  N3_14 
REMARK    6  A    between atoms: N3_14  and  C9_15 
REMARK    7  A    between atoms: C9_15  and  C10_16 
REMARK    8  A    between atoms: C9_15  and  C11_18 
REMARK       I    between atoms: C10_16  and  N4_21 
REMARK    9  A    between atoms: C11_18  and  C12_19 
REMARK   10  A    between atoms: C11_18  and  C13_20 
REMARK   11  A    between atoms: N4_21  and  C14_22 
REMARK   12  A    between atoms: C14_22  and  C15_23 
REMARK   13  A    between atoms: C14_22  and  C16_25 
REMARK       I    between atoms: C15_23  and  N6_40 
REMARK   14  A    between atoms: C16_25  and  C17_26 
REMARK   15  A    between atoms: C17_26  and  C18_27 
REMARK   16  A    between atoms: C17_26  and  C19_28 
REMARK   17  A    between atoms: C20_29  and  C21_30 
REMARK   18  A    between atoms: C20_29  and  C24_33 
REMARK   19  A    between atoms: C20_29  and  N6_40 
REMARK   20  A    between atoms: C21_30  and  C22_31 
REMARK   21  A    between atoms: C22_31  and  C23_32 
REMARK   22  A    between atoms: C23_32  and  O8_43 
REMARK   23  A    between atoms: C24_33  and  C25_34 
REMARK   24  A    between atoms: C28_38  and  O6_39 
REMARK   25  A    between atoms: C29_42  and  O8_43 
REMARK   26  A    between atoms: C29_42  and  C35_49 
ROOT
ATOM      1  C14 non d ame      -7.742   9.520  68.086  0.00  0.00     0.089 C 
ATOM      2  H20 non d ame      -6.694   9.546  67.788  0.00  0.00     0.087 H 
ENDROOT
BRANCH   1   3
ATOM      3  N4  non d ame      -8.535   9.315  66.882  0.00  0.00    -0.346 N 
ATOM      4  C10 non d ame      -8.136   9.974  65.586  0.00  0.00     0.241 C 
ATOM      5  O4  non d ame      -7.173  10.667  65.537  0.00  0.00    -0.271 OA
ATOM      6  H19 non d ame      -9.351   8.723  66.946  0.00  0.00     0.163 HD
BRANCH   4   7
ATOM      7  C9  non d ame      -8.964   9.746  64.349  0.00  0.00     0.092 C 
ATOM      8  H11 non d ame      -9.661   8.928  64.530  0.00  0.00     0.088 H 
BRANCH   7   9
ATOM      9  N3  non d ame      -9.764  10.943  64.070  0.00  0.00    -0.346 N 
ATOM     10  C7  non d ame     -10.725  11.409  65.039  0.00  0.00     0.240 C 
ATOM     11  O3  non d ame     -10.868  10.834  66.048  0.00  0.00    -0.271 OA
ATOM     12  H10 non d ame      -9.653  11.448  63.203  0.00  0.00     0.163 HD
BRANCH  10  13
ATOM     13  C6  non d ame     -11.576  12.682  64.735  0.00  0.00     0.086 C 
ATOM     14  H6  non d ame     -12.427  12.790  65.406  0.00  0.00     0.086 H 
BRANCH  13  15
ATOM     15  N2  non d ame     -10.745  13.860  64.922  0.00  0.00    -0.343 N 
ATOM     16  C5  non d ame     -11.012  14.759  66.047  0.00  0.00     0.273 C 
ATOM     17  O2  non d ame     -11.899  14.527  66.794  0.00  0.00    -0.266 OA
ATOM     18  H5  non d ame      -9.992  14.052  64.278  0.00  0.00     0.163 HD
BRANCH  16  19
ATOM     19  C4  non d ame     -10.142  16.007  66.258  0.00  0.00     0.154 A 
ATOM     20  C1  non d ame     -10.468  17.169  67.028  0.00  0.00    -0.017 A 
ATOM     21  C2  non d ame      -9.344  18.015  66.903  0.00  0.00     0.077 A 
ATOM     22  H1  non d ame     -11.380  17.367  67.591  0.00  0.00     0.091 H 
ATOM     23  O1  non d ame      -8.479  17.402  66.149  0.00  0.00    -0.218 OA
ATOM     24  N1  non d ame      -8.922  16.229  65.760  0.00  0.00    -0.123 NA
BRANCH  21  25
ATOM     25  C3  non d ame      -9.176  19.391  67.535  0.00  0.00    -0.029 C 
ATOM     26  H2  non d ame      -9.717  20.131  66.944  0.00  0.00     0.036 H 
ATOM     27  H3  non d ame      -9.573  19.375  68.549  0.00  0.00     0.036 H 
ATOM     28  H4  non d ame      -8.118  19.652  67.563  0.00  0.00     0.036 H 
ENDBRANCH  21  25
ENDBRANCH  16  19
ENDBRANCH  13  15
BRANCH  13  29
ATOM     29  C8  non d ame     -12.079  12.625  63.315  0.00  0.00    -0.049 C 
ATOM     30  H7  non d ame     -13.119  12.949  63.285  0.00  0.00     0.030 H 
ATOM     31  H8  non d ame     -11.476  13.282  62.689  0.00  0.00     0.030 H 
ATOM     32  H9  non d ame     -12.007  11.602  62.945  0.00  0.00     0.030 H 
ENDBRANCH  13  29
ENDBRANCH  10  13
ENDBRANCH   7   9
BRANCH   7  33
ATOM     33  C11 non d ame      -8.025   9.460  63.141  0.00  0.00    -0.033 C 
ATOM     34  H12 non d ame      -6.998   9.522  63.501  0.00  0.00     0.042 H 
BRANCH  33  35
ATOM     35  C12 non d ame      -8.240   8.019  62.583  0.00  0.00    -0.071 C 
ATOM     36  H13 non d ame      -7.281   7.600  62.277  0.00  0.00     0.028 H 
ATOM     37  H14 non d ame      -8.679   7.391  63.358  0.00  0.00     0.028 H 
ATOM     38  H15 non d ame      -8.910   8.058  61.724  0.00  0.00     0.028 H 
ENDBRANCH  33  35
BRANCH  33  39
ATOM     39  C13 non d ame      -8.210  10.534  62.022  0.00  0.00    -0.071 C 
ATOM     40  H16 non d ame      -8.508  10.045  61.094  0.00  0.00     0.028 H 
ATOM     41  H17 non d ame      -8.982  11.243  62.323  0.00  0.00     0.028 H 
ATOM     42  H18 non d ame      -7.270  11.064  61.868  0.00  0.00     0.028 H 
ENDBRANCH  33  39
ENDBRANCH   7  33
ENDBRANCH   4   7
ENDBRANCH   1   3
BRANCH   1  43
ATOM     43  C15 non d ame      -8.042   8.361  69.079  0.00  0.00     0.240 C 
ATOM     44  O5  non d ame      -7.174   7.938  69.773  0.00  0.00    -0.271 OA
ATOM     45  N6  non d ame      -9.413   7.783  69.172  0.00  0.00    -0.355 N 
ATOM     46  H46 non d ame     -10.159   8.138  68.592  0.00  0.00     0.162 HD
BRANCH  45  47
ATOM     47  C20 non d ame      -9.682   6.683  70.123  0.00  0.00     0.013 C 
ATOM     48  H30 non d ame      -8.723   6.283  70.453  0.00  0.00     0.072 H 
BRANCH  47  49
ATOM     49  C21 non d ame     -10.479   5.604  69.425  0.00  0.00    -0.038 C 
ATOM     50  H31 non d ame     -10.753   4.891  70.203  0.00  0.00     0.036 H 
ATOM     51  H32 non d ame     -11.255   6.127  68.866  0.00  0.00     0.036 H 
BRANCH  49  52
ATOM     52  C22 non d ame      -9.646   4.819  68.388  0.00  0.00     0.018 C 
ATOM     53  H33 non d ame      -8.617   5.154  68.521  0.00  0.00     0.048 H 
ATOM     54  H34 non d ame      -9.901   3.770  68.538  0.00  0.00     0.048 H 
BRANCH  52  55
ATOM     55  C23 non d ame     -10.016   5.143  66.914  0.00  0.00     0.259 C 
ATOM     56  O7  non d ame     -11.108   5.518  66.634  0.00  0.00    -0.265 OA
BRANCH  55  57
ATOM     57  O8  non d ame      -9.036   4.976  65.897  0.00  0.00    -0.317 OA
BRANCH  57  58
ATOM     58  C29 non d ame      -8.015   5.978  65.901  0.00  0.00     0.052 C 
ATOM     59  H47 non d ame      -8.189   6.580  65.010  0.00  0.00     0.082 H 
ATOM     60  H48 non d ame      -8.058   6.439  66.888  0.00  0.00     0.082 H 
BRANCH  58  61
ATOM     61  C35 non d ame      -6.644   5.265  65.753  0.00  0.00    -0.034 A 
ATOM     62  C30 non d ame      -5.707   5.740  64.840  0.00  0.00    -0.075 A 
ATOM     63  C31 non d ame      -4.476   5.100  64.706  0.00  0.00    -0.082 A 
ATOM     64  H49 non d ame      -5.938   6.613  64.230  0.00  0.00     0.084 H 
ATOM     65  C32 non d ame      -4.184   3.979  65.488  0.00  0.00    -0.083 A 
ATOM     66  H50 non d ame      -3.744   5.475  63.991  0.00  0.00     0.083 H 
ATOM     67  C33 non d ame      -5.123   3.507  66.395  0.00  0.00    -0.082 A 
ATOM     68  H51 non d ame      -3.223   3.473  65.390  0.00  0.00     0.083 H 
ATOM     69  C34 non d ame      -6.353   4.145  66.534  0.00  0.00    -0.075 A 
ATOM     70  H52 non d ame      -4.892   2.631  67.002  0.00  0.00     0.083 H 
ATOM     71  H53 non d ame      -7.085   3.769  67.249  0.00  0.00     0.084 H 
ENDBRANCH  58  61
ENDBRANCH  57  58
ENDBRANCH  55  57
ENDBRANCH  52  55
ENDBRANCH  49  52
ENDBRANCH  47  49
BRANCH  47  72
ATOM     72  C24 non d ame     -10.475   7.212  71.316  0.00  0.00    -0.039 C 
ATOM     73  H35 non d ame     -10.650   6.347  71.955  0.00  0.00     0.036 H 
ATOM     74  H36 non d ame      -9.902   8.060  71.692  0.00  0.00     0.036 H 
BRANCH  72  75
ATOM     75  C25 non d ame     -11.909   7.771  70.873  0.00  0.00    -0.001 C 
ATOM     76  C26 non d ame     -11.954   9.405  71.052  0.00  0.00    -0.035 C 
ATOM     77  C27 non d ame     -13.054   9.735  71.769  0.00  0.00     0.085 C 
ATOM     78  H38 non d ame     -11.129   9.734  71.684  0.00  0.00     0.036 H 
ATOM     79  H39 non d ame     -12.126   9.882  70.087  0.00  0.00     0.036 H 
ATOM     80  N5  non d ame     -13.587   8.459  72.374  0.00  0.00    -0.049 N 
ATOM     81  H40 non d ame     -12.697  10.385  72.569  0.00  0.00     0.075 H 
ATOM     82  H41 non d ame     -13.774  10.111  71.042  0.00  0.00     0.075 H 
ATOM     83  C28 non d ame     -12.853   7.255  71.587  0.00  0.00     0.193 C 
ATOM     84  H42 non d ame     -13.281   8.448  73.336  0.00  0.00     0.280 HD
ATOM     85  H43 non d ame     -14.573   8.429  72.157  0.00  0.00     0.280 HD
ATOM     86  H44 non d ame     -13.387   6.683  70.828  0.00  0.00     0.129 H 
ATOM     87  H37 non d ame     -12.230   7.369  69.912  0.00  0.00     0.046 H 
BRANCH  83  88
ATOM     88  O6  non d ame     -12.359   6.289  72.516  0.00  0.00    -0.369 OA
ATOM     89  H45 non d ame     -12.332   5.426  72.096  0.00  0.00     0.212 HD
ENDBRANCH  83  88
ENDBRANCH  72  75
ENDBRANCH  47  72
ENDBRANCH  45  47
ENDBRANCH   1  43
BRANCH   1  90
ATOM     90  C16 non d ame      -8.132  10.847  68.717  0.00  0.00    -0.035 C 
ATOM     91  H21 non d ame      -8.817  11.314  68.008  0.00  0.00     0.037 H 
ATOM     92  H22 non d ame      -8.474  10.600  69.722  0.00  0.00     0.037 H 
BRANCH  90  93
ATOM     93  C17 non d ame      -6.934  11.835  68.888  0.00  0.00    -0.059 C 
ATOM     94  H23 non d ame      -6.865  12.090  69.946  0.00  0.00     0.038 H 
BRANCH  93  95
ATOM     95  C18 non d ame      -5.575  11.192  68.463  0.00  0.00    -0.073 C 
ATOM     96  H24 non d ame      -5.686  10.721  67.487  0.00  0.00     0.028 H 
ATOM     97  H25 non d ame      -4.808  11.966  68.409  0.00  0.00     0.028 H 
ATOM     98  H26 non d ame      -5.282  10.442  69.198  0.00  0.00     0.028 H 
ENDBRANCH  93  95
BRANCH  93  99
ATOM     99  C19 non d ame      -7.184  13.136  68.122  0.00  0.00    -0.073 C 
ATOM    100  H27 non d ame      -6.231  13.614  67.896  0.00  0.00     0.028 H 
ATOM    101  H28 non d ame      -7.709  12.915  67.192  0.00  0.00     0.028 H 
ATOM    102  H29 non d ame      -7.791  13.805  68.731  0.00  0.00     0.028 H 
ENDBRANCH  93  99
ENDBRANCH  90  93
ENDBRANCH   1  90
TORSDOF 26
ENDMDL
MODEL 20
REMARK VINA RESULT:      -5.9      3.823      9.214
REMARK  26 active torsions:
REMARK  status: ('A' for Active; 'I' for Inactive)
REMARK    1  A    between atoms: C2_2  and  C3_3 
REMARK    2  A    between atoms: C4_6  and  C5_7 
REMARK       I    between atoms: C5_7  and  N2_9 
REMARK    3  A    between atoms: N2_9  and  C6_10 
REMARK    4  A    between atoms: C6_10  and  C7_11 
REMARK    5  A    between atoms: C6_10  and  C8_13 
REMARK       I    between atoms: C7_11  and  N3_14 
REMARK    6  A    between atoms: N3_14  and  C9_15 
REMARK    7  A    between atoms: C9_15  and  C10_16 
REMARK    8  A    between atoms: C9_15  and  C11_18 
REMARK       I    between atoms: C10_16  and  N4_21 
REMARK    9  A    between atoms: C11_18  and  C12_19 
REMARK   10  A    between atoms: C11_18  and  C13_20 
REMARK   11  A    between atoms: N4_21  and  C14_22 
REMARK   12  A    between atoms: C14_22  and  C15_23 
REMARK   13  A    between atoms: C14_22  and  C16_25 
REMARK       I    between atoms: C15_23  and  N6_40 
REMARK   14  A    between atoms: C16_25  and  C17_26 
REMARK   15  A    between atoms: C17_26  and  C18_27 
REMARK   16  A    between atoms: C17_26  and  C19_28 
REMARK   17  A    between atoms: C20_29  and  C21_30 
REMARK   18  A    between atoms: C20_29  and  C24_33 
REMARK   19  A    between atoms: C20_29  and  N6_40 
REMARK   20  A    between atoms: C21_30  and  C22_31 
REMARK   21  A    between atoms: C22_31  and  C23_32 
REMARK   22  A    between atoms: C23_32  and  O8_43 
REMARK   23  A    between atoms: C24_33  and  C25_34 
REMARK   24  A    between atoms: C28_38  and  O6_39 
REMARK   25  A    between atoms: C29_42  and  O8_43 
REMARK   26  A    between atoms: C29_42  and  C35_49 
ROOT
ATOM      1  C14 non d ame      -5.364   8.430  64.801  0.00  0.00     0.089 C 
ATOM      2  H20 non d ame      -4.280   8.550  64.810  0.00  0.00     0.087 H 
ENDROOT
BRANCH   1   3
ATOM      3  N4  non d ame      -5.703   7.434  65.806  0.00  0.00    -0.346 N 
ATOM      4  C10 non d ame      -4.745   6.313  66.121  0.00  0.00     0.241 C 
ATOM      5  O4  non d ame      -3.708   6.232  65.550  0.00  0.00    -0.271 OA
ATOM      6  H19 non d ame      -6.592   7.519  66.279  0.00  0.00     0.163 HD
BRANCH   4   7
ATOM      7  C9  non d ame      -5.110   5.294  67.168  0.00  0.00     0.092 C 
ATOM      8  H11 non d ame      -4.935   5.718  68.157  0.00  0.00     0.088 H 
BRANCH   7   9
ATOM      9  N3  non d ame      -6.541   4.987  67.075  0.00  0.00    -0.346 N 
ATOM     10  C7  non d ame      -7.424   5.334  68.161  0.00  0.00     0.240 C 
ATOM     11  O3  non d ame      -7.000   5.859  69.118  0.00  0.00    -0.271 OA
ATOM     12  H10 non d ame      -6.921   4.534  66.257  0.00  0.00     0.163 HD
BRANCH  10  13
ATOM     13  C6  non d ame      -8.945   5.003  68.058  0.00  0.00     0.086 C 
ATOM     14  H6  non d ame      -9.218   4.100  68.604  0.00  0.00     0.086 H 
BRANCH  13  15
ATOM     15  N2  non d ame      -9.706   6.092  68.647  0.00  0.00    -0.343 N 
ATOM     16  C5  non d ame     -10.333   5.907  69.957  0.00  0.00     0.273 C 
ATOM     17  O2  non d ame     -10.222   4.878  70.528  0.00  0.00    -0.266 OA
ATOM     18  H5  non d ame      -9.798   6.967  68.151  0.00  0.00     0.163 HD
BRANCH  16  19
ATOM     19  C4  non d ame     -11.140   7.051  70.593  0.00  0.00     0.154 A 
ATOM     20  C1  non d ame     -12.474   6.987  71.107  0.00  0.00    -0.017 A 
ATOM     21  C2  non d ame     -12.746   8.292  71.574  0.00  0.00     0.077 A 
ATOM     22  H1  non d ame     -13.142   6.126  71.136  0.00  0.00     0.091 H 
ATOM     23  O1  non d ame     -11.686   9.012  71.352  0.00  0.00    -0.218 OA
ATOM     24  N1  non d ame     -10.735   8.310  70.779  0.00  0.00    -0.123 NA
BRANCH  21  25
ATOM     25  C3  non d ame     -14.041   8.766  72.220  0.00  0.00    -0.029 C 
ATOM     26  H2  non d ame     -14.218   9.809  71.958  0.00  0.00     0.036 H 
ATOM     27  H3  non d ame     -14.870   8.156  71.862  0.00  0.00     0.036 H 
ATOM     28  H4  non d ame     -13.963   8.672  73.304  0.00  0.00     0.036 H 
ENDBRANCH  21  25
ENDBRANCH  16  19
ENDBRANCH  13  15
BRANCH  13  29
ATOM     29  C8  non d ame      -9.327   4.830  66.610  0.00  0.00    -0.049 C 
ATOM     30  H7  non d ame      -8.596   5.335  65.978  0.00  0.00     0.030 H 
ATOM     31  H8  non d ame      -9.348   3.768  66.364  0.00  0.00     0.030 H 
ATOM     32  H9  non d ame     -10.313   5.262  66.440  0.00  0.00     0.030 H 
ENDBRANCH  13  29
ENDBRANCH  10  13
ENDBRANCH   7   9
BRANCH   7  33
ATOM     33  C11 non d ame      -4.288   3.993  66.935  0.00  0.00    -0.033 C 
ATOM     34  H12 non d ame      -3.629   4.168  66.084  0.00  0.00     0.042 H 
BRANCH  33  35
ATOM     35  C12 non d ame      -3.386   3.662  68.165  0.00  0.00    -0.071 C 
ATOM     36  H13 non d ame      -2.368   4.002  67.971  0.00  0.00     0.028 H 
ATOM     37  H14 non d ame      -3.776   4.169  69.048  0.00  0.00     0.028 H 
ATOM     38  H15 non d ame      -3.384   2.586  68.335  0.00  0.00     0.028 H 
ENDBRANCH  33  35
BRANCH  33  39
ATOM     39  C13 non d ame      -5.225   2.794  66.581  0.00  0.00    -0.071 C 
ATOM     40  H16 non d ame      -6.149   3.172  66.145  0.00  0.00     0.028 H 
ATOM     41  H17 non d ame      -4.726   2.141  65.864  0.00  0.00     0.028 H 
ATOM     42  H18 non d ame      -5.453   2.232  67.487  0.00  0.00     0.028 H 
ENDBRANCH  33  39
ENDBRANCH   7  33
ENDBRANCH   4   7
ENDBRANCH   1   3
BRANCH   1  43
ATOM     43  C15 non d ame      -6.104   9.754  65.146  0.00  0.00     0.240 C 
ATOM     44  O5  non d ame      -6.275  10.573  64.302  0.00  0.00    -0.271 OA
ATOM     45  N6  non d ame      -6.608   9.997  66.528  0.00  0.00    -0.355 N 
ATOM     46  H46 non d ame      -6.474   9.307  67.252  0.00  0.00     0.162 HD
BRANCH  45  47
ATOM     47  C20 non d ame      -7.311  11.260  66.840  0.00  0.00     0.013 C 
ATOM     48  H30 non d ame      -7.832  11.586  65.939  0.00  0.00     0.072 H 
BRANCH  47  49
ATOM     49  C21 non d ame      -6.300  12.304  67.258  0.00  0.00    -0.038 C 
ATOM     50  H31 non d ame      -5.549  11.771  67.841  0.00  0.00     0.036 H 
ATOM     51  H32 non d ame      -6.014  12.821  66.341  0.00  0.00     0.036 H 
BRANCH  49  52
ATOM     52  C22 non d ame      -6.899  13.376  68.195  0.00  0.00     0.018 C 
ATOM     53  H33 non d ame      -7.740  12.896  68.694  0.00  0.00     0.048 H 
ATOM     54  H34 non d ame      -6.062  13.756  68.781  0.00  0.00     0.048 H 
BRANCH  52  55
ATOM     55  C23 non d ame      -7.488  14.604  67.446  0.00  0.00     0.259 C 
ATOM     56  O7  non d ame      -6.770  15.413  66.955  0.00  0.00    -0.265 OA
BRANCH  55  57
ATOM     57  O8  non d ame      -8.900  14.757  67.362  0.00  0.00    -0.317 OA
BRANCH  57  58
ATOM     58  C29 non d ame      -9.358  15.256  66.103  0.00  0.00     0.052 C 
ATOM     59  H47 non d ame      -9.842  16.209  66.322  0.00  0.00     0.082 H 
ATOM     60  H48 non d ame      -8.494  15.224  65.440  0.00  0.00     0.082 H 
BRANCH  58  61
ATOM     61  C35 non d ame     -10.431  14.275  65.560  0.00  0.00    -0.034 A 
ATOM     62  C30 non d ame     -10.066  13.265  64.675  0.00  0.00    -0.075 A 
ATOM     63  C31 non d ame     -11.029  12.383  64.186  0.00  0.00    -0.082 A 
ATOM     64  H49 non d ame      -9.026  13.164  64.364  0.00  0.00     0.084 H 
ATOM     65  C32 non d ame     -12.362  12.515  64.584  0.00  0.00    -0.083 A 
ATOM     66  H50 non d ame     -10.740  11.591  63.495  0.00  0.00     0.083 H 
ATOM     67  C33 non d ame     -12.722  13.527  65.465  0.00  0.00    -0.082 A 
ATOM     68  H51 non d ame     -13.121  11.830  64.208  0.00  0.00     0.083 H 
ATOM     69  C34 non d ame     -11.762  14.409  65.957  0.00  0.00    -0.075 A 
ATOM     70  H52 non d ame     -13.763  13.629  65.771  0.00  0.00     0.083 H 
ATOM     71  H53 non d ame     -12.052  15.200  66.649  0.00  0.00     0.084 H 
ENDBRANCH  58  61
ENDBRANCH  57  58
ENDBRANCH  55  57
ENDBRANCH  52  55
ENDBRANCH  49  52
ENDBRANCH  47  49
BRANCH  47  72
ATOM     72  C24 non d ame      -8.307  11.031  67.975  0.00  0.00    -0.039 C 
ATOM     73  H35 non d ame      -8.113  10.018  68.330  0.00  0.00     0.036 H 
ATOM     74  H36 non d ame      -8.179  11.878  68.649  0.00  0.00     0.036 H 
BRANCH  72  75
ATOM     75  C25 non d ame      -9.820  11.067  67.452  0.00  0.00    -0.001 C 
ATOM     76  C26 non d ame     -10.723  12.046  68.416  0.00  0.00    -0.035 C 
ATOM     77  C27 non d ame     -11.830  11.371  68.809  0.00  0.00     0.085 C 
ATOM     78  H38 non d ame     -10.197  12.238  69.351  0.00  0.00     0.036 H 
ATOM     79  H39 non d ame     -11.124  12.877  67.836  0.00  0.00     0.036 H 
ATOM     80  N5  non d ame     -11.604   9.918  68.470  0.00  0.00    -0.049 N 
ATOM     81  H40 non d ame     -11.869  11.481  69.894  0.00  0.00     0.075 H 
ATOM     82  H41 non d ame     -12.641  11.758  68.193  0.00  0.00     0.075 H 
ATOM     83  C28 non d ame     -10.346   9.888  67.459  0.00  0.00     0.193 C 
ATOM     84  H42 non d ame     -11.337   9.461  69.330  0.00  0.00     0.280 HD
ATOM     85  H43 non d ame     -12.426   9.610  67.969  0.00  0.00     0.280 HD
ATOM     86  H44 non d ame     -10.498   9.732  66.391  0.00  0.00     0.129 H 
ATOM     87  H37 non d ame      -9.882  11.237  66.376  0.00  0.00     0.046 H 
BRANCH  83  88
ATOM     88  O6  non d ame      -9.413   8.884  67.863  0.00  0.00    -0.369 OA
ATOM     89  H45 non d ame      -9.881   8.066  68.044  0.00  0.00     0.212 HD
ENDBRANCH  83  88
ENDBRANCH  72  75
ENDBRANCH  47  72
ENDBRANCH  45  47
ENDBRANCH   1  43
BRANCH   1  90
ATOM     90  C16 non d ame      -5.816   7.933  63.437  0.00  0.00    -0.035 C 
ATOM     91  H21 non d ame      -5.894   8.825  62.815  0.00  0.00     0.037 H 
ATOM     92  H22 non d ame      -5.114   7.143  63.171  0.00  0.00     0.037 H 
BRANCH  90  93
ATOM     93  C17 non d ame      -7.234   7.277  63.447  0.00  0.00    -0.059 C 
ATOM     94  H23 non d ame      -7.629   7.360  64.460  0.00  0.00     0.038 H 
BRANCH  93  95
ATOM     95  C18 non d ame      -8.227   8.007  62.487  0.00  0.00    -0.073 C 
ATOM     96  H24 non d ame      -8.721   7.273  61.851  0.00  0.00     0.028 H 
ATOM     97  H25 non d ame      -8.975   8.540  63.075  0.00  0.00     0.028 H 
ATOM     98  H26 non d ame      -7.678   8.716  61.867  0.00  0.00     0.028 H 
ENDBRANCH  93  95
BRANCH  93  99
ATOM     99  C19 non d ame      -7.149   5.786  63.113  0.00  0.00    -0.073 C 
ATOM    100  H27 non d ame      -6.103   5.491  63.025  0.00  0.00     0.028 H 
ATOM    101  H28 non d ame      -7.624   5.208  63.906  0.00  0.00     0.028 H 
ATOM    102  H29 non d ame      -7.660   5.595  62.169  0.00  0.00     0.028 H 
ENDBRANCH  93  99
ENDBRANCH  90  93
ENDBRANCH   1  90
TORSDOF 26
ENDMDL
