MODEL 1
REMARK VINA RESULT:      -7.1      0.000      0.000
REMARK  26 active torsions:
REMARK  status: ('A' for Active; 'I' for Inactive)
REMARK    1  A    between atoms: C2_2  and  C3_3 
REMARK    2  A    between atoms: C4_6  and  C5_7 
REMARK       I    between atoms: C5_7  and  N2_9 
REMARK    3  A    between atoms: N2_9  and  C6_10 
REMARK    4  A    between atoms: C6_10  and  C7_11 
REMARK    5  A    between atoms: C6_10  and  C8_13 
REMARK       I    between atoms: C7_11  and  N3_14 
REMARK    6  A    between atoms: N3_14  and  C9_15 
REMARK    7  A    between atoms: C9_15  and  C10_16 
REMARK    8  A    between atoms: C9_15  and  C11_18 
REMARK       I    between atoms: C10_16  and  N4_21 
REMARK    9  A    between atoms: C11_18  and  C12_19 
REMARK   10  A    between atoms: C11_18  and  C13_20 
REMARK   11  A    between atoms: N4_21  and  C14_22 
REMARK   12  A    between atoms: C14_22  and  C15_23 
REMARK   13  A    between atoms: C14_22  and  C16_25 
REMARK       I    between atoms: C15_23  and  N6_40 
REMARK   14  A    between atoms: C16_25  and  C17_26 
REMARK   15  A    between atoms: C17_26  and  C18_27 
REMARK   16  A    between atoms: C17_26  and  C19_28 
REMARK   17  A    between atoms: C20_29  and  C21_30 
REMARK   18  A    between atoms: C20_29  and  C24_33 
REMARK   19  A    between atoms: C20_29  and  N6_40 
REMARK   20  A    between atoms: C21_30  and  C22_31 
REMARK   21  A    between atoms: C22_31  and  C23_32 
REMARK   22  A    between atoms: C23_32  and  O8_43 
REMARK   23  A    between atoms: C24_33  and  C25_34 
REMARK   24  A    between atoms: C28_38  and  O6_39 
REMARK   25  A    between atoms: C29_42  and  O8_43 
REMARK   26  A    between atoms: C29_42  and  C35_49 
ROOT
ATOM      1  C14 non d ame     -11.858  14.006  69.617  0.00  0.00     0.089 C 
ATOM      2  H20 non d ame     -12.852  13.574  69.494  0.00  0.00     0.087 H 
ENDROOT
BRANCH   1   3
ATOM      3  N4  non d ame     -10.887  12.950  69.369  0.00  0.00    -0.346 N 
ATOM      4  C10 non d ame     -11.125  11.937  68.278  0.00  0.00     0.241 C 
ATOM      5  O4  non d ame     -12.107  11.991  67.614  0.00  0.00    -0.271 OA
ATOM      6  H19 non d ame     -10.059  12.921  69.947  0.00  0.00     0.163 HD
BRANCH   4   7
ATOM      7  C9  non d ame     -10.107  10.855  68.032  0.00  0.00     0.092 C 
ATOM      8  H11 non d ame      -9.750  10.925  67.004  0.00  0.00     0.088 H 
BRANCH   7   9
ATOM      9  N3  non d ame      -8.950  11.064  68.908  0.00  0.00    -0.346 N 
ATOM     10  C7  non d ame      -7.655  11.344  68.336  0.00  0.00     0.240 C 
ATOM     11  O3  non d ame      -7.527  11.403  67.174  0.00  0.00    -0.271 OA
ATOM     12  H10 non d ame      -9.045  11.014  69.912  0.00  0.00     0.163 HD
BRANCH  10  13
ATOM     13  C6  non d ame      -6.427  11.562  69.273  0.00  0.00     0.086 C 
ATOM     14  H6  non d ame      -5.476  11.429  68.759  0.00  0.00     0.086 H 
BRANCH  13  15
ATOM     15  N2  non d ame      -6.447  12.929  69.766  0.00  0.00    -0.343 N 
ATOM     16  C5  non d ame      -5.420  13.872  69.318  0.00  0.00     0.273 C 
ATOM     17  O2  non d ame      -4.581  13.520  68.563  0.00  0.00    -0.266 OA
ATOM     18  H5  non d ame      -7.166  13.220  70.413  0.00  0.00     0.163 HD
BRANCH  16  19
ATOM     19  C4  non d ame      -5.429  15.321  69.829  0.00  0.00     0.154 A 
ATOM     20  C1  non d ame      -5.920  16.477  69.142  0.00  0.00    -0.017 A 
ATOM     21  C2  non d ame      -5.701  17.550  70.035  0.00  0.00     0.077 A 
ATOM     22  H1  non d ame      -6.366  16.529  68.149  0.00  0.00     0.091 H 
ATOM     23  O1  non d ame      -5.150  17.057  71.106  0.00  0.00    -0.218 OA
ATOM     24  N1  non d ame      -4.981  15.758  71.009  0.00  0.00    -0.123 NA
BRANCH  21  25
ATOM     25  C3  non d ame      -6.047  19.012  69.789  0.00  0.00    -0.029 C 
ATOM     26  H2  non d ame      -6.708  19.368  70.579  0.00  0.00     0.036 H 
ATOM     27  H3  non d ame      -5.132  19.606  69.786  0.00  0.00     0.036 H 
ATOM     28  H4  non d ame      -6.547  19.111  68.825  0.00  0.00     0.036 H 
ENDBRANCH  21  25
ENDBRANCH  16  19
ENDBRANCH  13  15
BRANCH  13  29
ATOM     29  C8  non d ame      -6.495  10.595  70.429  0.00  0.00    -0.049 C 
ATOM     30  H7  non d ame      -7.251  10.931  71.139  0.00  0.00     0.030 H 
ATOM     31  H8  non d ame      -6.758   9.604  70.059  0.00  0.00     0.030 H 
ATOM     32  H9  non d ame      -5.525  10.553  70.924  0.00  0.00     0.030 H 
ENDBRANCH  13  29
ENDBRANCH  10  13
ENDBRANCH   7   9
BRANCH   7  33
ATOM     33  C11 non d ame     -10.742   9.467  68.338  0.00  0.00    -0.033 C 
ATOM     34  H12 non d ame     -11.824   9.594  68.342  0.00  0.00     0.042 H 
BRANCH  33  35
ATOM     35  C12 non d ame     -10.396   8.427  67.227  0.00  0.00    -0.071 C 
ATOM     36  H13 non d ame     -10.263   7.444  67.679  0.00  0.00     0.028 H 
ATOM     37  H14 non d ame     -11.210   8.386  66.503  0.00  0.00     0.028 H 
ATOM     38  H15 non d ame      -9.476   8.724  66.725  0.00  0.00     0.028 H 
ENDBRANCH  33  35
BRANCH  33  39
ATOM     39  C13 non d ame     -10.310   8.953  69.749  0.00  0.00    -0.071 C 
ATOM     40  H16 non d ame     -11.012   8.192  70.089  0.00  0.00     0.028 H 
ATOM     41  H17 non d ame      -9.310   8.523  69.689  0.00  0.00     0.028 H 
ATOM     42  H18 non d ame     -10.306   9.785  70.452  0.00  0.00     0.028 H 
ENDBRANCH  33  39
ENDBRANCH   7  33
ENDBRANCH   4   7
ENDBRANCH   1   3
BRANCH   1  43
ATOM     43  C15 non d ame     -11.594  15.167  68.616  0.00  0.00     0.240 C 
ATOM     44  O5  non d ame     -12.022  16.252  68.842  0.00  0.00    -0.271 OA
ATOM     45  N6  non d ame     -10.800  14.927  67.377  0.00  0.00    -0.355 N 
ATOM     46  H46 non d ame     -10.427  14.010  67.176  0.00  0.00     0.162 HD
BRANCH  45  47
ATOM     47  C20 non d ame     -10.556  16.041  66.435  0.00  0.00     0.013 C 
ATOM     48  H30 non d ame     -11.217  16.863  66.710  0.00  0.00     0.072 H 
BRANCH  47  49
ATOM     49  C21 non d ame     -10.862  15.581  65.028  0.00  0.00    -0.038 C 
ATOM     50  H31 non d ame     -11.306  16.442  64.526  0.00  0.00     0.036 H 
ATOM     51  H32 non d ame      -9.934  15.150  64.652  0.00  0.00     0.036 H 
BRANCH  49  52
ATOM     52  C22 non d ame     -11.918  14.456  64.981  0.00  0.00     0.018 C 
ATOM     53  H33 non d ame     -12.023  14.106  66.008  0.00  0.00     0.048 H 
ATOM     54  H34 non d ame     -12.776  14.878  64.458  0.00  0.00     0.048 H 
BRANCH  52  55
ATOM     55  C23 non d ame     -11.477  13.218  64.150  0.00  0.00     0.259 C 
ATOM     56  O7  non d ame     -12.082  12.897  63.179  0.00  0.00    -0.265 OA
BRANCH  55  57
ATOM     57  O8  non d ame     -10.348  12.463  64.571  0.00  0.00    -0.317 OA
BRANCH  57  58
ATOM     58  C29 non d ame     -10.527  11.047  64.479  0.00  0.00     0.052 C 
ATOM     59  H47 non d ame     -10.363  10.662  65.485  0.00  0.00     0.082 H 
ATOM     60  H48 non d ame     -11.491  10.903  63.991  0.00  0.00     0.082 H 
BRANCH  58  61
ATOM     61  C35 non d ame      -9.419  10.483  63.550  0.00  0.00    -0.034 A 
ATOM     62  C30 non d ame      -8.890   9.218  63.785  0.00  0.00    -0.075 A 
ATOM     63  C31 non d ame      -7.894   8.712  62.951  0.00  0.00    -0.082 A 
ATOM     64  H49 non d ame      -9.256   8.623  64.621  0.00  0.00     0.084 H 
ATOM     65  C32 non d ame      -7.425   9.477  61.880  0.00  0.00    -0.083 A 
ATOM     66  H50 non d ame      -7.484   7.719  63.136  0.00  0.00     0.083 H 
ATOM     67  C33 non d ame      -7.953  10.741  61.652  0.00  0.00    -0.082 A 
ATOM     68  H51 non d ame      -6.647   9.089  61.223  0.00  0.00     0.083 H 
ATOM     69  C34 non d ame      -8.950  11.250  62.482  0.00  0.00    -0.075 A 
ATOM     70  H52 non d ame      -7.583  11.337  60.817  0.00  0.00     0.083 H 
ATOM     71  H53 non d ame      -9.360  12.243  62.295  0.00  0.00     0.084 H 
ENDBRANCH  58  61
ENDBRANCH  57  58
ENDBRANCH  55  57
ENDBRANCH  52  55
ENDBRANCH  49  52
ENDBRANCH  47  49
BRANCH  47  72
ATOM     72  C24 non d ame      -9.097  16.482  66.523  0.00  0.00    -0.039 C 
ATOM     73  H35 non d ame      -8.615  15.760  67.183  0.00  0.00     0.036 H 
ATOM     74  H36 non d ame      -8.762  16.584  65.490  0.00  0.00     0.036 H 
BRANCH  72  75
ATOM     75  C25 non d ame      -8.952  17.921  67.211  0.00  0.00    -0.001 C 
ATOM     76  C26 non d ame     -10.389  18.719  67.146  0.00  0.00    -0.035 C 
ATOM     77  C27 non d ame     -10.179  19.952  66.625  0.00  0.00     0.085 C 
ATOM     78  H38 non d ame     -11.048  18.244  66.420  0.00  0.00     0.036 H 
ATOM     79  H39 non d ame     -10.747  18.927  68.155  0.00  0.00     0.036 H 
ATOM     80  N5  non d ame      -8.794  19.949  66.026  0.00  0.00    -0.049 N 
ATOM     81  H40 non d ame     -10.912  20.058  65.824  0.00  0.00     0.075 H 
ATOM     82  H41 non d ame     -10.198  20.634  67.474  0.00  0.00     0.075 H 
ATOM     83  C28 non d ame      -8.059  18.637  66.614  0.00  0.00     0.193 C 
ATOM     84  H42 non d ame      -8.912  19.831  65.030  0.00  0.00     0.280 HD
ATOM     85  H43 non d ame      -8.325  20.768  66.386  0.00  0.00     0.280 HD
ATOM     86  H44 non d ame      -7.315  18.727  67.407  0.00  0.00     0.129 H 
ATOM     87  H37 non d ame      -8.458  17.867  68.181  0.00  0.00     0.046 H 
BRANCH  83  88
ATOM     88  O6  non d ame      -7.410  17.922  65.561  0.00  0.00    -0.369 OA
ATOM     89  H45 non d ame      -6.712  18.465  65.188  0.00  0.00     0.212 HD
ENDBRANCH  83  88
ENDBRANCH  72  75
ENDBRANCH  47  72
ENDBRANCH  45  47
ENDBRANCH   1  43
BRANCH   1  90
ATOM     90  C16 non d ame     -11.689  14.511  71.041  0.00  0.00    -0.035 C 
ATOM     91  H21 non d ame     -10.880  13.915  71.465  0.00  0.00     0.037 H 
ATOM     92  H22 non d ame     -11.581  15.592  70.953  0.00  0.00     0.037 H 
BRANCH  90  93
ATOM     93  C17 non d ame     -12.939  14.266  71.945  0.00  0.00    -0.059 C 
ATOM     94  H23 non d ame     -12.674  14.556  72.962  0.00  0.00     0.038 H 
BRANCH  93  95
ATOM     95  C18 non d ame     -14.163  15.131  71.506  0.00  0.00    -0.073 C 
ATOM     96  H24 non d ame     -15.054  14.796  72.037  0.00  0.00     0.028 H 
ATOM     97  H25 non d ame     -13.971  16.178  71.742  0.00  0.00     0.028 H 
ATOM     98  H26 non d ame     -14.318  15.023  70.432  0.00  0.00     0.028 H 
ENDBRANCH  93  95
BRANCH  93  99
ATOM     99  C19 non d ame     -13.306  12.780  71.979  0.00  0.00    -0.073 C 
ATOM    100  H27 non d ame     -13.135  12.385  72.981  0.00  0.00     0.028 H 
ATOM    101  H28 non d ame     -14.357  12.660  71.715  0.00  0.00     0.028 H 
ATOM    102  H29 non d ame     -12.688  12.237  71.264  0.00  0.00     0.028 H 
ENDBRANCH  93  99
ENDBRANCH  90  93
ENDBRANCH   1  90
TORSDOF 26
ENDMDL
MODEL 2
REMARK VINA RESULT:      -7.0      3.416      7.311
REMARK  26 active torsions:
REMARK  status: ('A' for Active; 'I' for Inactive)
REMARK    1  A    between atoms: C2_2  and  C3_3 
REMARK    2  A    between atoms: C4_6  and  C5_7 
REMARK       I    between atoms: C5_7  and  N2_9 
REMARK    3  A    between atoms: N2_9  and  C6_10 
REMARK    4  A    between atoms: C6_10  and  C7_11 
REMARK    5  A    between atoms: C6_10  and  C8_13 
REMARK       I    between atoms: C7_11  and  N3_14 
REMARK    6  A    between atoms: N3_14  and  C9_15 
REMARK    7  A    between atoms: C9_15  and  C10_16 
REMARK    8  A    between atoms: C9_15  and  C11_18 
REMARK       I    between atoms: C10_16  and  N4_21 
REMARK    9  A    between atoms: C11_18  and  C12_19 
REMARK   10  A    between atoms: C11_18  and  C13_20 
REMARK   11  A    between atoms: N4_21  and  C14_22 
REMARK   12  A    between atoms: C14_22  and  C15_23 
REMARK   13  A    between atoms: C14_22  and  C16_25 
REMARK       I    between atoms: C15_23  and  N6_40 
REMARK   14  A    between atoms: C16_25  and  C17_26 
REMARK   15  A    between atoms: C17_26  and  C18_27 
REMARK   16  A    between atoms: C17_26  and  C19_28 
REMARK   17  A    between atoms: C20_29  and  C21_30 
REMARK   18  A    between atoms: C20_29  and  C24_33 
REMARK   19  A    between atoms: C20_29  and  N6_40 
REMARK   20  A    between atoms: C21_30  and  C22_31 
REMARK   21  A    between atoms: C22_31  and  C23_32 
REMARK   22  A    between atoms: C23_32  and  O8_43 
REMARK   23  A    between atoms: C24_33  and  C25_34 
REMARK   24  A    between atoms: C28_38  and  O6_39 
REMARK   25  A    between atoms: C29_42  and  O8_43 
REMARK   26  A    between atoms: C29_42  and  C35_49 
ROOT
ATOM      1  C14 non d ame     -10.095  10.231  68.856  0.00  0.00     0.089 C 
ATOM      2  H20 non d ame      -9.421  10.307  69.711  0.00  0.00     0.087 H 
ENDROOT
BRANCH   1   3
ATOM      3  N4  non d ame     -10.681   8.900  68.877  0.00  0.00    -0.346 N 
ATOM      4  C10 non d ame      -9.936   7.748  69.504  0.00  0.00     0.241 C 
ATOM      5  O4  non d ame      -8.863   7.918  69.982  0.00  0.00    -0.271 OA
ATOM      6  H19 non d ame     -11.594   8.776  68.462  0.00  0.00     0.163 HD
BRANCH   4   7
ATOM      7  C9  non d ame     -10.560   6.378  69.522  0.00  0.00     0.092 C 
ATOM      8  H11 non d ame     -11.623   6.465  69.294  0.00  0.00     0.088 H 
BRANCH   7   9
ATOM      9  N3  non d ame      -9.958   5.552  68.470  0.00  0.00    -0.346 N 
ATOM     10  C7  non d ame     -10.344   5.744  67.094  0.00  0.00     0.240 C 
ATOM     11  O3  non d ame     -11.138   6.557  66.815  0.00  0.00    -0.271 OA
ATOM     12  H10 non d ame      -9.273   4.846  68.696  0.00  0.00     0.163 HD
BRANCH  10  13
ATOM     13  C6  non d ame      -9.702   4.860  65.980  0.00  0.00     0.086 C 
ATOM     14  H6  non d ame     -10.342   4.755  65.104  0.00  0.00     0.086 H 
BRANCH  13  15
ATOM     15  N2  non d ame      -8.475   5.493  65.525  0.00  0.00    -0.343 N 
ATOM     16  C5  non d ame      -8.157   5.505  64.095  0.00  0.00     0.273 C 
ATOM     17  O2  non d ame      -8.893   5.001  63.320  0.00  0.00    -0.266 OA
ATOM     18  H5  non d ame      -7.850   5.919  66.195  0.00  0.00     0.163 HD
BRANCH  16  19
ATOM     19  C4  non d ame      -6.864   6.172  63.600  0.00  0.00     0.154 A 
ATOM     20  C1  non d ame      -6.575   7.572  63.557  0.00  0.00    -0.017 A 
ATOM     21  C2  non d ame      -5.269   7.658  63.025  0.00  0.00     0.077 A 
ATOM     22  H1  non d ame      -7.215   8.400  63.864  0.00  0.00     0.091 H 
ATOM     23  O1  non d ame      -4.864   6.443  62.795  0.00  0.00    -0.218 OA
ATOM     24  N1  non d ame      -5.777   5.558  63.122  0.00  0.00    -0.123 NA
BRANCH  21  25
ATOM     25  C3  non d ame      -4.481   8.936  62.770  0.00  0.00    -0.029 C 
ATOM     26  H2  non d ame      -4.794   9.373  61.822  0.00  0.00     0.036 H 
ATOM     27  H3  non d ame      -4.669   9.645  63.576  0.00  0.00     0.036 H 
ATOM     28  H4  non d ame      -3.416   8.705  62.731  0.00  0.00     0.036 H 
ENDBRANCH  21  25
ENDBRANCH  16  19
ENDBRANCH  13  15
BRANCH  13  29
ATOM     29  C8  non d ame      -9.402   3.490  66.532  0.00  0.00    -0.049 C 
ATOM     30  H7  non d ame      -9.772   3.422  67.556  0.00  0.00     0.030 H 
ATOM     31  H8  non d ame      -9.893   2.735  65.918  0.00  0.00     0.030 H 
ATOM     32  H9  non d ame      -8.326   3.323  66.524  0.00  0.00     0.030 H 
ENDBRANCH  13  29
ENDBRANCH  10  13
ENDBRANCH   7   9
BRANCH   7  33
ATOM     33  C11 non d ame     -10.311   5.713  70.907  0.00  0.00    -0.033 C 
ATOM     34  H12 non d ame      -9.451   6.207  71.359  0.00  0.00     0.042 H 
BRANCH  33  35
ATOM     35  C12 non d ame     -11.527   5.919  71.863  0.00  0.00    -0.071 C 
ATOM     36  H13 non d ame     -11.176   5.955  72.895  0.00  0.00     0.028 H 
ATOM     37  H14 non d ame     -12.027   6.855  71.618  0.00  0.00     0.028 H 
ATOM     38  H15 non d ame     -12.226   5.091  71.746  0.00  0.00     0.028 H 
ENDBRANCH  33  35
BRANCH  33  39
ATOM     39  C13 non d ame      -9.968   4.197  70.745  0.00  0.00    -0.071 C 
ATOM     40  H16 non d ame      -9.692   3.995  69.711  0.00  0.00     0.028 H 
ATOM     41  H17 non d ame      -9.135   3.941  71.400  0.00  0.00     0.028 H 
ATOM     42  H18 non d ame     -10.838   3.597  71.013  0.00  0.00     0.028 H 
ENDBRANCH  33  39
ENDBRANCH   7  33
ENDBRANCH   4   7
ENDBRANCH   1   3
BRANCH   1  43
ATOM     43  C15 non d ame     -11.243  11.279  68.919  0.00  0.00     0.240 C 
ATOM     44  O5  non d ame     -12.311  11.013  68.472  0.00  0.00    -0.271 OA
ATOM     45  N6  non d ame     -11.012  12.613  69.544  0.00  0.00    -0.355 N 
ATOM     46  H46 non d ame     -10.110  12.849  69.932  0.00  0.00     0.162 HD
BRANCH  45  47
ATOM     47  C20 non d ame     -12.114  13.598  69.597  0.00  0.00     0.013 C 
ATOM     48  H30 non d ame     -12.910  13.246  68.942  0.00  0.00     0.072 H 
BRANCH  47  49
ATOM     49  C21 non d ame     -11.608  14.940  69.119  0.00  0.00    -0.038 C 
ATOM     50  H31 non d ame     -12.410  15.359  68.512  0.00  0.00     0.036 H 
ATOM     51  H32 non d ame     -11.271  15.463  70.015  0.00  0.00     0.036 H 
BRANCH  49  52
ATOM     52  C22 non d ame     -10.377  14.822  68.195  0.00  0.00     0.018 C 
ATOM     53  H33 non d ame      -9.508  14.951  68.841  0.00  0.00     0.048 H 
ATOM     54  H34 non d ame     -10.511  13.892  67.642  0.00  0.00     0.048 H 
BRANCH  52  55
ATOM     55  C23 non d ame     -10.286  15.946  67.126  0.00  0.00     0.259 C 
ATOM     56  O7  non d ame     -10.472  17.081  67.426  0.00  0.00    -0.265 OA
BRANCH  55  57
ATOM     57  O8  non d ame      -9.991  15.603  65.777  0.00  0.00    -0.317 OA
BRANCH  57  58
ATOM     58  C29 non d ame     -11.148  15.391  64.964  0.00  0.00     0.052 C 
ATOM     59  H47 non d ame     -12.003  15.538  65.623  0.00  0.00     0.082 H 
ATOM     60  H48 non d ame     -11.017  16.030  64.091  0.00  0.00     0.082 H 
BRANCH  58  61
ATOM     61  C35 non d ame     -11.138  13.911  64.494  0.00  0.00    -0.034 A 
ATOM     62  C30 non d ame     -12.228  13.393  63.802  0.00  0.00    -0.075 A 
ATOM     63  C31 non d ame     -12.219  12.064  63.380  0.00  0.00    -0.082 A 
ATOM     64  H49 non d ame     -13.088  14.028  63.589  0.00  0.00     0.084 H 
ATOM     65  C32 non d ame     -11.116  11.252  63.656  0.00  0.00    -0.083 A 
ATOM     66  H50 non d ame     -13.074  11.662  62.836  0.00  0.00     0.083 H 
ATOM     67  C33 non d ame     -10.033  11.773  64.350  0.00  0.00    -0.082 A 
ATOM     68  H51 non d ame     -11.101  10.212  63.329  0.00  0.00     0.083 H 
ATOM     69  C34 non d ame     -10.036  13.101  64.771  0.00  0.00    -0.075 A 
ATOM     70  H52 non d ame      -9.174  11.135  64.566  0.00  0.00     0.083 H 
ATOM     71  H53 non d ame      -9.181  13.503  65.315  0.00  0.00     0.084 H 
ENDBRANCH  58  61
ENDBRANCH  57  58
ENDBRANCH  55  57
ENDBRANCH  52  55
ENDBRANCH  49  52
ENDBRANCH  47  49
BRANCH  47  72
ATOM     72  C24 non d ame     -12.624  13.726  71.031  0.00  0.00    -0.039 C 
ATOM     73  H35 non d ame     -13.601  13.242  71.035  0.00  0.00     0.036 H 
ATOM     74  H36 non d ame     -11.822  13.339  71.660  0.00  0.00     0.036 H 
BRANCH  72  75
ATOM     75  C25 non d ame     -12.852  15.257  71.444  0.00  0.00    -0.001 C 
ATOM     76  C26 non d ame     -11.769  15.691  72.603  0.00  0.00    -0.035 C 
ATOM     77  C27 non d ame     -12.438  16.257  73.636  0.00  0.00     0.085 C 
ATOM     78  H38 non d ame     -11.319  14.803  73.046  0.00  0.00     0.036 H 
ATOM     79  H39 non d ame     -11.135  16.499  72.237  0.00  0.00     0.036 H 
ATOM     80  N5  non d ame     -13.903  15.952  73.433  0.00  0.00    -0.049 N 
ATOM     81  H40 non d ame     -12.087  15.738  74.529  0.00  0.00     0.075 H 
ATOM     82  H41 non d ame     -12.281  17.330  73.532  0.00  0.00     0.075 H 
ATOM     83  C28 non d ame     -14.043  15.443  71.907  0.00  0.00     0.193 C 
ATOM     84  H42 non d ame     -14.123  15.183  74.050  0.00  0.00     0.280 HD
ATOM     85  H43 non d ame     -14.393  16.830  73.525  0.00  0.00     0.280 HD
ATOM     86  H44 non d ame     -14.453  16.101  71.140  0.00  0.00     0.129 H 
ATOM     87  H37 non d ame     -12.939  15.910  70.576  0.00  0.00     0.046 H 
BRANCH  83  88
ATOM     88  O6  non d ame     -14.834  14.255  71.854  0.00  0.00    -0.369 OA
ATOM     89  H45 non d ame     -14.419  13.620  71.266  0.00  0.00     0.212 HD
ENDBRANCH  83  88
ENDBRANCH  72  75
ENDBRANCH  47  72
ENDBRANCH  45  47
ENDBRANCH   1  43
BRANCH   1  90
ATOM     90  C16 non d ame      -9.311  10.408  67.566  0.00  0.00    -0.035 C 
ATOM     91  H21 non d ame      -9.496   9.501  66.989  0.00  0.00     0.037 H 
ATOM     92  H22 non d ame      -9.618  11.377  67.172  0.00  0.00     0.037 H 
BRANCH  90  93
ATOM     93  C17 non d ame      -7.765  10.488  67.777  0.00  0.00    -0.059 C 
ATOM     94  H23 non d ame      -7.370   9.475  67.712  0.00  0.00     0.038 H 
BRANCH  93  95
ATOM     95  C18 non d ame      -7.063  11.345  66.676  0.00  0.00    -0.073 C 
ATOM     96  H24 non d ame      -7.605  12.282  66.545  0.00  0.00     0.028 H 
ATOM     97  H25 non d ame      -6.038  11.557  66.979  0.00  0.00     0.028 H 
ATOM     98  H26 non d ame      -7.057  10.794  65.735  0.00  0.00     0.028 H 
ENDBRANCH  93  95
BRANCH  93  99
ATOM     99  C19 non d ame      -7.432  11.018  69.174  0.00  0.00    -0.073 C 
ATOM    100  H27 non d ame      -6.424  10.705  69.451  0.00  0.00     0.028 H 
ATOM    101  H28 non d ame      -7.486  12.107  69.173  0.00  0.00     0.028 H 
ATOM    102  H29 non d ame      -8.146  10.620  69.894  0.00  0.00     0.028 H 
ENDBRANCH  93  99
ENDBRANCH  90  93
ENDBRANCH   1  90
TORSDOF 26
ENDMDL
MODEL 3
REMARK VINA RESULT:      -6.9      3.465      8.043
REMARK  26 active torsions:
REMARK  status: ('A' for Active; 'I' for Inactive)
REMARK    1  A    between atoms: C2_2  and  C3_3 
REMARK    2  A    between atoms: C4_6  and  C5_7 
REMARK       I    between atoms: C5_7  and  N2_9 
REMARK    3  A    between atoms: N2_9  and  C6_10 
REMARK    4  A    between atoms: C6_10  and  C7_11 
REMARK    5  A    between atoms: C6_10  and  C8_13 
REMARK       I    between atoms: C7_11  and  N3_14 
REMARK    6  A    between atoms: N3_14  and  C9_15 
REMARK    7  A    between atoms: C9_15  and  C10_16 
REMARK    8  A    between atoms: C9_15  and  C11_18 
REMARK       I    between atoms: C10_16  and  N4_21 
REMARK    9  A    between atoms: C11_18  and  C12_19 
REMARK   10  A    between atoms: C11_18  and  C13_20 
REMARK   11  A    between atoms: N4_21  and  C14_22 
REMARK   12  A    between atoms: C14_22  and  C15_23 
REMARK   13  A    between atoms: C14_22  and  C16_25 
REMARK       I    between atoms: C15_23  and  N6_40 
REMARK   14  A    between atoms: C16_25  and  C17_26 
REMARK   15  A    between atoms: C17_26  and  C18_27 
REMARK   16  A    between atoms: C17_26  and  C19_28 
REMARK   17  A    between atoms: C20_29  and  C21_30 
REMARK   18  A    between atoms: C20_29  and  C24_33 
REMARK   19  A    between atoms: C20_29  and  N6_40 
REMARK   20  A    between atoms: C21_30  and  C22_31 
REMARK   21  A    between atoms: C22_31  and  C23_32 
REMARK   22  A    between atoms: C23_32  and  O8_43 
REMARK   23  A    between atoms: C24_33  and  C25_34 
REMARK   24  A    between atoms: C28_38  and  O6_39 
REMARK   25  A    between atoms: C29_42  and  O8_43 
REMARK   26  A    between atoms: C29_42  and  C35_49 
ROOT
ATOM      1  C14 non d ame     -10.014  10.175  68.685  0.00  0.00     0.089 C 
ATOM      2  H20 non d ame      -9.337  10.260  69.536  0.00  0.00     0.087 H 
ENDROOT
BRANCH   1   3
ATOM      3  N4  non d ame     -10.602   8.845  68.723  0.00  0.00    -0.346 N 
ATOM      4  C10 non d ame      -9.914   7.729  69.470  0.00  0.00     0.241 C 
ATOM      5  O4  non d ame      -8.886   7.926  70.030  0.00  0.00    -0.271 OA
ATOM      6  H19 non d ame     -11.476   8.697  68.238  0.00  0.00     0.163 HD
BRANCH   4   7
ATOM      7  C9  non d ame     -10.540   6.360  69.504  0.00  0.00     0.092 C 
ATOM      8  H11 non d ame     -11.597   6.442  69.250  0.00  0.00     0.088 H 
BRANCH   7   9
ATOM      9  N3  non d ame      -9.914   5.511  68.485  0.00  0.00    -0.346 N 
ATOM     10  C7  non d ame     -10.275   5.667  67.097  0.00  0.00     0.240 C 
ATOM     11  O3  non d ame     -11.067   6.470  66.783  0.00  0.00    -0.271 OA
ATOM     12  H10 non d ame      -9.231   4.813  68.741  0.00  0.00     0.163 HD
BRANCH  10  13
ATOM     13  C6  non d ame      -9.608   4.759  66.018  0.00  0.00     0.086 C 
ATOM     14  H6  non d ame     -10.242   4.608  65.144  0.00  0.00     0.086 H 
BRANCH  13  15
ATOM     15  N2  non d ame      -8.394   5.402  65.545  0.00  0.00    -0.343 N 
ATOM     16  C5  non d ame      -8.120   5.459  64.107  0.00  0.00     0.273 C 
ATOM     17  O2  non d ame      -8.882   4.981  63.340  0.00  0.00    -0.266 OA
ATOM     18  H5  non d ame      -7.747   5.806  66.208  0.00  0.00     0.163 HD
BRANCH  16  19
ATOM     19  C4  non d ame      -6.841   6.137  63.593  0.00  0.00     0.154 A 
ATOM     20  C1  non d ame      -6.560   7.540  63.560  0.00  0.00    -0.017 A 
ATOM     21  C2  non d ame      -5.265   7.638  63.003  0.00  0.00     0.077 A 
ATOM     22  H1  non d ame      -7.197   8.361  63.890  0.00  0.00     0.091 H 
ATOM     23  O1  non d ame      -4.859   6.428  62.751  0.00  0.00    -0.218 OA
ATOM     24  N1  non d ame      -5.761   5.535  63.086  0.00  0.00    -0.123 NA
BRANCH  21  25
ATOM     25  C3  non d ame      -4.489   8.923  62.746  0.00  0.00    -0.029 C 
ATOM     26  H2  non d ame      -4.823   9.369  61.809  0.00  0.00     0.036 H 
ATOM     27  H3  non d ame      -4.663   9.622  63.564  0.00  0.00     0.036 H 
ATOM     28  H4  non d ame      -3.424   8.698  62.682  0.00  0.00     0.036 H 
ENDBRANCH  21  25
ENDBRANCH  16  19
ENDBRANCH  13  15
BRANCH  13  29
ATOM     29  C8  non d ame      -9.281   3.416  66.619  0.00  0.00    -0.049 C 
ATOM     30  H7  non d ame      -9.653   3.376  67.643  0.00  0.00     0.030 H 
ATOM     31  H8  non d ame      -9.751   2.629  66.030  0.00  0.00     0.030 H 
ATOM     32  H9  non d ame      -8.200   3.273  66.621  0.00  0.00     0.030 H 
ENDBRANCH  13  29
ENDBRANCH  10  13
ENDBRANCH   7   9
BRANCH   7  33
ATOM     33  C11 non d ame     -10.322   5.725  70.909  0.00  0.00    -0.033 C 
ATOM     34  H12 non d ame      -9.481   6.238  71.374  0.00  0.00     0.042 H 
BRANCH  33  35
ATOM     35  C12 non d ame     -11.566   5.935  71.827  0.00  0.00    -0.071 C 
ATOM     36  H13 non d ame     -11.237   6.095  72.854  0.00  0.00     0.028 H 
ATOM     37  H14 non d ame     -12.126   6.806  71.486  0.00  0.00     0.028 H 
ATOM     38  H15 non d ame     -12.204   5.053  71.782  0.00  0.00     0.028 H 
ENDBRANCH  33  35
BRANCH  33  39
ATOM     39  C13 non d ame      -9.957   4.210  70.787  0.00  0.00    -0.071 C 
ATOM     40  H16 non d ame      -9.650   3.991  69.765  0.00  0.00     0.028 H 
ATOM     41  H17 non d ame      -9.140   3.978  71.470  0.00  0.00     0.028 H 
ATOM     42  H18 non d ame     -10.827   3.606  71.043  0.00  0.00     0.028 H 
ENDBRANCH  33  39
ENDBRANCH   7  33
ENDBRANCH   4   7
ENDBRANCH   1   3
BRANCH   1  43
ATOM     43  C15 non d ame     -11.160  11.225  68.740  0.00  0.00     0.240 C 
ATOM     44  O5  non d ame     -12.198  10.996  68.209  0.00  0.00    -0.271 OA
ATOM     45  N6  non d ame     -10.967  12.514  69.465  0.00  0.00    -0.355 N 
ATOM     46  H46 non d ame     -10.092  12.718  69.924  0.00  0.00     0.162 HD
BRANCH  45  47
ATOM     47  C20 non d ame     -12.068  13.501  69.509  0.00  0.00     0.013 C 
ATOM     48  H30 non d ame     -12.882  13.125  68.890  0.00  0.00     0.072 H 
BRANCH  47  49
ATOM     49  C21 non d ame     -11.575  14.824  68.967  0.00  0.00    -0.038 C 
ATOM     50  H31 non d ame     -12.276  15.573  69.335  0.00  0.00     0.036 H 
ATOM     51  H32 non d ame     -10.522  14.880  69.242  0.00  0.00     0.036 H 
BRANCH  49  52
ATOM     52  C22 non d ame     -11.628  14.896  67.425  0.00  0.00     0.018 C 
ATOM     53  H33 non d ame     -12.255  14.061  67.111  0.00  0.00     0.048 H 
ATOM     54  H34 non d ame     -11.923  15.918  67.187  0.00  0.00     0.048 H 
BRANCH  52  55
ATOM     55  C23 non d ame     -10.250  14.678  66.740  0.00  0.00     0.259 C 
ATOM     56  O7  non d ame      -9.563  13.757  67.046  0.00  0.00    -0.265 OA
BRANCH  55  57
ATOM     57  O8  non d ame      -9.811  15.599  65.750  0.00  0.00    -0.317 OA
BRANCH  57  58
ATOM     58  C29 non d ame      -8.680  16.382  66.144  0.00  0.00     0.052 C 
ATOM     59  H47 non d ame      -8.161  15.791  66.898  0.00  0.00     0.082 H 
ATOM     60  H48 non d ame      -8.172  16.652  65.218  0.00  0.00     0.082 H 
BRANCH  58  61
ATOM     61  C35 non d ame      -9.206  17.680  66.812  0.00  0.00    -0.034 A 
ATOM     62  C30 non d ame      -8.712  18.075  68.052  0.00  0.00    -0.075 A 
ATOM     63  C31 non d ame      -9.185  19.240  68.652  0.00  0.00    -0.082 A 
ATOM     64  H49 non d ame      -7.955  17.471  68.552  0.00  0.00     0.084 H 
ATOM     65  C32 non d ame     -10.157  20.012  68.010  0.00  0.00    -0.083 A 
ATOM     66  H50 non d ame      -8.794  19.548  69.623  0.00  0.00     0.083 H 
ATOM     67  C33 non d ame     -10.648  19.613  66.775  0.00  0.00    -0.082 A 
ATOM     68  H51 non d ame     -10.531  20.925  68.472  0.00  0.00     0.083 H 
ATOM     69  C34 non d ame     -10.178  18.449  66.170  0.00  0.00    -0.075 A 
ATOM     70  H52 non d ame     -11.408  20.216  66.277  0.00  0.00     0.083 H 
ATOM     71  H53 non d ame     -10.568  18.143  65.199  0.00  0.00     0.084 H 
ENDBRANCH  58  61
ENDBRANCH  57  58
ENDBRANCH  55  57
ENDBRANCH  52  55
ENDBRANCH  49  52
ENDBRANCH  47  49
BRANCH  47  72
ATOM     72  C24 non d ame     -12.539  13.685  70.951  0.00  0.00    -0.039 C 
ATOM     73  H35 non d ame     -13.485  13.148  71.017  0.00  0.00     0.036 H 
ATOM     74  H36 non d ame     -11.696  13.382  71.572  0.00  0.00     0.036 H 
BRANCH  72  75
ATOM     75  C25 non d ame     -12.843  15.222  71.283  0.00  0.00    -0.001 C 
ATOM     76  C26 non d ame     -11.746  15.788  72.370  0.00  0.00    -0.035 C 
ATOM     77  C27 non d ame     -12.409  16.375  73.394  0.00  0.00     0.085 C 
ATOM     78  H38 non d ame     -11.228  14.956  72.845  0.00  0.00     0.036 H 
ATOM     79  H39 non d ame     -11.175  16.608  71.933  0.00  0.00     0.036 H 
ATOM     80  N5  non d ame     -13.859  15.974  73.269  0.00  0.00    -0.049 N 
ATOM     81  H40 non d ame     -11.995  15.933  74.301  0.00  0.00     0.075 H 
ATOM     82  H41 non d ame     -12.321  17.447  73.222  0.00  0.00     0.075 H 
ATOM     83  C28 non d ame     -14.025  15.367  71.782  0.00  0.00     0.193 C 
ATOM     84  H42 non d ame     -14.010  15.232  73.938  0.00  0.00     0.280 HD
ATOM     85  H43 non d ame     -14.398  16.826  73.330  0.00  0.00     0.280 HD
ATOM     86  H44 non d ame     -14.502  15.952  70.995  0.00  0.00     0.129 H 
ATOM     87  H37 non d ame     -13.001  15.816  70.383  0.00  0.00     0.046 H 
BRANCH  83  88
ATOM     88  O6  non d ame     -14.745  14.134  71.831  0.00  0.00    -0.369 OA
ATOM     89  H45 non d ame     -15.158  14.038  72.692  0.00  0.00     0.212 HD
ENDBRANCH  83  88
ENDBRANCH  72  75
ENDBRANCH  47  72
ENDBRANCH  45  47
ENDBRANCH   1  43
BRANCH   1  90
ATOM     90  C16 non d ame      -9.235  10.337  67.389  0.00  0.00    -0.035 C 
ATOM     91  H21 non d ame      -9.537   9.496  66.764  0.00  0.00     0.037 H 
ATOM     92  H22 non d ame      -9.430  11.357  67.060  0.00  0.00     0.037 H 
BRANCH  90  93
ATOM     93  C17 non d ame      -7.688  10.219  67.569  0.00  0.00    -0.059 C 
ATOM     94  H23 non d ame      -7.480  10.205  68.639  0.00  0.00     0.038 H 
BRANCH  93  95
ATOM     95  C18 non d ame      -7.122   8.899  66.956  0.00  0.00    -0.073 C 
ATOM     96  H24 non d ame      -6.170   8.658  67.428  0.00  0.00     0.028 H 
ATOM     97  H25 non d ame      -7.829   8.086  67.128  0.00  0.00     0.028 H 
ATOM     98  H26 non d ame      -6.973   9.030  65.884  0.00  0.00     0.028 H 
ENDBRANCH  93  95
BRANCH  93  99
ATOM     99  C19 non d ame      -6.975  11.441  66.984  0.00  0.00    -0.073 C 
ATOM    100  H27 non d ame      -5.993  11.545  67.446  0.00  0.00     0.028 H 
ATOM    101  H28 non d ame      -6.859  11.312  65.907  0.00  0.00     0.028 H 
ATOM    102  H29 non d ame      -7.567  12.335  67.180  0.00  0.00     0.028 H 
ENDBRANCH  93  99
ENDBRANCH  90  93
ENDBRANCH   1  90
TORSDOF 26
ENDMDL
MODEL 4
REMARK VINA RESULT:      -6.6      2.875      7.131
REMARK  26 active torsions:
REMARK  status: ('A' for Active; 'I' for Inactive)
REMARK    1  A    between atoms: C2_2  and  C3_3 
REMARK    2  A    between atoms: C4_6  and  C5_7 
REMARK       I    between atoms: C5_7  and  N2_9 
REMARK    3  A    between atoms: N2_9  and  C6_10 
REMARK    4  A    between atoms: C6_10  and  C7_11 
REMARK    5  A    between atoms: C6_10  and  C8_13 
REMARK       I    between atoms: C7_11  and  N3_14 
REMARK    6  A    between atoms: N3_14  and  C9_15 
REMARK    7  A    between atoms: C9_15  and  C10_16 
REMARK    8  A    between atoms: C9_15  and  C11_18 
REMARK       I    between atoms: C10_16  and  N4_21 
REMARK    9  A    between atoms: C11_18  and  C12_19 
REMARK   10  A    between atoms: C11_18  and  C13_20 
REMARK   11  A    between atoms: N4_21  and  C14_22 
REMARK   12  A    between atoms: C14_22  and  C15_23 
REMARK   13  A    between atoms: C14_22  and  C16_25 
REMARK       I    between atoms: C15_23  and  N6_40 
REMARK   14  A    between atoms: C16_25  and  C17_26 
REMARK   15  A    between atoms: C17_26  and  C18_27 
REMARK   16  A    between atoms: C17_26  and  C19_28 
REMARK   17  A    between atoms: C20_29  and  C21_30 
REMARK   18  A    between atoms: C20_29  and  C24_33 
REMARK   19  A    between atoms: C20_29  and  N6_40 
REMARK   20  A    between atoms: C21_30  and  C22_31 
REMARK   21  A    between atoms: C22_31  and  C23_32 
REMARK   22  A    between atoms: C23_32  and  O8_43 
REMARK   23  A    between atoms: C24_33  and  C25_34 
REMARK   24  A    between atoms: C28_38  and  O6_39 
REMARK   25  A    between atoms: C29_42  and  O8_43 
REMARK   26  A    between atoms: C29_42  and  C35_49 
ROOT
ATOM      1  C14 non d ame     -10.715   9.400  70.361  0.00  0.00     0.089 C 
ATOM      2  H20 non d ame     -10.925   8.589  69.663  0.00  0.00     0.087 H 
ENDROOT
BRANCH   1   3
ATOM      3  N4  non d ame      -9.408   9.943  70.023  0.00  0.00    -0.346 N 
ATOM      4  C10 non d ame      -8.369   9.071  69.363  0.00  0.00     0.241 C 
ATOM      5  O4  non d ame      -8.608   7.935  69.116  0.00  0.00    -0.271 OA
ATOM      6  H19 non d ame      -9.223  10.911  70.244  0.00  0.00     0.163 HD
BRANCH   4   7
ATOM      7  C9  non d ame      -7.023   9.651  69.014  0.00  0.00     0.092 C 
ATOM      8  H11 non d ame      -6.272   8.862  69.054  0.00  0.00     0.088 H 
BRANCH   7   9
ATOM      9  N3  non d ame      -7.050  10.156  67.638  0.00  0.00    -0.346 N 
ATOM     10  C7  non d ame      -6.543   9.341  66.562  0.00  0.00     0.240 C 
ATOM     11  O3  non d ame      -6.109   8.277  66.785  0.00  0.00    -0.271 OA
ATOM     12  H10 non d ame      -7.419  11.073  67.431  0.00  0.00     0.163 HD
BRANCH  10  13
ATOM     13  C6  non d ame      -6.570   9.885  65.100  0.00  0.00     0.086 C 
ATOM     14  H6  non d ame      -6.734   9.101  64.361  0.00  0.00     0.086 H 
BRANCH  13  15
ATOM     15  N2  non d ame      -7.675  10.820  64.966  0.00  0.00    -0.343 N 
ATOM     16  C5  non d ame      -9.001  10.322  64.593  0.00  0.00     0.273 C 
ATOM     17  O2  non d ame      -9.167   9.168  64.400  0.00  0.00    -0.266 OA
ATOM     18  H5  non d ame      -7.523  11.806  65.130  0.00  0.00     0.163 HD
BRANCH  16  19
ATOM     19  C4  non d ame     -10.178  11.299  64.449  0.00  0.00     0.154 A 
ATOM     20  C1  non d ame     -10.761  12.108  65.476  0.00  0.00    -0.017 A 
ATOM     21  C2  non d ame     -11.800  12.818  64.834  0.00  0.00     0.077 A 
ATOM     22  H1  non d ame     -10.474  12.169  66.526  0.00  0.00     0.091 H 
ATOM     23  O1  non d ame     -11.803  12.454  63.585  0.00  0.00    -0.218 OA
ATOM     24  N1  non d ame     -10.866  11.568  63.336  0.00  0.00    -0.123 NA
BRANCH  21  25
ATOM     25  C3  non d ame     -12.740  13.824  65.484  0.00  0.00    -0.029 C 
ATOM     26  H2  non d ame     -13.750  13.414  65.510  0.00  0.00     0.036 H 
ATOM     27  H3  non d ame     -12.405  14.030  66.501  0.00  0.00     0.036 H 
ATOM     28  H4  non d ame     -12.738  14.750  64.907  0.00  0.00     0.036 H 
ENDBRANCH  21  25
ENDBRANCH  16  19
ENDBRANCH  13  15
BRANCH  13  29
ATOM     29  C8  non d ame      -5.267  10.578  64.794  0.00  0.00    -0.049 C 
ATOM     30  H7  non d ame      -5.414  11.284  63.976  0.00  0.00     0.030 H 
ATOM     31  H8  non d ame      -4.924  11.114  65.679  0.00  0.00     0.030 H 
ATOM     32  H9  non d ame      -4.522   9.838  64.504  0.00  0.00     0.030 H 
ENDBRANCH  13  29
ENDBRANCH  10  13
ENDBRANCH   7   9
BRANCH   7  33
ATOM     33  C11 non d ame      -6.695  10.821  69.987  0.00  0.00    -0.033 C 
ATOM     34  H12 non d ame      -7.522  10.904  70.692  0.00  0.00     0.042 H 
BRANCH  33  35
ATOM     35  C12 non d ame      -5.403  10.529  70.813  0.00  0.00    -0.071 C 
ATOM     36  H13 non d ame      -5.669  10.001  71.729  0.00  0.00     0.028 H 
ATOM     37  H14 non d ame      -4.727   9.911  70.222  0.00  0.00     0.028 H 
ATOM     38  H15 non d ame      -4.912  11.468  71.064  0.00  0.00     0.028 H 
ENDBRANCH  33  35
BRANCH  33  39
ATOM     39  C13 non d ame      -6.580  12.175  69.216  0.00  0.00    -0.071 C 
ATOM     40  H16 non d ame      -7.298  12.887  69.621  0.00  0.00     0.028 H 
ATOM     41  H17 non d ame      -5.571  12.573  69.328  0.00  0.00     0.028 H 
ATOM     42  H18 non d ame      -6.789  12.009  68.159  0.00  0.00     0.028 H 
ENDBRANCH  33  39
ENDBRANCH   7  33
ENDBRANCH   4   7
ENDBRANCH   1   3
BRANCH   1  43
ATOM     43  C15 non d ame     -11.765  10.544  70.267  0.00  0.00     0.240 C 
ATOM     44  O5  non d ame     -12.920  10.298  70.405  0.00  0.00    -0.271 OA
ATOM     45  N6  non d ame     -11.331  11.946  70.011  0.00  0.00    -0.355 N 
ATOM     46  H46 non d ame     -10.352  12.168  69.897  0.00  0.00     0.162 HD
BRANCH  45  47
ATOM     47  C20 non d ame     -12.342  13.023  69.925  0.00  0.00     0.013 C 
ATOM     48  H30 non d ame     -13.194  12.639  69.365  0.00  0.00     0.072 H 
BRANCH  47  49
ATOM     49  C21 non d ame     -11.745  14.212  69.208  0.00  0.00    -0.038 C 
ATOM     50  H31 non d ame     -12.341  14.341  68.304  0.00  0.00     0.036 H 
ATOM     51  H32 non d ame     -11.700  15.010  69.950  0.00  0.00     0.036 H 
BRANCH  49  52
ATOM     52  C22 non d ame     -10.293  13.966  68.743  0.00  0.00     0.018 C 
ATOM     53  H33 non d ame      -9.664  14.205  69.601  0.00  0.00     0.048 H 
ATOM     54  H34 non d ame     -10.284  12.959  68.324  0.00  0.00     0.048 H 
BRANCH  52  55
ATOM     55  C23 non d ame      -9.834  14.910  67.598  0.00  0.00     0.259 C 
ATOM     56  O7  non d ame      -8.827  14.693  67.005  0.00  0.00    -0.265 OA
BRANCH  55  57
ATOM     57  O8  non d ame     -10.624  16.047  67.273  0.00  0.00    -0.317 OA
BRANCH  57  58
ATOM     58  C29 non d ame     -10.207  16.726  66.085  0.00  0.00     0.052 C 
ATOM     59  H47 non d ame      -9.448  16.088  65.632  0.00  0.00     0.082 H 
ATOM     60  H48 non d ame     -11.122  16.956  65.539  0.00  0.00     0.082 H 
BRANCH  58  61
ATOM     61  C35 non d ame      -9.538  18.061  66.506  0.00  0.00    -0.034 A 
ATOM     62  C30 non d ame      -8.154  18.195  66.454  0.00  0.00    -0.075 A 
ATOM     63  C31 non d ame      -7.553  19.394  66.833  0.00  0.00    -0.082 A 
ATOM     64  H49 non d ame      -7.541  17.360  66.115  0.00  0.00     0.084 H 
ATOM     65  C32 non d ame      -8.342  20.462  67.268  0.00  0.00    -0.083 A 
ATOM     66  H50 non d ame      -6.469  19.496  66.788  0.00  0.00     0.083 H 
ATOM     67  C33 non d ame      -9.722  20.324  67.323  0.00  0.00    -0.082 A 
ATOM     68  H51 non d ame      -7.880  21.404  67.566  0.00  0.00     0.083 H 
ATOM     69  C34 non d ame     -10.327  19.127  66.943  0.00  0.00    -0.075 A 
ATOM     70  H52 non d ame     -10.334  21.158  67.665  0.00  0.00     0.083 H 
ATOM     71  H53 non d ame     -11.412  19.027  66.987  0.00  0.00     0.084 H 
ENDBRANCH  58  61
ENDBRANCH  57  58
ENDBRANCH  55  57
ENDBRANCH  52  55
ENDBRANCH  49  52
ENDBRANCH  47  49
BRANCH  47  72
ATOM     72  C24 non d ame     -12.774  13.438  71.330  0.00  0.00    -0.039 C 
ATOM     73  H35 non d ame     -13.794  13.067  71.441  0.00  0.00     0.036 H 
ATOM     74  H36 non d ame     -11.989  13.078  71.994  0.00  0.00     0.036 H 
BRANCH  72  75
ATOM     75  C25 non d ame     -12.832  15.031  71.485  0.00  0.00    -0.001 C 
ATOM     76  C26 non d ame     -11.814  15.514  72.683  0.00  0.00    -0.035 C 
ATOM     77  C27 non d ame     -12.495  16.313  73.539  0.00  0.00     0.085 C 
ATOM     78  H38 non d ame     -11.532  14.661  73.301  0.00  0.00     0.036 H 
ATOM     79  H39 non d ame     -11.045  16.172  72.278  0.00  0.00     0.036 H 
ATOM     80  N5  non d ame     -13.962  16.156  73.217  0.00  0.00    -0.049 N 
ATOM     81  H40 non d ame     -12.304  15.907  74.533  0.00  0.00     0.075 H 
ATOM     82  H41 non d ame     -12.186  17.329  73.297  0.00  0.00     0.075 H 
ATOM     83  C28 non d ame     -14.025  15.430  71.777  0.00  0.00     0.193 C 
ATOM     84  H42 non d ame     -14.341  15.528  73.911  0.00  0.00     0.280 HD
ATOM     85  H43 non d ame     -14.336  17.090  73.123  0.00  0.00     0.280 HD
ATOM     86  H44 non d ame     -14.268  16.000  70.880  0.00  0.00     0.129 H 
ATOM     87  H37 non d ame     -12.747  15.543  70.527  0.00  0.00     0.046 H 
BRANCH  83  88
ATOM     88  O6  non d ame     -14.961  14.351  71.809  0.00  0.00    -0.369 OA
ATOM     89  H45 non d ame     -15.814  14.658  71.495  0.00  0.00     0.212 HD
ENDBRANCH  83  88
ENDBRANCH  72  75
ENDBRANCH  47  72
ENDBRANCH  45  47
ENDBRANCH   1  43
BRANCH   1  90
ATOM     90  C16 non d ame     -10.675   8.859  71.782  0.00  0.00    -0.035 C 
ATOM     91  H21 non d ame      -9.627   8.630  71.974  0.00  0.00     0.037 H 
ATOM     92  H22 non d ame     -11.190   9.604  72.389  0.00  0.00     0.037 H 
BRANCH  90  93
ATOM     93  C17 non d ame     -11.460   7.521  71.965  0.00  0.00    -0.059 C 
ATOM     94  H23 non d ame     -12.457   7.769  72.327  0.00  0.00     0.038 H 
BRANCH  93  95
ATOM     95  C18 non d ame     -11.621   6.744  70.619  0.00  0.00    -0.073 C 
ATOM     96  H24 non d ame     -11.586   7.447  69.787  0.00  0.00     0.028 H 
ATOM     97  H25 non d ame     -10.812   6.020  70.518  0.00  0.00     0.028 H 
ATOM     98  H26 non d ame     -12.578   6.222  70.614  0.00  0.00     0.028 H 
ENDBRANCH  93  95
BRANCH  93  99
ATOM     99  C19 non d ame     -10.797   6.639  73.026  0.00  0.00    -0.073 C 
ATOM    100  H27 non d ame      -9.726   6.842  73.050  0.00  0.00     0.028 H 
ATOM    101  H28 non d ame     -11.231   6.858  74.002  0.00  0.00     0.028 H 
ATOM    102  H29 non d ame     -10.963   5.590  72.783  0.00  0.00     0.028 H 
ENDBRANCH  93  99
ENDBRANCH  90  93
ENDBRANCH   1  90
TORSDOF 26
ENDMDL
MODEL 5
REMARK VINA RESULT:      -6.5      3.000      8.924
REMARK  26 active torsions:
REMARK  status: ('A' for Active; 'I' for Inactive)
REMARK    1  A    between atoms: C2_2  and  C3_3 
REMARK    2  A    between atoms: C4_6  and  C5_7 
REMARK       I    between atoms: C5_7  and  N2_9 
REMARK    3  A    between atoms: N2_9  and  C6_10 
REMARK    4  A    between atoms: C6_10  and  C7_11 
REMARK    5  A    between atoms: C6_10  and  C8_13 
REMARK       I    between atoms: C7_11  and  N3_14 
REMARK    6  A    between atoms: N3_14  and  C9_15 
REMARK    7  A    between atoms: C9_15  and  C10_16 
REMARK    8  A    between atoms: C9_15  and  C11_18 
REMARK       I    between atoms: C10_16  and  N4_21 
REMARK    9  A    between atoms: C11_18  and  C12_19 
REMARK   10  A    between atoms: C11_18  and  C13_20 
REMARK   11  A    between atoms: N4_21  and  C14_22 
REMARK   12  A    between atoms: C14_22  and  C15_23 
REMARK   13  A    between atoms: C14_22  and  C16_25 
REMARK       I    between atoms: C15_23  and  N6_40 
REMARK   14  A    between atoms: C16_25  and  C17_26 
REMARK   15  A    between atoms: C17_26  and  C18_27 
REMARK   16  A    between atoms: C17_26  and  C19_28 
REMARK   17  A    between atoms: C20_29  and  C21_30 
REMARK   18  A    between atoms: C20_29  and  C24_33 
REMARK   19  A    between atoms: C20_29  and  N6_40 
REMARK   20  A    between atoms: C21_30  and  C22_31 
REMARK   21  A    between atoms: C22_31  and  C23_32 
REMARK   22  A    between atoms: C23_32  and  O8_43 
REMARK   23  A    between atoms: C24_33  and  C25_34 
REMARK   24  A    between atoms: C28_38  and  O6_39 
REMARK   25  A    between atoms: C29_42  and  O8_43 
REMARK   26  A    between atoms: C29_42  and  C35_49 
ROOT
ATOM      1  C14 non d ame      -9.195   7.102  66.546  0.00  0.00     0.089 C 
ATOM      2  H20 non d ame      -9.770   6.625  65.752  0.00  0.00     0.087 H 
ENDROOT
BRANCH   1   3
ATOM      3  N4  non d ame      -8.745   8.393  66.045  0.00  0.00    -0.346 N 
ATOM      4  C10 non d ame      -8.207   8.520  64.643  0.00  0.00     0.241 C 
ATOM      5  O4  non d ame      -8.144   7.569  63.935  0.00  0.00    -0.271 OA
ATOM      6  H19 non d ame      -8.806   9.190  66.664  0.00  0.00     0.163 HD
BRANCH   4   7
ATOM      7  C9  non d ame      -7.752   9.865  64.139  0.00  0.00     0.092 C 
ATOM      8  H11 non d ame      -7.802   9.876  63.050  0.00  0.00     0.088 H 
BRANCH   7   9
ATOM      9  N3  non d ame      -8.664  10.904  64.626  0.00  0.00    -0.346 N 
ATOM     10  C7  non d ame      -9.857  11.222  63.880  0.00  0.00     0.240 C 
ATOM     11  O3  non d ame     -10.097  10.653  62.886  0.00  0.00    -0.271 OA
ATOM     12  H10 non d ame      -8.469  11.405  65.481  0.00  0.00     0.163 HD
BRANCH  10  13
ATOM     13  C6  non d ame     -10.822  12.332  64.401  0.00  0.00     0.086 C 
ATOM     14  H6  non d ame     -11.312  12.059  65.336  0.00  0.00     0.086 H 
BRANCH  13  15
ATOM     15  N2  non d ame     -10.055  13.536  64.670  0.00  0.00    -0.343 N 
ATOM     16  C5  non d ame     -10.659  14.617  65.452  0.00  0.00     0.273 C 
ATOM     17  O2  non d ame     -11.764  14.508  65.859  0.00  0.00    -0.266 OA
ATOM     18  H5  non d ame      -9.112  13.622  64.316  0.00  0.00     0.163 HD
BRANCH  16  19
ATOM     19  C4  non d ame      -9.859  15.895  65.745  0.00  0.00     0.154 A 
ATOM     20  C1  non d ame      -8.589  15.990  66.400  0.00  0.00    -0.017 A 
ATOM     21  C2  non d ame      -8.293  17.371  66.419  0.00  0.00     0.077 A 
ATOM     22  H1  non d ame      -7.978  15.181  66.799  0.00  0.00     0.091 H 
ATOM     23  O1  non d ame      -9.281  17.988  65.840  0.00  0.00    -0.218 OA
ATOM     24  N1  non d ame     -10.207  17.148  65.439  0.00  0.00    -0.123 NA
BRANCH  21  25
ATOM     25  C3  non d ame      -7.045  18.018  67.007  0.00  0.00    -0.029 C 
ATOM     26  H2  non d ame      -7.336  18.834  67.669  0.00  0.00     0.036 H 
ATOM     27  H3  non d ame      -6.484  17.274  67.573  0.00  0.00     0.036 H 
ATOM     28  H4  non d ame      -6.423  18.408  66.202  0.00  0.00     0.036 H 
ENDBRANCH  21  25
ENDBRANCH  16  19
ENDBRANCH  13  15
BRANCH  13  29
ATOM     29  C8  non d ame     -11.877  12.612  63.362  0.00  0.00    -0.049 C 
ATOM     30  H7  non d ame     -11.824  13.659  63.062  0.00  0.00     0.030 H 
ATOM     31  H8  non d ame     -11.709  11.977  62.492  0.00  0.00     0.030 H 
ATOM     32  H9  non d ame     -12.862  12.405  63.779  0.00  0.00     0.030 H 
ENDBRANCH  13  29
ENDBRANCH  10  13
ENDBRANCH   7   9
BRANCH   7  33
ATOM     33  C11 non d ame      -6.314  10.154  64.662  0.00  0.00    -0.033 C 
ATOM     34  H12 non d ame      -6.367  11.037  65.299  0.00  0.00     0.042 H 
BRANCH  33  35
ATOM     35  C12 non d ame      -5.780   8.977  65.537  0.00  0.00    -0.071 C 
ATOM     36  H13 non d ame      -5.214   9.377  66.378  0.00  0.00     0.028 H 
ATOM     37  H14 non d ame      -6.620   8.392  65.910  0.00  0.00     0.028 H 
ATOM     38  H15 non d ame      -5.133   8.341  64.933  0.00  0.00     0.028 H 
ENDBRANCH  33  35
BRANCH  33  39
ATOM     39  C13 non d ame      -5.342  10.469  63.480  0.00  0.00    -0.071 C 
ATOM     40  H16 non d ame      -4.325  10.199  63.765  0.00  0.00     0.028 H 
ATOM     41  H17 non d ame      -5.638   9.893  62.603  0.00  0.00     0.028 H 
ATOM     42  H18 non d ame      -5.385  11.533  63.248  0.00  0.00     0.028 H 
ENDBRANCH  33  39
ENDBRANCH   7  33
ENDBRANCH   4   7
ENDBRANCH   1   3
BRANCH   1  43
ATOM     43  C15 non d ame     -10.046   7.337  67.827  0.00  0.00     0.240 C 
ATOM     44  O5  non d ame     -10.973   6.630  68.059  0.00  0.00    -0.271 OA
ATOM     45  N6  non d ame      -9.699   8.438  68.770  0.00  0.00    -0.355 N 
ATOM     46  H46 non d ame      -8.911   9.042  68.586  0.00  0.00     0.162 HD
BRANCH  45  47
ATOM     47  C20 non d ame     -10.517   8.647  69.984  0.00  0.00     0.013 C 
ATOM     48  H30 non d ame     -11.354   7.950  69.950  0.00  0.00     0.072 H 
BRANCH  47  49
ATOM     49  C21 non d ame     -11.031  10.069  70.002  0.00  0.00    -0.038 C 
ATOM     50  H31 non d ame     -11.948  10.044  70.591  0.00  0.00     0.036 H 
ATOM     51  H32 non d ame     -10.190  10.682  70.328  0.00  0.00     0.036 H 
BRANCH  49  52
ATOM     52  C22 non d ame     -11.426  10.581  68.600  0.00  0.00     0.018 C 
ATOM     53  H33 non d ame     -10.836   9.996  67.894  0.00  0.00     0.048 H 
ATOM     54  H34 non d ame     -12.515  10.539  68.566  0.00  0.00     0.048 H 
BRANCH  52  55
ATOM     55  C23 non d ame     -11.047  12.067  68.346  0.00  0.00     0.259 C 
ATOM     56  O7  non d ame     -10.007  12.346  67.843  0.00  0.00    -0.265 OA
BRANCH  55  57
ATOM     57  O8  non d ame     -11.952  13.093  68.734  0.00  0.00    -0.317 OA
BRANCH  57  58
ATOM     58  C29 non d ame     -11.318  14.254  69.277  0.00  0.00     0.052 C 
ATOM     59  H47 non d ame     -10.270  13.984  69.408  0.00  0.00     0.082 H 
ATOM     60  H48 non d ame     -11.590  15.076  68.615  0.00  0.00     0.082 H 
BRANCH  58  61
ATOM     61  C35 non d ame     -11.934  14.527  70.675  0.00  0.00    -0.034 A 
ATOM     62  C30 non d ame     -11.628  15.702  71.354  0.00  0.00    -0.075 A 
ATOM     63  C31 non d ame     -12.181  15.946  72.610  0.00  0.00    -0.082 A 
ATOM     64  H49 non d ame     -10.955  16.431  70.902  0.00  0.00     0.084 H 
ATOM     65  C32 non d ame     -13.041  15.009  73.189  0.00  0.00    -0.083 A 
ATOM     66  H50 non d ame     -11.941  16.869  73.139  0.00  0.00     0.083 H 
ATOM     67  C33 non d ame     -13.341  13.837  72.508  0.00  0.00    -0.082 A 
ATOM     68  H51 non d ame     -13.478  15.193  74.170  0.00  0.00     0.083 H 
ATOM     69  C34 non d ame     -12.792  13.589  71.252  0.00  0.00    -0.075 A 
ATOM     70  H52 non d ame     -14.011  13.106  72.963  0.00  0.00     0.083 H 
ATOM     71  H53 non d ame     -13.033  12.666  70.724  0.00  0.00     0.084 H 
ENDBRANCH  58  61
ENDBRANCH  57  58
ENDBRANCH  55  57
ENDBRANCH  52  55
ENDBRANCH  49  52
ENDBRANCH  47  49
BRANCH  47  72
ATOM     72  C24 non d ame      -9.668   8.397  71.229  0.00  0.00    -0.039 C 
ATOM     73  H35 non d ame      -8.637   8.568  70.916  0.00  0.00     0.036 H 
ATOM     74  H36 non d ame     -10.109   9.014  72.011  0.00  0.00     0.036 H 
BRANCH  72  75
ATOM     75  C25 non d ame      -9.766   6.874  71.716  0.00  0.00    -0.001 C 
ATOM     76  C26 non d ame     -11.268   6.282  71.403  0.00  0.00    -0.035 C 
ATOM     77  C27 non d ame     -11.763   5.727  72.535  0.00  0.00     0.085 C 
ATOM     78  H38 non d ame     -11.957   7.100  71.197  0.00  0.00     0.036 H 
ATOM     79  H39 non d ame     -11.201   5.439  70.715  0.00  0.00     0.036 H 
ATOM     80  N5  non d ame     -10.876   6.176  73.671  0.00  0.00    -0.049 N 
ATOM     81  H40 non d ame     -12.755   6.164  72.664  0.00  0.00     0.075 H 
ATOM     82  H41 non d ame     -11.655   4.651  72.404  0.00  0.00     0.075 H 
ATOM     83  C28 non d ame      -9.543   6.774  72.984  0.00  0.00     0.193 C 
ATOM     84  H42 non d ame     -11.364   6.928  74.135  0.00  0.00     0.280 HD
ATOM     85  H43 non d ame     -10.627   5.343  74.186  0.00  0.00     0.280 HD
ATOM     86  H44 non d ame      -8.618   6.198  72.978  0.00  0.00     0.129 H 
ATOM     87  H37 non d ame      -8.918   6.277  71.381  0.00  0.00     0.046 H 
BRANCH  83  88
ATOM     88  O6  non d ame      -9.207   8.031  73.573  0.00  0.00    -0.369 OA
ATOM     89  H45 non d ame      -9.555   8.742  73.031  0.00  0.00     0.212 HD
ENDBRANCH  83  88
ENDBRANCH  72  75
ENDBRANCH  47  72
ENDBRANCH  45  47
ENDBRANCH   1  43
BRANCH   1  90
ATOM     90  C16 non d ame      -7.982   6.252  66.886  0.00  0.00    -0.035 C 
ATOM     91  H21 non d ame      -7.128   6.789  66.474  0.00  0.00     0.037 H 
ATOM     92  H22 non d ame      -8.046   6.074  67.960  0.00  0.00     0.037 H 
BRANCH  90  93
ATOM     93  C17 non d ame      -7.991   4.847  66.205  0.00  0.00    -0.059 C 
ATOM     94  H23 non d ame      -7.175   4.825  65.482  0.00  0.00     0.038 H 
BRANCH  93  95
ATOM     95  C18 non d ame      -7.749   3.693  67.231  0.00  0.00    -0.073 C 
ATOM     96  H24 non d ame      -7.281   4.097  68.128  0.00  0.00     0.028 H 
ATOM     97  H25 non d ame      -8.703   3.235  67.493  0.00  0.00     0.028 H 
ATOM     98  H26 non d ame      -7.096   2.942  66.785  0.00  0.00     0.028 H 
ENDBRANCH  93  95
BRANCH  93  99
ATOM     99  C19 non d ame      -9.292   4.623  65.430  0.00  0.00    -0.073 C 
ATOM    100  H27 non d ame      -9.670   5.580  65.071  0.00  0.00     0.028 H 
ATOM    101  H28 non d ame      -9.100   3.966  64.581  0.00  0.00     0.028 H 
ATOM    102  H29 non d ame     -10.031   4.163  66.085  0.00  0.00     0.028 H 
ENDBRANCH  93  99
ENDBRANCH  90  93
ENDBRANCH   1  90
TORSDOF 26
ENDMDL
MODEL 6
REMARK VINA RESULT:      -6.5      2.216      7.687
REMARK  26 active torsions:
REMARK  status: ('A' for Active; 'I' for Inactive)
REMARK    1  A    between atoms: C2_2  and  C3_3 
REMARK    2  A    between atoms: C4_6  and  C5_7 
REMARK       I    between atoms: C5_7  and  N2_9 
REMARK    3  A    between atoms: N2_9  and  C6_10 
REMARK    4  A    between atoms: C6_10  and  C7_11 
REMARK    5  A    between atoms: C6_10  and  C8_13 
REMARK       I    between atoms: C7_11  and  N3_14 
REMARK    6  A    between atoms: N3_14  and  C9_15 
REMARK    7  A    between atoms: C9_15  and  C10_16 
REMARK    8  A    between atoms: C9_15  and  C11_18 
REMARK       I    between atoms: C10_16  and  N4_21 
REMARK    9  A    between atoms: C11_18  and  C12_19 
REMARK   10  A    between atoms: C11_18  and  C13_20 
REMARK   11  A    between atoms: N4_21  and  C14_22 
REMARK   12  A    between atoms: C14_22  and  C15_23 
REMARK   13  A    between atoms: C14_22  and  C16_25 
REMARK       I    between atoms: C15_23  and  N6_40 
REMARK   14  A    between atoms: C16_25  and  C17_26 
REMARK   15  A    between atoms: C17_26  and  C18_27 
REMARK   16  A    between atoms: C17_26  and  C19_28 
REMARK   17  A    between atoms: C20_29  and  C21_30 
REMARK   18  A    between atoms: C20_29  and  C24_33 
REMARK   19  A    between atoms: C20_29  and  N6_40 
REMARK   20  A    between atoms: C21_30  and  C22_31 
REMARK   21  A    between atoms: C22_31  and  C23_32 
REMARK   22  A    between atoms: C23_32  and  O8_43 
REMARK   23  A    between atoms: C24_33  and  C25_34 
REMARK   24  A    between atoms: C28_38  and  O6_39 
REMARK   25  A    between atoms: C29_42  and  O8_43 
REMARK   26  A    between atoms: C29_42  and  C35_49 
ROOT
ATOM      1  C14 non d ame      -7.143  12.736  68.139  0.00  0.00     0.089 C 
ATOM      2  H20 non d ame      -6.405  12.526  67.364  0.00  0.00     0.087 H 
ENDROOT
BRANCH   1   3
ATOM      3  N4  non d ame      -7.342  14.178  68.175  0.00  0.00    -0.346 N 
ATOM      4  C10 non d ame      -6.248  15.110  67.719  0.00  0.00     0.241 C 
ATOM      5  O4  non d ame      -5.213  14.676  67.330  0.00  0.00    -0.271 OA
ATOM      6  H19 non d ame      -8.228  14.526  68.511  0.00  0.00     0.163 HD
BRANCH   4   7
ATOM      7  C9  non d ame      -6.473  16.598  67.757  0.00  0.00     0.092 C 
ATOM      8  H11 non d ame      -6.208  17.026  66.791  0.00  0.00     0.088 H 
BRANCH   7   9
ATOM      9  N3  non d ame      -7.897  16.872  67.976  0.00  0.00    -0.346 N 
ATOM     10  C7  non d ame      -8.701  17.406  66.904  0.00  0.00     0.240 C 
ATOM     11  O3  non d ame      -8.218  17.623  65.861  0.00  0.00    -0.271 OA
ATOM     12  H10 non d ame      -8.327  16.691  68.872  0.00  0.00     0.163 HD
BRANCH  10  13
ATOM     13  C6  non d ame     -10.215  17.698  67.144  0.00  0.00     0.086 C 
ATOM     14  H6  non d ame     -10.861  17.187  66.430  0.00  0.00     0.086 H 
BRANCH  13  15
ATOM     15  N2  non d ame     -10.586  17.211  68.463  0.00  0.00    -0.343 N 
ATOM     16  C5  non d ame     -11.334  15.958  68.584  0.00  0.00     0.273 C 
ATOM     17  O2  non d ame     -11.635  15.351  67.616  0.00  0.00    -0.266 OA
ATOM     18  H5  non d ame     -10.326  17.737  69.285  0.00  0.00     0.163 HD
BRANCH  16  19
ATOM     19  C4  non d ame     -11.731  15.430  69.972  0.00  0.00     0.154 A 
ATOM     20  C1  non d ame     -11.732  16.156  71.205  0.00  0.00    -0.017 A 
ATOM     21  C2  non d ame     -12.175  15.227  72.173  0.00  0.00     0.077 A 
ATOM     22  H1  non d ame     -11.453  17.196  71.372  0.00  0.00     0.091 H 
ATOM     23  O1  non d ame     -12.401  14.104  71.557  0.00  0.00    -0.218 OA
ATOM     24  N1  non d ame     -12.149  14.197  70.272  0.00  0.00    -0.123 NA
BRANCH  21  25
ATOM     25  C3  non d ame     -12.356  15.493  73.662  0.00  0.00    -0.029 C 
ATOM     26  H2  non d ame     -11.386  15.705  74.114  0.00  0.00     0.036 H 
ATOM     27  H3  non d ame     -13.016  16.349  73.800  0.00  0.00     0.036 H 
ATOM     28  H4  non d ame     -12.794  14.615  74.138  0.00  0.00     0.036 H 
ENDBRANCH  21  25
ENDBRANCH  16  19
ENDBRANCH  13  15
BRANCH  13  29
ATOM     29  C8  non d ame     -10.464  19.182  67.053  0.00  0.00    -0.049 C 
ATOM     30  H7  non d ame     -10.023  19.678  67.918  0.00  0.00     0.030 H 
ATOM     31  H8  non d ame     -10.012  19.571  66.141  0.00  0.00     0.030 H 
ATOM     32  H9  non d ame     -11.537  19.369  67.036  0.00  0.00     0.030 H 
ENDBRANCH  13  29
ENDBRANCH  10  13
ENDBRANCH   7   9
BRANCH   7  33
ATOM     33  C11 non d ame      -5.644  17.219  68.920  0.00  0.00    -0.033 C 
ATOM     34  H12 non d ame      -4.606  17.267  68.593  0.00  0.00     0.042 H 
BRANCH  33  35
ATOM     35  C12 non d ame      -6.107  18.676  69.233  0.00  0.00    -0.071 C 
ATOM     36  H13 non d ame      -6.648  18.690  70.180  0.00  0.00     0.028 H 
ATOM     37  H14 non d ame      -5.235  19.326  69.305  0.00  0.00     0.028 H 
ATOM     38  H15 non d ame      -6.760  19.029  68.436  0.00  0.00     0.028 H 
ENDBRANCH  33  35
BRANCH  33  39
ATOM     39  C13 non d ame      -5.708  16.318  70.195  0.00  0.00    -0.071 C 
ATOM     40  H16 non d ame      -4.709  15.952  70.431  0.00  0.00     0.028 H 
ATOM     41  H17 non d ame      -6.089  16.901  71.034  0.00  0.00     0.028 H 
ATOM     42  H18 non d ame      -6.371  15.472  70.009  0.00  0.00     0.028 H 
ENDBRANCH  33  39
ENDBRANCH   7  33
ENDBRANCH   4   7
ENDBRANCH   1   3
BRANCH   1  43
ATOM     43  C15 non d ame      -8.510  12.054  67.848  0.00  0.00     0.240 C 
ATOM     44  O5  non d ame      -9.504  12.494  68.329  0.00  0.00    -0.271 OA
ATOM     45  N6  non d ame      -8.582  10.857  66.963  0.00  0.00    -0.355 N 
ATOM     46  H46 non d ame      -7.745  10.477  66.545  0.00  0.00     0.162 HD
BRANCH  45  47
ATOM     47  C20 non d ame      -9.890  10.221  66.695  0.00  0.00     0.013 C 
ATOM     48  H30 non d ame     -10.642  10.735  67.294  0.00  0.00     0.072 H 
BRANCH  47  49
ATOM     49  C21 non d ame      -9.825   8.762  67.088  0.00  0.00    -0.038 C 
ATOM     50  H31 non d ame     -10.682   8.595  67.741  0.00  0.00     0.036 H 
ATOM     51  H32 non d ame      -9.736   8.209  66.153  0.00  0.00     0.036 H 
BRANCH  49  52
ATOM     52  C22 non d ame      -8.570   8.420  67.920  0.00  0.00     0.018 C 
ATOM     53  H33 non d ame      -7.861   7.982  67.217  0.00  0.00     0.048 H 
ATOM     54  H34 non d ame      -8.312   9.334  68.455  0.00  0.00     0.048 H 
BRANCH  52  55
ATOM     55  C23 non d ame      -8.815   7.340  69.010  0.00  0.00     0.259 C 
ATOM     56  O7  non d ame      -8.741   6.185  68.742  0.00  0.00    -0.265 OA
BRANCH  55  57
ATOM     57  O8  non d ame      -9.144   7.747  70.332  0.00  0.00    -0.317 OA
BRANCH  57  58
ATOM     58  C29 non d ame     -10.369   7.197  70.824  0.00  0.00     0.052 C 
ATOM     59  H47 non d ame     -10.770   6.594  70.008  0.00  0.00     0.082 H 
ATOM     60  H48 non d ame     -10.121   6.729  71.776  0.00  0.00     0.082 H 
BRANCH  58  61
ATOM     61  C35 non d ame     -11.348   8.370  71.094  0.00  0.00    -0.034 A 
ATOM     62  C30 non d ame     -12.417   8.199  71.968  0.00  0.00    -0.075 A 
ATOM     63  C31 non d ame     -13.296   9.254  72.210  0.00  0.00    -0.082 A 
ATOM     64  H49 non d ame     -12.565   7.240  72.463  0.00  0.00     0.084 H 
ATOM     65  C32 non d ame     -13.105  10.482  71.573  0.00  0.00    -0.083 A 
ATOM     66  H50 non d ame     -14.131   9.117  72.897  0.00  0.00     0.083 H 
ATOM     67  C33 non d ame     -12.039  10.647  70.699  0.00  0.00    -0.082 A 
ATOM     68  H51 non d ame     -13.787  11.312  71.757  0.00  0.00     0.083 H 
ATOM     69  C34 non d ame     -11.156   9.597  70.455  0.00  0.00    -0.075 A 
ATOM     70  H52 non d ame     -11.893  11.607  70.201  0.00  0.00     0.083 H 
ATOM     71  H53 non d ame     -10.320   9.735  69.769  0.00  0.00     0.084 H 
ENDBRANCH  58  61
ENDBRANCH  57  58
ENDBRANCH  55  57
ENDBRANCH  52  55
ENDBRANCH  49  52
ENDBRANCH  47  49
BRANCH  47  72
ATOM     72  C24 non d ame     -10.225  10.334  65.210  0.00  0.00    -0.039 C 
ATOM     73  H35 non d ame      -9.378   9.889  64.686  0.00  0.00     0.036 H 
ATOM     74  H36 non d ame     -11.220   9.902  65.103  0.00  0.00     0.036 H 
BRANCH  72  75
ATOM     75  C25 non d ame     -10.320  11.862  64.739  0.00  0.00    -0.001 C 
ATOM     76  C26 non d ame     -11.586  12.600  65.485  0.00  0.00    -0.035 C 
ATOM     77  C27 non d ame     -12.351  13.209  64.547  0.00  0.00     0.085 C 
ATOM     78  H38 non d ame     -12.255  11.854  65.913  0.00  0.00     0.036 H 
ATOM     79  H39 non d ame     -11.229  13.428  66.098  0.00  0.00     0.036 H 
ATOM     80  N5  non d ame     -11.907  12.682  63.204  0.00  0.00    -0.049 N 
ATOM     81  H40 non d ame     -13.371  12.875  64.740  0.00  0.00     0.075 H 
ATOM     82  H41 non d ame     -12.103  14.268  64.612  0.00  0.00     0.075 H 
ATOM     83  C28 non d ame     -10.492  11.948  63.462  0.00  0.00     0.193 C 
ATOM     84  H42 non d ame     -12.585  11.985  62.932  0.00  0.00     0.280 HD
ATOM     85  H43 non d ame     -11.748  13.489  62.618  0.00  0.00     0.280 HD
ATOM     86  H44 non d ame      -9.558  12.428  63.168  0.00  0.00     0.129 H 
ATOM     87  H37 non d ame      -9.356  12.369  64.781  0.00  0.00     0.046 H 
BRANCH  83  88
ATOM     88  O6  non d ame     -10.478  10.668  62.829  0.00  0.00    -0.369 OA
ATOM     89  H45 non d ame      -9.573  10.423  62.621  0.00  0.00     0.212 HD
ENDBRANCH  83  88
ENDBRANCH  72  75
ENDBRANCH  47  72
ENDBRANCH  45  47
ENDBRANCH   1  43
BRANCH   1  90
ATOM     90  C16 non d ame      -6.618  12.275  69.489  0.00  0.00    -0.035 C 
ATOM     91  H21 non d ame      -6.504  13.183  70.081  0.00  0.00     0.037 H 
ATOM     92  H22 non d ame      -7.306  11.495  69.815  0.00  0.00     0.037 H 
BRANCH  90  93
ATOM     93  C17 non d ame      -5.204  11.614  69.419  0.00  0.00    -0.059 C 
ATOM     94  H23 non d ame      -4.471  12.369  69.702  0.00  0.00     0.038 H 
BRANCH  93  95
ATOM     95  C18 non d ame      -5.063  10.417  70.413  0.00  0.00    -0.073 C 
ATOM     96  H24 non d ame      -5.816  10.505  71.196  0.00  0.00     0.028 H 
ATOM     97  H25 non d ame      -5.206   9.479  69.874  0.00  0.00     0.028 H 
ATOM     98  H26 non d ame      -4.069  10.431  70.860  0.00  0.00     0.028 H 
ENDBRANCH  93  95
BRANCH  93  99
ATOM     99  C19 non d ame      -4.876  11.176  67.989  0.00  0.00    -0.073 C 
ATOM    100  H27 non d ame      -5.801  10.962  67.453  0.00  0.00     0.028 H 
ATOM    101  H28 non d ame      -4.337  11.976  67.479  0.00  0.00     0.028 H 
ATOM    102  H29 non d ame      -4.255  10.281  68.016  0.00  0.00     0.028 H 
ENDBRANCH  93  99
ENDBRANCH  90  93
ENDBRANCH   1  90
TORSDOF 26
ENDMDL
MODEL 7
REMARK VINA RESULT:      -6.5      2.956      7.496
REMARK  26 active torsions:
REMARK  status: ('A' for Active; 'I' for Inactive)
REMARK    1  A    between atoms: C2_2  and  C3_3 
REMARK    2  A    between atoms: C4_6  and  C5_7 
REMARK       I    between atoms: C5_7  and  N2_9 
REMARK    3  A    between atoms: N2_9  and  C6_10 
REMARK    4  A    between atoms: C6_10  and  C7_11 
REMARK    5  A    between atoms: C6_10  and  C8_13 
REMARK       I    between atoms: C7_11  and  N3_14 
REMARK    6  A    between atoms: N3_14  and  C9_15 
REMARK    7  A    between atoms: C9_15  and  C10_16 
REMARK    8  A    between atoms: C9_15  and  C11_18 
REMARK       I    between atoms: C10_16  and  N4_21 
REMARK    9  A    between atoms: C11_18  and  C12_19 
REMARK   10  A    between atoms: C11_18  and  C13_20 
REMARK   11  A    between atoms: N4_21  and  C14_22 
REMARK   12  A    between atoms: C14_22  and  C15_23 
REMARK   13  A    between atoms: C14_22  and  C16_25 
REMARK       I    between atoms: C15_23  and  N6_40 
REMARK   14  A    between atoms: C16_25  and  C17_26 
REMARK   15  A    between atoms: C17_26  and  C18_27 
REMARK   16  A    between atoms: C17_26  and  C19_28 
REMARK   17  A    between atoms: C20_29  and  C21_30 
REMARK   18  A    between atoms: C20_29  and  C24_33 
REMARK   19  A    between atoms: C20_29  and  N6_40 
REMARK   20  A    between atoms: C21_30  and  C22_31 
REMARK   21  A    between atoms: C22_31  and  C23_32 
REMARK   22  A    between atoms: C23_32  and  O8_43 
REMARK   23  A    between atoms: C24_33  and  C25_34 
REMARK   24  A    between atoms: C28_38  and  O6_39 
REMARK   25  A    between atoms: C29_42  and  O8_43 
REMARK   26  A    between atoms: C29_42  and  C35_49 
ROOT
ATOM      1  C14 non d ame      -7.373   9.736  67.726  0.00  0.00     0.089 C 
ATOM      2  H20 non d ame      -6.332   9.607  67.430  0.00  0.00     0.087 H 
ENDROOT
BRANCH   1   3
ATOM      3  N4  non d ame      -8.183   9.683  66.518  0.00  0.00    -0.346 N 
ATOM      4  C10 non d ame      -7.583  10.047  65.183  0.00  0.00     0.241 C 
ATOM      5  O4  non d ame      -6.447  10.382  65.107  0.00  0.00    -0.271 OA
ATOM      6  H19 non d ame      -9.148   9.398  66.605  0.00  0.00     0.163 HD
BRANCH   4   7
ATOM      7  C9  non d ame      -8.433   9.981  63.942  0.00  0.00     0.092 C 
ATOM      8  H11 non d ame      -9.059   9.089  63.983  0.00  0.00     0.088 H 
BRANCH   7   9
ATOM      9  N3  non d ame      -9.331  11.139  63.902  0.00  0.00    -0.346 N 
ATOM     10  C7  non d ame     -10.532  11.147  64.702  0.00  0.00     0.240 C 
ATOM     11  O3  non d ame     -10.791  10.230  65.381  0.00  0.00    -0.271 OA
ATOM     12  H10 non d ame      -9.122  11.937  63.320  0.00  0.00     0.163 HD
BRANCH  10  13
ATOM     13  C6  non d ame     -11.485  12.382  64.653  0.00  0.00     0.086 C 
ATOM     14  H6  non d ame     -12.286  12.325  65.390  0.00  0.00     0.086 H 
BRANCH  13  15
ATOM     15  N2  non d ame     -10.721  13.580  64.961  0.00  0.00    -0.343 N 
ATOM     16  C5  non d ame     -11.247  14.539  65.935  0.00  0.00     0.273 C 
ATOM     17  O2  non d ame     -12.285  14.340  66.463  0.00  0.00    -0.266 OA
ATOM     18  H5  non d ame      -9.836  13.743  64.504  0.00  0.00     0.163 HD
BRANCH  16  19
ATOM     19  C4  non d ame     -10.449  15.809  66.272  0.00  0.00     0.154 A 
ATOM     20  C1  non d ame     -10.211  16.362  67.570  0.00  0.00    -0.017 A 
ATOM     21  C2  non d ame      -9.433  17.518  67.336  0.00  0.00     0.077 A 
ATOM     22  H1  non d ame     -10.550  15.982  68.534  0.00  0.00     0.091 H 
ATOM     23  O1  non d ame      -9.251  17.608  66.051  0.00  0.00    -0.218 OA
ATOM     24  N1  non d ame      -9.835  16.623  65.409  0.00  0.00    -0.123 NA
BRANCH  21  25
ATOM     25  C3  non d ame      -8.906  18.479  68.393  0.00  0.00    -0.029 C 
ATOM     26  H2  non d ame      -7.940  18.874  68.076  0.00  0.00     0.036 H 
ATOM     27  H3  non d ame      -9.610  19.301  68.520  0.00  0.00     0.036 H 
ATOM     28  H4  non d ame      -8.789  17.950  69.339  0.00  0.00     0.036 H 
ENDBRANCH  21  25
ENDBRANCH  16  19
ENDBRANCH  13  15
BRANCH  13  29
ATOM     29  C8  non d ame     -12.094  12.496  63.279  0.00  0.00    -0.049 C 
ATOM     30  H7  non d ame     -13.148  12.757  63.369  0.00  0.00     0.030 H 
ATOM     31  H8  non d ame     -11.575  13.272  62.715  0.00  0.00     0.030 H 
ATOM     32  H9  non d ame     -11.999  11.543  62.759  0.00  0.00     0.030 H 
ENDBRANCH  13  29
ENDBRANCH  10  13
ENDBRANCH   7   9
BRANCH   7  33
ATOM     33  C11 non d ame      -7.517   9.996  62.684  0.00  0.00    -0.033 C 
ATOM     34  H12 non d ame      -6.486  10.076  63.029  0.00  0.00     0.042 H 
BRANCH  33  35
ATOM     35  C12 non d ame      -7.638   8.666  61.876  0.00  0.00    -0.071 C 
ATOM     36  H13 non d ame      -8.487   8.091  62.248  0.00  0.00     0.028 H 
ATOM     37  H14 non d ame      -7.790   8.894  60.821  0.00  0.00     0.028 H 
ATOM     38  H15 non d ame      -6.725   8.084  61.995  0.00  0.00     0.028 H 
ENDBRANCH  33  35
BRANCH  33  39
ATOM     39  C13 non d ame      -7.823  11.235  61.783  0.00  0.00    -0.071 C 
ATOM     40  H16 non d ame      -7.552  11.011  60.752  0.00  0.00     0.028 H 
ATOM     41  H17 non d ame      -8.886  11.470  61.837  0.00  0.00     0.028 H 
ATOM     42  H18 non d ame      -7.244  12.090  62.133  0.00  0.00     0.028 H 
ENDBRANCH  33  39
ENDBRANCH   7  33
ENDBRANCH   4   7
ENDBRANCH   1   3
BRANCH   1  43
ATOM     43  C15 non d ame      -7.852   8.615  68.693  0.00  0.00     0.240 C 
ATOM     44  O5  non d ame      -7.073   7.819  69.107  0.00  0.00    -0.271 OA
ATOM     45  N6  non d ame      -9.281   8.539  69.109  0.00  0.00    -0.355 N 
ATOM     46  H46 non d ame      -9.952   9.212  68.767  0.00  0.00     0.162 HD
BRANCH  45  47
ATOM     47  C20 non d ame      -9.721   7.468  70.029  0.00  0.00     0.013 C 
ATOM     48  H30 non d ame      -8.839   6.900  70.328  0.00  0.00     0.072 H 
BRANCH  47  49
ATOM     49  C21 non d ame     -10.698   6.564  69.313  0.00  0.00    -0.038 C 
ATOM     50  H31 non d ame     -10.229   5.580  69.292  0.00  0.00     0.036 H 
ATOM     51  H32 non d ame     -11.653   6.702  69.821  0.00  0.00     0.036 H 
BRANCH  49  52
ATOM     52  C22 non d ame     -10.924   6.971  67.841  0.00  0.00     0.018 C 
ATOM     53  H33 non d ame     -11.993   6.849  67.661  0.00  0.00     0.048 H 
ATOM     54  H34 non d ame     -10.462   7.953  67.732  0.00  0.00     0.048 H 
BRANCH  52  55
ATOM     55  C23 non d ame     -10.209   6.045  66.818  0.00  0.00     0.259 C 
ATOM     56  O7  non d ame     -10.656   4.975  66.558  0.00  0.00    -0.265 OA
BRANCH  55  57
ATOM     57  O8  non d ame      -9.005   6.486  66.203  0.00  0.00    -0.317 OA
BRANCH  57  58
ATOM     58  C29 non d ame      -8.457   5.557  65.264  0.00  0.00     0.052 C 
ATOM     59  H47 non d ame      -8.357   4.615  65.804  0.00  0.00     0.082 H 
ATOM     60  H48 non d ame      -9.097   5.615  64.384  0.00  0.00     0.082 H 
BRANCH  58  61
ATOM     61  C35 non d ame      -7.039   6.051  64.872  0.00  0.00    -0.034 A 
ATOM     62  C30 non d ame      -6.540   5.798  63.598  0.00  0.00    -0.075 A 
ATOM     63  C31 non d ame      -5.266   6.242  63.247  0.00  0.00    -0.082 A 
ATOM     64  H49 non d ame      -7.147   5.253  62.876  0.00  0.00     0.084 H 
ATOM     65  C32 non d ame      -4.489   6.939  64.176  0.00  0.00    -0.083 A 
ATOM     66  H50 non d ame      -4.879   6.045  62.247  0.00  0.00     0.083 H 
ATOM     67  C33 non d ame      -4.989   7.186  65.447  0.00  0.00    -0.082 A 
ATOM     68  H51 non d ame      -3.492   7.290  63.909  0.00  0.00     0.083 H 
ATOM     69  C34 non d ame      -6.263   6.746  65.802  0.00  0.00    -0.075 A 
ATOM     70  H52 non d ame      -4.379   7.728  66.170  0.00  0.00     0.083 H 
ATOM     71  H53 non d ame      -6.649   6.945  66.802  0.00  0.00     0.084 H 
ENDBRANCH  58  61
ENDBRANCH  57  58
ENDBRANCH  55  57
ENDBRANCH  52  55
ENDBRANCH  49  52
ENDBRANCH  47  49
BRANCH  47  72
ATOM     72  C24 non d ame     -10.397   8.083  71.253  0.00  0.00    -0.039 C 
ATOM     73  H35 non d ame     -10.454   7.279  71.987  0.00  0.00     0.036 H 
ATOM     74  H36 non d ame      -9.827   8.985  71.476  0.00  0.00     0.036 H 
BRANCH  72  75
ATOM     75  C25 non d ame     -11.898   8.540  70.933  0.00  0.00    -0.001 C 
ATOM     76  C26 non d ame     -11.965  10.176  70.781  0.00  0.00    -0.035 C 
ATOM     77  C27 non d ame     -12.954  10.648  71.578  0.00  0.00     0.085 C 
ATOM     78  H38 non d ame     -11.065  10.627  71.197  0.00  0.00     0.036 H 
ATOM     79  H39 non d ame     -12.296  10.445  69.778  0.00  0.00     0.036 H 
ATOM     80  N5  non d ame     -13.349   9.524  72.504  0.00  0.00    -0.049 N 
ATOM     81  H40 non d ame     -12.499  11.448  72.163  0.00  0.00     0.075 H 
ATOM     82  H41 non d ame     -13.786  10.867  70.910  0.00  0.00     0.075 H 
ATOM     83  C28 non d ame     -12.706   8.183  71.875  0.00  0.00     0.193 C 
ATOM     84  H42 non d ame     -12.900   9.711  73.389  0.00  0.00     0.280 HD
ATOM     85  H43 non d ame     -14.355   9.452  72.454  0.00  0.00     0.280 HD
ATOM     86  H44 non d ame     -13.331   7.468  71.340  0.00  0.00     0.129 H 
ATOM     87  H37 non d ame     -12.349   7.949  70.136  0.00  0.00     0.046 H 
BRANCH  83  88
ATOM     88  O6  non d ame     -12.047   7.428  72.893  0.00  0.00    -0.369 OA
ATOM     89  H45 non d ame     -11.491   6.760  72.486  0.00  0.00     0.212 HD
ENDBRANCH  83  88
ENDBRANCH  72  75
ENDBRANCH  47  72
ENDBRANCH  45  47
ENDBRANCH   1  43
BRANCH   1  90
ATOM     90  C16 non d ame      -7.556  11.093  68.387  0.00  0.00    -0.035 C 
ATOM     91  H21 non d ame      -7.998  10.883  69.362  0.00  0.00     0.037 H 
ATOM     92  H22 non d ame      -6.582  11.578  68.325  0.00  0.00     0.037 H 
BRANCH  90  93
ATOM     93  C17 non d ame      -8.562  12.024  67.638  0.00  0.00    -0.059 C 
ATOM     94  H23 non d ame      -8.793  11.559  66.680  0.00  0.00     0.038 H 
BRANCH  93  95
ATOM     95  C18 non d ame      -9.904  12.192  68.421  0.00  0.00    -0.073 C 
ATOM     96  H24 non d ame      -9.777  12.941  69.203  0.00  0.00     0.028 H 
ATOM     97  H25 non d ame     -10.688  12.513  67.734  0.00  0.00     0.028 H 
ATOM     98  H26 non d ame     -10.184  11.240  68.871  0.00  0.00     0.028 H 
ENDBRANCH  93  95
BRANCH  93  99
ATOM     99  C19 non d ame      -7.930  13.386  67.343  0.00  0.00    -0.073 C 
ATOM    100  H27 non d ame      -8.079  13.636  66.292  0.00  0.00     0.028 H 
ATOM    101  H28 non d ame      -8.399  14.148  67.967  0.00  0.00     0.028 H 
ATOM    102  H29 non d ame      -6.863  13.347  67.559  0.00  0.00     0.028 H 
ENDBRANCH  93  99
ENDBRANCH  90  93
ENDBRANCH   1  90
TORSDOF 26
ENDMDL
MODEL 8
REMARK VINA RESULT:      -6.4      3.982      8.620
REMARK  26 active torsions:
REMARK  status: ('A' for Active; 'I' for Inactive)
REMARK    1  A    between atoms: C2_2  and  C3_3 
REMARK    2  A    between atoms: C4_6  and  C5_7 
REMARK       I    between atoms: C5_7  and  N2_9 
REMARK    3  A    between atoms: N2_9  and  C6_10 
REMARK    4  A    between atoms: C6_10  and  C7_11 
REMARK    5  A    between atoms: C6_10  and  C8_13 
REMARK       I    between atoms: C7_11  and  N3_14 
REMARK    6  A    between atoms: N3_14  and  C9_15 
REMARK    7  A    between atoms: C9_15  and  C10_16 
REMARK    8  A    between atoms: C9_15  and  C11_18 
REMARK       I    between atoms: C10_16  and  N4_21 
REMARK    9  A    between atoms: C11_18  and  C12_19 
REMARK   10  A    between atoms: C11_18  and  C13_20 
REMARK   11  A    between atoms: N4_21  and  C14_22 
REMARK   12  A    between atoms: C14_22  and  C15_23 
REMARK   13  A    between atoms: C14_22  and  C16_25 
REMARK       I    between atoms: C15_23  and  N6_40 
REMARK   14  A    between atoms: C16_25  and  C17_26 
REMARK   15  A    between atoms: C17_26  and  C18_27 
REMARK   16  A    between atoms: C17_26  and  C19_28 
REMARK   17  A    between atoms: C20_29  and  C21_30 
REMARK   18  A    between atoms: C20_29  and  C24_33 
REMARK   19  A    between atoms: C20_29  and  N6_40 
REMARK   20  A    between atoms: C21_30  and  C22_31 
REMARK   21  A    between atoms: C22_31  and  C23_32 
REMARK   22  A    between atoms: C23_32  and  O8_43 
REMARK   23  A    between atoms: C24_33  and  C25_34 
REMARK   24  A    between atoms: C28_38  and  O6_39 
REMARK   25  A    between atoms: C29_42  and  O8_43 
REMARK   26  A    between atoms: C29_42  and  C35_49 
ROOT
ATOM      1  C14 non d ame      -7.612   7.907  65.255  0.00  0.00     0.089 C 
ATOM      2  H20 non d ame      -6.531   7.778  65.319  0.00  0.00     0.087 H 
ENDROOT
BRANCH   1   3
ATOM      3  N4  non d ame      -8.206   7.194  66.375  0.00  0.00    -0.346 N 
ATOM      4  C10 non d ame      -7.344   6.364  67.293  0.00  0.00     0.241 C 
ATOM      5  O4  non d ame      -6.175   6.284  67.108  0.00  0.00    -0.271 OA
ATOM      6  H19 non d ame      -9.204   7.273  66.514  0.00  0.00     0.163 HD
BRANCH   4   7
ATOM      7  C9  non d ame      -7.976   5.637  68.451  0.00  0.00     0.092 C 
ATOM      8  H11 non d ame      -7.271   4.902  68.840  0.00  0.00     0.088 H 
BRANCH   7   9
ATOM      9  N3  non d ame      -8.252   6.586  69.533  0.00  0.00    -0.346 N 
ATOM     10  C7  non d ame      -7.606   6.428  70.813  0.00  0.00     0.240 C 
ATOM     11  O3  non d ame      -6.863   5.541  70.990  0.00  0.00    -0.271 OA
ATOM     12  H10 non d ame      -8.892   7.355  69.396  0.00  0.00     0.163 HD
BRANCH  10  13
ATOM     13  C6  non d ame      -7.906   7.440  71.962  0.00  0.00     0.086 C 
ATOM     14  H6  non d ame      -7.550   8.446  71.741  0.00  0.00     0.086 H 
BRANCH  13  15
ATOM     15  N2  non d ame      -9.345   7.538  72.140  0.00  0.00    -0.343 N 
ATOM     16  C5  non d ame     -10.089   8.587  71.439  0.00  0.00     0.273 C 
ATOM     17  O2  non d ame      -9.520   9.349  70.736  0.00  0.00    -0.266 OA
ATOM     18  H5  non d ame      -9.823   6.884  72.744  0.00  0.00     0.163 HD
BRANCH  16  19
ATOM     19  C4  non d ame     -11.611   8.701  71.616  0.00  0.00     0.154 A 
ATOM     20  C1  non d ame     -12.566   7.635  71.604  0.00  0.00    -0.017 A 
ATOM     21  C2  non d ame     -13.815   8.262  71.808  0.00  0.00     0.077 A 
ATOM     22  H1  non d ame     -12.380   6.569  71.469  0.00  0.00     0.091 H 
ATOM     23  O1  non d ame     -13.592   9.539  71.924  0.00  0.00    -0.218 OA
ATOM     24  N1  non d ame     -12.314   9.819  71.815  0.00  0.00    -0.123 NA
BRANCH  21  25
ATOM     25  C3  non d ame     -15.170   7.571  71.881  0.00  0.00    -0.029 C 
ATOM     26  H2  non d ame     -15.251   7.026  72.821  0.00  0.00     0.036 H 
ATOM     27  H3  non d ame     -15.962   8.318  71.824  0.00  0.00     0.036 H 
ATOM     28  H4  non d ame     -15.268   6.874  71.048  0.00  0.00     0.036 H 
ENDBRANCH  21  25
ENDBRANCH  16  19
ENDBRANCH  13  15
BRANCH  13  29
ATOM     29  C8  non d ame      -7.259   6.963  73.238  0.00  0.00    -0.049 C 
ATOM     30  H7  non d ame      -8.024   6.570  73.908  0.00  0.00     0.030 H 
ATOM     31  H8  non d ame      -6.538   6.179  73.008  0.00  0.00     0.030 H 
ATOM     32  H9  non d ame      -6.749   7.797  73.719  0.00  0.00     0.030 H 
ENDBRANCH  13  29
ENDBRANCH  10  13
ENDBRANCH   7   9
BRANCH   7  33
ATOM     33  C11 non d ame      -9.309   4.981  67.987  0.00  0.00    -0.033 C 
ATOM     34  H12 non d ame      -9.403   5.151  66.914  0.00  0.00     0.042 H 
BRANCH  33  35
ATOM     35  C12 non d ame      -9.295   3.438  68.219  0.00  0.00    -0.071 C 
ATOM     36  H13 non d ame     -10.157   2.989  67.726  0.00  0.00     0.028 H 
ATOM     37  H14 non d ame      -8.380   3.017  67.804  0.00  0.00     0.028 H 
ATOM     38  H15 non d ame      -9.339   3.231  69.288  0.00  0.00     0.028 H 
ENDBRANCH  33  35
BRANCH  33  39
ATOM     39  C13 non d ame     -10.535   5.648  68.690  0.00  0.00    -0.071 C 
ATOM     40  H16 non d ame     -10.188   6.452  69.340  0.00  0.00     0.028 H 
ATOM     41  H17 non d ame     -11.209   6.056  67.937  0.00  0.00     0.028 H 
ATOM     42  H18 non d ame     -11.063   4.902  69.284  0.00  0.00     0.028 H 
ENDBRANCH  33  39
ENDBRANCH   7  33
ENDBRANCH   4   7
ENDBRANCH   1   3
BRANCH   1  43
ATOM     43  C15 non d ame      -8.031   9.403  65.341  0.00  0.00     0.240 C 
ATOM     44  O5  non d ame      -7.816  10.131  64.427  0.00  0.00    -0.271 OA
ATOM     45  N6  non d ame      -8.709   9.926  66.562  0.00  0.00    -0.355 N 
ATOM     46  H46 non d ame      -8.902   9.316  67.343  0.00  0.00     0.162 HD
BRANCH  45  47
ATOM     47  C20 non d ame      -9.103  11.350  66.628  0.00  0.00     0.013 C 
ATOM     48  H30 non d ame      -8.337  11.934  66.119  0.00  0.00     0.072 H 
BRANCH  47  49
ATOM     49  C21 non d ame      -9.200  11.774  68.076  0.00  0.00    -0.038 C 
ATOM     50  H31 non d ame      -9.852  11.044  68.554  0.00  0.00     0.036 H 
ATOM     51  H32 non d ame      -8.171  11.893  68.417  0.00  0.00     0.036 H 
BRANCH  49  52
ATOM     52  C22 non d ame      -9.880  13.149  68.253  0.00  0.00     0.018 C 
ATOM     53  H33 non d ame      -9.246  13.706  68.944  0.00  0.00     0.048 H 
ATOM     54  H34 non d ame     -10.049  13.527  67.244  0.00  0.00     0.048 H 
BRANCH  52  55
ATOM     55  C23 non d ame     -11.280  13.074  68.922  0.00  0.00     0.259 C 
ATOM     56  O7  non d ame     -11.556  12.170  69.643  0.00  0.00    -0.265 OA
BRANCH  55  57
ATOM     57  O8  non d ame     -12.236  14.093  68.655  0.00  0.00    -0.317 OA
BRANCH  57  58
ATOM     58  C29 non d ame     -11.864  15.384  69.146  0.00  0.00     0.052 C 
ATOM     59  H47 non d ame     -10.775  15.378  69.195  0.00  0.00     0.082 H 
ATOM     60  H48 non d ame     -12.377  16.102  68.506  0.00  0.00     0.082 H 
BRANCH  58  61
ATOM     61  C35 non d ame     -12.421  15.526  70.587  0.00  0.00    -0.034 A 
ATOM     62  C30 non d ame     -11.622  16.062  71.592  0.00  0.00    -0.075 A 
ATOM     63  C31 non d ame     -12.121  16.190  72.888  0.00  0.00    -0.082 A 
ATOM     64  H49 non d ame     -10.605  16.383  71.365  0.00  0.00     0.084 H 
ATOM     65  C32 non d ame     -13.424  15.777  73.177  0.00  0.00    -0.083 A 
ATOM     66  H50 non d ame     -11.494  16.613  73.672  0.00  0.00     0.083 H 
ATOM     67  C33 non d ame     -14.217  15.240  72.172  0.00  0.00    -0.082 A 
ATOM     68  H51 non d ame     -13.823  15.874  74.187  0.00  0.00     0.083 H 
ATOM     69  C34 non d ame     -13.722  15.112  70.875  0.00  0.00    -0.075 A 
ATOM     70  H52 non d ame     -15.232  14.916  72.401  0.00  0.00     0.083 H 
ATOM     71  H53 non d ame     -14.351  14.690  70.091  0.00  0.00     0.084 H 
ENDBRANCH  58  61
ENDBRANCH  57  58
ENDBRANCH  55  57
ENDBRANCH  52  55
ENDBRANCH  49  52
ENDBRANCH  47  49
BRANCH  47  72
ATOM     72  C24 non d ame     -10.457  11.543  65.948  0.00  0.00    -0.039 C 
ATOM     73  H35 non d ame     -10.675  10.593  65.459  0.00  0.00     0.036 H 
ATOM     74  H36 non d ame     -11.121  11.920  66.726  0.00  0.00     0.036 H 
BRANCH  72  75
ATOM     75  C25 non d ame     -10.390  12.660  64.802  0.00  0.00    -0.001 C 
ATOM     76  C26 non d ame     -11.497  13.839  65.102  0.00  0.00    -0.035 C 
ATOM     77  C27 non d ame     -12.241  14.033  63.988  0.00  0.00     0.085 C 
ATOM     78  H38 non d ame     -12.223  13.490  65.836  0.00  0.00     0.036 H 
ATOM     79  H39 non d ame     -10.995  14.796  65.244  0.00  0.00     0.036 H 
ATOM     80  N5  non d ame     -11.962  12.873  63.063  0.00  0.00    -0.049 N 
ATOM     81  H40 non d ame     -13.280  13.982  64.318  0.00  0.00     0.075 H 
ATOM     82  H41 non d ame     -11.857  14.947  63.537  0.00  0.00     0.075 H 
ATOM     83  C28 non d ame     -10.638  12.153  63.640  0.00  0.00     0.193 C 
ATOM     84  H42 non d ame     -12.741  12.237  63.158  0.00  0.00     0.280 HD
ATOM     85  H43 non d ame     -11.744  13.272  62.161  0.00  0.00     0.280 HD
ATOM     86  H44 non d ame      -9.673  12.295  63.152  0.00  0.00     0.129 H 
ATOM     87  H37 non d ame      -9.368  12.980  64.596  0.00  0.00     0.046 H 
BRANCH  83  88
ATOM     88  O6  non d ame     -10.831  10.739  63.699  0.00  0.00    -0.369 OA
ATOM     89  H45 non d ame     -10.544  10.342  62.874  0.00  0.00     0.212 HD
ENDBRANCH  83  88
ENDBRANCH  72  75
ENDBRANCH  47  72
ENDBRANCH  45  47
ENDBRANCH   1  43
BRANCH   1  90
ATOM     90  C16 non d ame      -8.125   7.307  63.956  0.00  0.00    -0.035 C 
ATOM     91  H21 non d ame      -9.206   7.235  64.078  0.00  0.00     0.037 H 
ATOM     92  H22 non d ame      -7.707   7.930  63.165  0.00  0.00     0.037 H 
BRANCH  90  93
ATOM     93  C17 non d ame      -7.613   5.855  63.691  0.00  0.00    -0.059 C 
ATOM     94  H23 non d ame      -7.623   5.323  64.642  0.00  0.00     0.038 H 
BRANCH  93  95
ATOM     95  C18 non d ame      -8.536   5.076  62.699  0.00  0.00    -0.073 C 
ATOM     96  H24 non d ame      -8.884   4.159  63.173  0.00  0.00     0.028 H 
ATOM     97  H25 non d ame      -9.392   5.698  62.436  0.00  0.00     0.028 H 
ATOM     98  H26 non d ame      -7.975   4.831  61.798  0.00  0.00     0.028 H 
ENDBRANCH  93  95
BRANCH  93  99
ATOM     99  C19 non d ame      -6.166   5.868  63.192  0.00  0.00    -0.073 C 
ATOM    100  H27 non d ame      -5.491   6.000  64.038  0.00  0.00     0.028 H 
ATOM    101  H28 non d ame      -5.945   4.924  62.694  0.00  0.00     0.028 H 
ATOM    102  H29 non d ame      -6.032   6.690  62.488  0.00  0.00     0.028 H 
ENDBRANCH  93  99
ENDBRANCH  90  93
ENDBRANCH   1  90
TORSDOF 26
ENDMDL
MODEL 9
REMARK VINA RESULT:      -6.4      2.038      8.911
REMARK  26 active torsions:
REMARK  status: ('A' for Active; 'I' for Inactive)
REMARK    1  A    between atoms: C2_2  and  C3_3 
REMARK    2  A    between atoms: C4_6  and  C5_7 
REMARK       I    between atoms: C5_7  and  N2_9 
REMARK    3  A    between atoms: N2_9  and  C6_10 
REMARK    4  A    between atoms: C6_10  and  C7_11 
REMARK    5  A    between atoms: C6_10  and  C8_13 
REMARK       I    between atoms: C7_11  and  N3_14 
REMARK    6  A    between atoms: N3_14  and  C9_15 
REMARK    7  A    between atoms: C9_15  and  C10_16 
REMARK    8  A    between atoms: C9_15  and  C11_18 
REMARK       I    between atoms: C10_16  and  N4_21 
REMARK    9  A    between atoms: C11_18  and  C12_19 
REMARK   10  A    between atoms: C11_18  and  C13_20 
REMARK   11  A    between atoms: N4_21  and  C14_22 
REMARK   12  A    between atoms: C14_22  and  C15_23 
REMARK   13  A    between atoms: C14_22  and  C16_25 
REMARK       I    between atoms: C15_23  and  N6_40 
REMARK   14  A    between atoms: C16_25  and  C17_26 
REMARK   15  A    between atoms: C17_26  and  C18_27 
REMARK   16  A    between atoms: C17_26  and  C19_28 
REMARK   17  A    between atoms: C20_29  and  C21_30 
REMARK   18  A    between atoms: C20_29  and  C24_33 
REMARK   19  A    between atoms: C20_29  and  N6_40 
REMARK   20  A    between atoms: C21_30  and  C22_31 
REMARK   21  A    between atoms: C22_31  and  C23_32 
REMARK   22  A    between atoms: C23_32  and  O8_43 
REMARK   23  A    between atoms: C24_33  and  C25_34 
REMARK   24  A    between atoms: C28_38  and  O6_39 
REMARK   25  A    between atoms: C29_42  and  O8_43 
REMARK   26  A    between atoms: C29_42  and  C35_49 
ROOT
ATOM      1  C14 non d ame      -5.679  13.406  68.150  0.00  0.00     0.089 C 
ATOM      2  H20 non d ame      -4.864  13.352  67.428  0.00  0.00     0.087 H 
ENDROOT
BRANCH   1   3
ATOM      3  N4  non d ame      -6.231  14.752  68.089  0.00  0.00    -0.346 N 
ATOM      4  C10 non d ame      -5.396  15.894  67.568  0.00  0.00     0.241 C 
ATOM      5  O4  non d ame      -4.282  15.707  67.206  0.00  0.00    -0.271 OA
ATOM      6  H19 non d ame      -7.181  14.890  68.404  0.00  0.00     0.163 HD
BRANCH   4   7
ATOM      7  C9  non d ame      -5.985  17.279  67.506  0.00  0.00     0.092 C 
ATOM      8  H11 non d ame      -5.653  17.770  66.591  0.00  0.00     0.088 H 
BRANCH   7   9
ATOM      9  N3  non d ame      -7.447  17.186  67.442  0.00  0.00    -0.346 N 
ATOM     10  C7  non d ame      -8.179  17.996  66.499  0.00  0.00     0.240 C 
ATOM     11  O3  non d ame      -7.609  18.729  65.787  0.00  0.00    -0.271 OA
ATOM     12  H10 non d ame      -7.953  16.560  68.052  0.00  0.00     0.163 HD
BRANCH  10  13
ATOM     13  C6  non d ame      -9.735  17.896  66.438  0.00  0.00     0.086 C 
ATOM     14  H6  non d ame     -10.162  18.462  65.610  0.00  0.00     0.086 H 
BRANCH  13  15
ATOM     15  N2  non d ame     -10.110  16.507  66.228  0.00  0.00    -0.343 N 
ATOM     16  C5  non d ame     -10.923  16.147  65.065  0.00  0.00     0.273 C 
ATOM     17  O2  non d ame     -11.274  16.982  64.305  0.00  0.00    -0.266 OA
ATOM     18  H5  non d ame      -9.808  15.800  66.884  0.00  0.00     0.163 HD
BRANCH  16  19
ATOM     19  C4  non d ame     -11.325  14.683  64.830  0.00  0.00     0.154 A 
ATOM     20  C1  non d ame     -10.497  13.628  64.332  0.00  0.00    -0.017 A 
ATOM     21  C2  non d ame     -11.334  12.490  64.304  0.00  0.00     0.077 A 
ATOM     22  H1  non d ame      -9.449  13.680  64.036  0.00  0.00     0.091 H 
ATOM     23  O1  non d ame     -12.503  12.859  64.739  0.00  0.00    -0.218 OA
ATOM     24  N1  non d ame     -12.523  14.134  65.051  0.00  0.00    -0.123 NA
BRANCH  21  25
ATOM     25  C3  non d ame     -10.939  11.091  63.850  0.00  0.00    -0.029 C 
ATOM     26  H2  non d ame     -11.837  10.510  63.641  0.00  0.00     0.036 H 
ATOM     27  H3  non d ame     -10.332  11.160  62.948  0.00  0.00     0.036 H 
ATOM     28  H4  non d ame     -10.365  10.602  64.638  0.00  0.00     0.036 H 
ENDBRANCH  21  25
ENDBRANCH  16  19
ENDBRANCH  13  15
BRANCH  13  29
ATOM     29  C8  non d ame     -10.326  18.401  67.730  0.00  0.00    -0.049 C 
ATOM     30  H7  non d ame     -10.234  17.631  68.497  0.00  0.00     0.030 H 
ATOM     31  H8  non d ame      -9.792  19.296  68.048  0.00  0.00     0.030 H 
ATOM     32  H9  non d ame     -11.378  18.638  67.579  0.00  0.00     0.030 H 
ENDBRANCH  13  29
ENDBRANCH  10  13
ENDBRANCH   7   9
BRANCH   7  33
ATOM     33  C11 non d ame      -5.574  18.074  68.780  0.00  0.00    -0.033 C 
ATOM     34  H12 non d ame      -4.511  18.301  68.697  0.00  0.00     0.042 H 
BRANCH  33  35
ATOM     35  C12 non d ame      -6.337  19.433  68.872  0.00  0.00    -0.071 C 
ATOM     36  H13 non d ame      -6.055  19.946  69.792  0.00  0.00     0.028 H 
ATOM     37  H14 non d ame      -6.076  20.054  68.016  0.00  0.00     0.028 H 
ATOM     38  H15 non d ame      -7.410  19.247  68.874  0.00  0.00     0.028 H 
ENDBRANCH  33  35
BRANCH  33  39
ATOM     39  C13 non d ame      -5.787  17.216  70.068  0.00  0.00    -0.071 C 
ATOM     40  H16 non d ame      -5.628  16.164  69.834  0.00  0.00     0.028 H 
ATOM     41  H17 non d ame      -5.078  17.529  70.835  0.00  0.00     0.028 H 
ATOM     42  H18 non d ame      -6.804  17.358  70.434  0.00  0.00     0.028 H 
ENDBRANCH  33  39
ENDBRANCH   7  33
ENDBRANCH   4   7
ENDBRANCH   1   3
BRANCH   1  43
ATOM     43  C15 non d ame      -6.814  12.391  67.833  0.00  0.00     0.240 C 
ATOM     44  O5  non d ame      -6.979  12.019  66.716  0.00  0.00    -0.271 OA
ATOM     45  N6  non d ame      -7.689  11.874  68.923  0.00  0.00    -0.355 N 
ATOM     46  H46 non d ame      -7.556  12.179  69.876  0.00  0.00     0.162 HD
BRANCH  45  47
ATOM     47  C20 non d ame      -8.763  10.908  68.605  0.00  0.00     0.013 C 
ATOM     48  H30 non d ame      -8.693  10.666  67.544  0.00  0.00     0.072 H 
BRANCH  47  49
ATOM     49  C21 non d ame     -10.105  11.536  68.905  0.00  0.00    -0.038 C 
ATOM     50  H31 non d ame     -10.821  10.713  68.908  0.00  0.00     0.036 H 
ATOM     51  H32 non d ame      -9.956  12.133  69.804  0.00  0.00     0.036 H 
BRANCH  49  52
ATOM     52  C22 non d ame     -10.569  12.513  67.803  0.00  0.00     0.018 C 
ATOM     53  H33 non d ame     -10.010  12.237  66.908  0.00  0.00     0.048 H 
ATOM     54  H34 non d ame     -11.658  12.462  67.802  0.00  0.00     0.048 H 
BRANCH  52  55
ATOM     55  C23 non d ame     -10.211  13.998  68.091  0.00  0.00     0.259 C 
ATOM     56  O7  non d ame      -9.130  14.418  67.832  0.00  0.00    -0.265 OA
BRANCH  55  57
ATOM     57  O8  non d ame     -11.186  14.848  68.681  0.00  0.00    -0.317 OA
BRANCH  57  58
ATOM     58  C29 non d ame     -10.739  15.512  69.867  0.00  0.00     0.052 C 
ATOM     59  H47 non d ame      -9.793  15.039  70.131  0.00  0.00     0.082 H 
ATOM     60  H48 non d ame     -10.771  16.577  69.639  0.00  0.00     0.082 H 
BRANCH  58  61
ATOM     61  C35 non d ame     -11.766  15.221  70.994  0.00  0.00    -0.034 A 
ATOM     62  C30 non d ame     -11.979  16.158  72.001  0.00  0.00    -0.075 A 
ATOM     63  C31 non d ame     -12.901  15.897  73.013  0.00  0.00    -0.082 A 
ATOM     64  H49 non d ame     -11.425  17.096  71.995  0.00  0.00     0.084 H 
ATOM     65  C32 non d ame     -13.609  14.692  73.019  0.00  0.00    -0.083 A 
ATOM     66  H50 non d ame     -13.067  16.634  73.799  0.00  0.00     0.083 H 
ATOM     67  C33 non d ame     -13.390  13.759  72.015  0.00  0.00    -0.082 A 
ATOM     68  H51 non d ame     -14.332  14.480  73.807  0.00  0.00     0.083 H 
ATOM     69  C34 non d ame     -12.471  14.016  70.999  0.00  0.00    -0.075 A 
ATOM     70  H52 non d ame     -13.942  12.819  72.023  0.00  0.00     0.083 H 
ATOM     71  H53 non d ame     -12.306  13.279  70.213  0.00  0.00     0.084 H 
ENDBRANCH  58  61
ENDBRANCH  57  58
ENDBRANCH  55  57
ENDBRANCH  52  55
ENDBRANCH  49  52
ENDBRANCH  47  49
BRANCH  47  72
ATOM     72  C24 non d ame      -8.590   9.647  69.449  0.00  0.00    -0.039 C 
ATOM     73  H35 non d ame      -7.554   9.665  69.788  0.00  0.00     0.036 H 
ATOM     74  H36 non d ame      -9.401   9.671  70.177  0.00  0.00     0.036 H 
BRANCH  72  75
ATOM     75  C25 non d ame      -8.778   8.318  68.575  0.00  0.00    -0.001 C 
ATOM     76  C26 non d ame      -9.054   8.716  67.003  0.00  0.00    -0.035 C 
ATOM     77  C27 non d ame     -10.164   8.066  66.577  0.00  0.00     0.085 C 
ATOM     78  H38 non d ame      -9.330   9.767  66.927  0.00  0.00     0.036 H 
ATOM     79  H39 non d ame      -8.264   8.312  66.371  0.00  0.00     0.036 H 
ATOM     80  N5  non d ame     -10.854   7.520  67.804  0.00  0.00    -0.049 N 
ATOM     81  H40 non d ame     -10.795   8.832  66.126  0.00  0.00     0.075 H 
ATOM     82  H41 non d ame      -9.801   7.234  65.975  0.00  0.00     0.075 H 
ATOM     83  C28 non d ame      -9.775   7.616  69.001  0.00  0.00     0.193 C 
ATOM     84  H42 non d ame     -11.617   8.150  68.007  0.00  0.00     0.280 HD
ATOM     85  H43 non d ame     -11.041   6.545  67.617  0.00  0.00     0.280 HD
ATOM     86  H44 non d ame      -9.254   6.724  69.349  0.00  0.00     0.129 H 
ATOM     87  H37 non d ame      -7.999   7.581  68.770  0.00  0.00     0.046 H 
BRANCH  83  88
ATOM     88  O6  non d ame     -10.378   8.186  70.164  0.00  0.00    -0.369 OA
ATOM     89  H45 non d ame     -11.333   8.128  70.090  0.00  0.00     0.212 HD
ENDBRANCH  83  88
ENDBRANCH  72  75
ENDBRANCH  47  72
ENDBRANCH  45  47
ENDBRANCH   1  43
BRANCH   1  90
ATOM     90  C16 non d ame      -5.143  13.153  69.550  0.00  0.00    -0.035 C 
ATOM     91  H21 non d ame      -5.360  14.062  70.112  0.00  0.00     0.037 H 
ATOM     92  H22 non d ame      -5.582  12.204  69.860  0.00  0.00     0.037 H 
BRANCH  90  93
ATOM     93  C17 non d ame      -3.594  12.961  69.603  0.00  0.00    -0.059 C 
ATOM     94  H23 non d ame      -3.385  12.157  70.309  0.00  0.00     0.038 H 
BRANCH  93  95
ATOM     95  C18 non d ame      -3.004  12.545  68.218  0.00  0.00    -0.073 C 
ATOM     96  H24 non d ame      -3.150  13.355  67.503  0.00  0.00     0.028 H 
ATOM     97  H25 non d ame      -1.939  12.340  68.323  0.00  0.00     0.028 H 
ATOM     98  H26 non d ame      -3.512  11.649  67.861  0.00  0.00     0.028 H 
ENDBRANCH  93  95
BRANCH  93  99
ATOM     99  C19 non d ame      -2.905  14.221  70.132  0.00  0.00    -0.073 C 
ATOM    100  H27 non d ame      -1.945  13.953  70.574  0.00  0.00     0.028 H 
ATOM    101  H28 non d ame      -2.745  14.920  69.310  0.00  0.00     0.028 H 
ATOM    102  H29 non d ame      -3.535  14.690  70.888  0.00  0.00     0.028 H 
ENDBRANCH  93  99
ENDBRANCH  90  93
ENDBRANCH   1  90
TORSDOF 26
ENDMDL
MODEL 10
REMARK VINA RESULT:      -6.4      2.395      6.808
REMARK  26 active torsions:
REMARK  status: ('A' for Active; 'I' for Inactive)
REMARK    1  A    between atoms: C2_2  and  C3_3 
REMARK    2  A    between atoms: C4_6  and  C5_7 
REMARK       I    between atoms: C5_7  and  N2_9 
REMARK    3  A    between atoms: N2_9  and  C6_10 
REMARK    4  A    between atoms: C6_10  and  C7_11 
REMARK    5  A    between atoms: C6_10  and  C8_13 
REMARK       I    between atoms: C7_11  and  N3_14 
REMARK    6  A    between atoms: N3_14  and  C9_15 
REMARK    7  A    between atoms: C9_15  and  C10_16 
REMARK    8  A    between atoms: C9_15  and  C11_18 
REMARK       I    between atoms: C10_16  and  N4_21 
REMARK    9  A    between atoms: C11_18  and  C12_19 
REMARK   10  A    between atoms: C11_18  and  C13_20 
REMARK   11  A    between atoms: N4_21  and  C14_22 
REMARK   12  A    between atoms: C14_22  and  C15_23 
REMARK   13  A    between atoms: C14_22  and  C16_25 
REMARK       I    between atoms: C15_23  and  N6_40 
REMARK   14  A    between atoms: C16_25  and  C17_26 
REMARK   15  A    between atoms: C17_26  and  C18_27 
REMARK   16  A    between atoms: C17_26  and  C19_28 
REMARK   17  A    between atoms: C20_29  and  C21_30 
REMARK   18  A    between atoms: C20_29  and  C24_33 
REMARK   19  A    between atoms: C20_29  and  N6_40 
REMARK   20  A    between atoms: C21_30  and  C22_31 
REMARK   21  A    between atoms: C22_31  and  C23_32 
REMARK   22  A    between atoms: C23_32  and  O8_43 
REMARK   23  A    between atoms: C24_33  and  C25_34 
REMARK   24  A    between atoms: C28_38  and  O6_39 
REMARK   25  A    between atoms: C29_42  and  O8_43 
REMARK   26  A    between atoms: C29_42  and  C35_49 
ROOT
ATOM      1  C14 non d ame     -10.897  14.734  66.839  0.00  0.00     0.089 C 
ATOM      2  H20 non d ame     -11.879  15.183  66.688  0.00  0.00     0.087 H 
ENDROOT
BRANCH   1   3
ATOM      3  N4  non d ame      -9.923  15.815  66.879  0.00  0.00    -0.346 N 
ATOM      4  C10 non d ame     -10.218  17.077  67.648  0.00  0.00     0.241 C 
ATOM      5  O4  non d ame     -11.247  17.202  68.226  0.00  0.00    -0.271 OA
ATOM      6  H19 non d ame      -9.054  15.690  66.379  0.00  0.00     0.163 HD
BRANCH   4   7
ATOM      7  C9  non d ame      -9.196  18.183  67.683  0.00  0.00     0.092 C 
ATOM      8  H11 non d ame      -9.425  18.858  68.508  0.00  0.00     0.088 H 
BRANCH   7   9
ATOM      9  N3  non d ame      -7.869  17.616  67.944  0.00  0.00    -0.346 N 
ATOM     10  C7  non d ame      -6.980  18.262  68.877  0.00  0.00     0.240 C 
ATOM     11  O3  non d ame      -7.314  19.241  69.425  0.00  0.00    -0.271 OA
ATOM     12  H10 non d ame      -7.566  16.773  67.477  0.00  0.00     0.163 HD
BRANCH  10  13
ATOM     13  C6  non d ame      -5.568  17.655  69.147  0.00  0.00     0.086 C 
ATOM     14  H6  non d ame      -5.128  18.009  70.079  0.00  0.00     0.086 H 
BRANCH  13  15
ATOM     15  N2  non d ame      -5.691  16.212  69.268  0.00  0.00    -0.343 N 
ATOM     16  C5  non d ame      -5.412  15.569  70.554  0.00  0.00     0.273 C 
ATOM     17  O2  non d ame      -5.088  16.221  71.485  0.00  0.00    -0.266 OA
ATOM     18  H5  non d ame      -5.966  15.662  68.467  0.00  0.00     0.163 HD
BRANCH  16  19
ATOM     19  C4  non d ame      -5.540  14.044  70.696  0.00  0.00     0.154 A 
ATOM     20  C1  non d ame      -5.983  13.117  69.700  0.00  0.00    -0.017 A 
ATOM     21  C2  non d ame      -5.916  11.852  70.326  0.00  0.00     0.077 A 
ATOM     22  H1  non d ame      -6.303  13.329  68.680  0.00  0.00     0.091 H 
ATOM     23  O1  non d ame      -5.484  12.042  71.538  0.00  0.00    -0.218 OA
ATOM     24  N1  non d ame      -5.258  13.313  71.778  0.00  0.00    -0.123 NA
BRANCH  21  25
ATOM     25  C3  non d ame      -6.283  10.515  69.697  0.00  0.00    -0.029 C 
ATOM     26  H2  non d ame      -7.101  10.061  70.256  0.00  0.00     0.036 H 
ATOM     27  H3  non d ame      -6.592  10.672  68.664  0.00  0.00     0.036 H 
ATOM     28  H4  non d ame      -5.416   9.853  69.719  0.00  0.00     0.036 H 
ENDBRANCH  21  25
ENDBRANCH  16  19
ENDBRANCH  13  15
BRANCH  13  29
ATOM     29  C8  non d ame      -4.642  18.001  68.009  0.00  0.00    -0.049 C 
ATOM     30  H7  non d ame      -4.312  17.086  67.517  0.00  0.00     0.030 H 
ATOM     31  H8  non d ame      -5.168  18.630  67.291  0.00  0.00     0.030 H 
ATOM     32  H9  non d ame      -3.776  18.537  68.396  0.00  0.00     0.030 H 
ENDBRANCH  13  29
ENDBRANCH  10  13
ENDBRANCH   7   9
BRANCH   7  33
ATOM     33  C11 non d ame      -9.181  18.920  66.312  0.00  0.00    -0.033 C 
ATOM     34  H12 non d ame      -9.327  18.170  65.534  0.00  0.00     0.042 H 
BRANCH  33  35
ATOM     35  C12 non d ame     -10.355  19.942  66.203  0.00  0.00    -0.071 C 
ATOM     36  H13 non d ame     -11.295  19.444  66.444  0.00  0.00     0.028 H 
ATOM     37  H14 non d ame     -10.189  20.761  66.903  0.00  0.00     0.028 H 
ATOM     38  H15 non d ame     -10.402  20.335  65.188  0.00  0.00     0.028 H 
ENDBRANCH  33  35
BRANCH  33  39
ATOM     39  C13 non d ame      -7.803  19.612  66.063  0.00  0.00    -0.071 C 
ATOM     40  H16 non d ame      -7.111  19.341  66.859  0.00  0.00     0.028 H 
ATOM     41  H17 non d ame      -7.399  19.284  65.104  0.00  0.00     0.028 H 
ATOM     42  H18 non d ame      -7.937  20.693  66.049  0.00  0.00     0.028 H 
ENDBRANCH  33  39
ENDBRANCH   7  33
ENDBRANCH   4   7
ENDBRANCH   1   3
BRANCH   1  43
ATOM     43  C15 non d ame     -10.813  13.942  68.175  0.00  0.00     0.240 C 
ATOM     44  O5  non d ame      -9.753  13.611  68.600  0.00  0.00    -0.271 OA
ATOM     45  N6  non d ame     -12.053  13.602  68.929  0.00  0.00    -0.355 N 
ATOM     46  H46 non d ame     -12.958  13.882  68.581  0.00  0.00     0.162 HD
BRANCH  45  47
ATOM     47  C20 non d ame     -11.956  12.850  70.199  0.00  0.00     0.013 C 
ATOM     48  H30 non d ame     -10.966  13.026  70.618  0.00  0.00     0.072 H 
BRANCH  47  49
ATOM     49  C21 non d ame     -12.145  11.376  69.922  0.00  0.00    -0.038 C 
ATOM     50  H31 non d ame     -13.223  11.223  69.862  0.00  0.00     0.036 H 
ATOM     51  H32 non d ame     -11.514  11.155  69.060  0.00  0.00     0.036 H 
BRANCH  49  52
ATOM     52  C22 non d ame     -11.640  10.480  71.073  0.00  0.00     0.018 C 
ATOM     53  H33 non d ame     -10.745   9.986  70.693  0.00  0.00     0.048 H 
ATOM     54  H34 non d ame     -11.574  11.130  71.946  0.00  0.00     0.048 H 
BRANCH  52  55
ATOM     55  C23 non d ame     -12.626   9.342  71.460  0.00  0.00     0.259 C 
ATOM     56  O7  non d ame     -13.572   9.570  72.141  0.00  0.00    -0.265 OA
BRANCH  55  57
ATOM     57  O8  non d ame     -12.377   8.019  71.001  0.00  0.00    -0.317 OA
BRANCH  57  58
ATOM     58  C29 non d ame     -10.990   7.710  70.839  0.00  0.00     0.052 C 
ATOM     59  H47 non d ame     -10.449   8.597  71.170  0.00  0.00     0.082 H 
ATOM     60  H48 non d ame     -10.838   6.758  71.347  0.00  0.00     0.082 H 
BRANCH  58  61
ATOM     61  C35 non d ame     -10.719   7.506  69.324  0.00  0.00    -0.034 A 
ATOM     62  C30 non d ame     -11.146   6.344  68.690  0.00  0.00    -0.075 A 
ATOM     63  C31 non d ame     -10.902   6.161  67.330  0.00  0.00    -0.082 A 
ATOM     64  H49 non d ame     -11.672   5.577  69.259  0.00  0.00     0.084 H 
ATOM     65  C32 non d ame     -10.225   7.144  66.604  0.00  0.00    -0.083 A 
ATOM     66  H50 non d ame     -11.240   5.250  66.835  0.00  0.00     0.083 H 
ATOM     67  C33 non d ame      -9.798   8.301  67.241  0.00  0.00    -0.082 A 
ATOM     68  H51 non d ame     -10.031   7.010  65.540  0.00  0.00     0.083 H 
ATOM     69  C34 non d ame     -10.041   8.489  68.600  0.00  0.00    -0.075 A 
ATOM     70  H52 non d ame      -9.268   9.066  66.672  0.00  0.00     0.083 H 
ATOM     71  H53 non d ame      -9.703   9.401  69.094  0.00  0.00     0.084 H 
ENDBRANCH  58  61
ENDBRANCH  57  58
ENDBRANCH  55  57
ENDBRANCH  52  55
ENDBRANCH  49  52
ENDBRANCH  47  49
BRANCH  47  72
ATOM     72  C24 non d ame     -13.035  13.329  71.167  0.00  0.00    -0.039 C 
ATOM     73  H35 non d ame     -13.982  13.160  70.653  0.00  0.00     0.036 H 
ATOM     74  H36 non d ame     -12.828  12.820  72.108  0.00  0.00     0.036 H 
BRANCH  72  75
ATOM     75  C25 non d ame     -12.925  14.903  71.447  0.00  0.00    -0.001 C 
ATOM     76  C26 non d ame     -11.809  15.185  72.622  0.00  0.00    -0.035 C 
ATOM     77  C27 non d ame     -12.366  15.974  73.572  0.00  0.00     0.085 C 
ATOM     78  H38 non d ame     -11.586  14.262  73.156  0.00  0.00     0.036 H 
ATOM     79  H39 non d ame     -10.997  15.796  72.227  0.00  0.00     0.036 H 
ATOM     80  N5  non d ame     -13.854  15.986  73.319  0.00  0.00    -0.049 N 
ATOM     81  H40 non d ame     -12.170  15.471  74.520  0.00  0.00     0.075 H 
ATOM     82  H41 non d ame     -11.967  16.972  73.392  0.00  0.00     0.075 H 
ATOM     83  C28 non d ame     -14.057  15.390  71.832  0.00  0.00     0.193 C 
ATOM     84  H42 non d ame     -14.262  15.343  73.982  0.00  0.00     0.280 HD
ATOM     85  H43 non d ame     -14.136  16.956  73.317  0.00  0.00     0.280 HD
ATOM     86  H44 non d ame     -14.282  16.052  70.996  0.00  0.00     0.129 H 
ATOM     87  H37 non d ame     -12.833  15.480  70.527  0.00  0.00     0.046 H 
BRANCH  83  88
ATOM     88  O6  non d ame     -15.094  14.408  71.833  0.00  0.00    -0.369 OA
ATOM     89  H45 non d ame     -15.796  14.684  72.425  0.00  0.00     0.212 HD
ENDBRANCH  83  88
ENDBRANCH  72  75
ENDBRANCH  47  72
ENDBRANCH  45  47
ENDBRANCH   1  43
BRANCH   1  90
ATOM     90  C16 non d ame     -10.568  13.812  65.676  0.00  0.00    -0.035 C 
ATOM     91  H21 non d ame     -10.864  14.359  64.781  0.00  0.00     0.037 H 
ATOM     92  H22 non d ame      -9.526  13.526  65.820  0.00  0.00     0.037 H 
BRANCH  90  93
ATOM     93  C17 non d ame     -11.393  12.485  65.675  0.00  0.00    -0.059 C 
ATOM     94  H23 non d ame     -11.627  12.241  66.711  0.00  0.00     0.038 H 
BRANCH  93  95
ATOM     95  C18 non d ame     -12.744  12.632  64.903  0.00  0.00    -0.073 C 
ATOM     96  H24 non d ame     -12.550  13.019  63.903  0.00  0.00     0.028 H 
ATOM     97  H25 non d ame     -13.227  11.658  64.829  0.00  0.00     0.028 H 
ATOM     98  H26 non d ame     -13.395  13.322  65.440  0.00  0.00     0.028 H 
ENDBRANCH  93  95
BRANCH  93  99
ATOM     99  C19 non d ame     -10.566  11.328  65.110  0.00  0.00    -0.073 C 
ATOM    100  H27 non d ame     -10.693  11.284  64.028  0.00  0.00     0.028 H 
ATOM    101  H28 non d ame      -9.513  11.484  65.347  0.00  0.00     0.028 H 
ATOM    102  H29 non d ame     -10.903  10.391  65.553  0.00  0.00     0.028 H 
ENDBRANCH  93  99
ENDBRANCH  90  93
ENDBRANCH   1  90
TORSDOF 26
ENDMDL
MODEL 11
REMARK VINA RESULT:      -6.3      3.533      8.360
REMARK  26 active torsions:
REMARK  status: ('A' for Active; 'I' for Inactive)
REMARK    1  A    between atoms: C2_2  and  C3_3 
REMARK    2  A    between atoms: C4_6  and  C5_7 
REMARK       I    between atoms: C5_7  and  N2_9 
REMARK    3  A    between atoms: N2_9  and  C6_10 
REMARK    4  A    between atoms: C6_10  and  C7_11 
REMARK    5  A    between atoms: C6_10  and  C8_13 
REMARK       I    between atoms: C7_11  and  N3_14 
REMARK    6  A    between atoms: N3_14  and  C9_15 
REMARK    7  A    between atoms: C9_15  and  C10_16 
REMARK    8  A    between atoms: C9_15  and  C11_18 
REMARK       I    between atoms: C10_16  and  N4_21 
REMARK    9  A    between atoms: C11_18  and  C12_19 
REMARK   10  A    between atoms: C11_18  and  C13_20 
REMARK   11  A    between atoms: N4_21  and  C14_22 
REMARK   12  A    between atoms: C14_22  and  C15_23 
REMARK   13  A    between atoms: C14_22  and  C16_25 
REMARK       I    between atoms: C15_23  and  N6_40 
REMARK   14  A    between atoms: C16_25  and  C17_26 
REMARK   15  A    between atoms: C17_26  and  C18_27 
REMARK   16  A    between atoms: C17_26  and  C19_28 
REMARK   17  A    between atoms: C20_29  and  C21_30 
REMARK   18  A    between atoms: C20_29  and  C24_33 
REMARK   19  A    between atoms: C20_29  and  N6_40 
REMARK   20  A    between atoms: C21_30  and  C22_31 
REMARK   21  A    between atoms: C22_31  and  C23_32 
REMARK   22  A    between atoms: C23_32  and  O8_43 
REMARK   23  A    between atoms: C24_33  and  C25_34 
REMARK   24  A    between atoms: C28_38  and  O6_39 
REMARK   25  A    between atoms: C29_42  and  O8_43 
REMARK   26  A    between atoms: C29_42  and  C35_49 
ROOT
ATOM      1  C14 non d ame     -10.544  10.602  67.564  0.00  0.00     0.089 C 
ATOM      2  H20 non d ame      -9.513  10.678  67.909  0.00  0.00     0.087 H 
ENDROOT
BRANCH   1   3
ATOM      3  N4  non d ame     -11.171   9.508  68.291  0.00  0.00    -0.346 N 
ATOM      4  C10 non d ame     -10.805   9.242  69.730  0.00  0.00     0.241 C 
ATOM      5  O4  non d ame     -10.001   9.920  70.280  0.00  0.00    -0.271 OA
ATOM      6  H19 non d ame     -11.851   8.942  67.805  0.00  0.00     0.163 HD
BRANCH   4   7
ATOM      7  C9  non d ame     -11.467   8.109  70.469  0.00  0.00     0.092 C 
ATOM      8  H11 non d ame     -12.388   7.835  69.955  0.00  0.00     0.088 H 
BRANCH   7   9
ATOM      9  N3  non d ame     -10.593   6.933  70.448  0.00  0.00    -0.346 N 
ATOM     10  C7  non d ame     -10.612   6.042  69.315  0.00  0.00     0.240 C 
ATOM     11  O3  non d ame     -11.326   6.255  68.412  0.00  0.00    -0.271 OA
ATOM     12  H10 non d ame      -9.972   6.736  71.220  0.00  0.00     0.163 HD
BRANCH  10  13
ATOM     13  C6  non d ame      -9.681   4.790  69.299  0.00  0.00     0.086 C 
ATOM     14  H6  non d ame     -10.167   3.907  68.884  0.00  0.00     0.086 H 
BRANCH  13  15
ATOM     15  N2  non d ame      -8.531   5.067  68.454  0.00  0.00    -0.343 N 
ATOM     16  C5  non d ame      -8.329   4.286  67.232  0.00  0.00     0.273 C 
ATOM     17  O2  non d ame      -9.094   3.434  66.940  0.00  0.00    -0.266 OA
ATOM     18  H5  non d ame      -7.881   5.795  68.713  0.00  0.00     0.163 HD
BRANCH  16  19
ATOM     19  C4  non d ame      -7.119   4.570  66.329  0.00  0.00     0.154 A 
ATOM     20  C1  non d ame      -7.038   5.525  65.266  0.00  0.00    -0.017 A 
ATOM     21  C2  non d ame      -5.727   5.393  64.758  0.00  0.00     0.077 A 
ATOM     22  H1  non d ame      -7.813   6.208  64.917  0.00  0.00     0.091 H 
ATOM     23  O1  non d ame      -5.132   4.470  65.454  0.00  0.00    -0.218 OA
ATOM     24  N1  non d ame      -5.924   3.974  66.377  0.00  0.00    -0.123 NA
BRANCH  21  25
ATOM     25  C3  non d ame      -5.122   6.187  63.607  0.00  0.00    -0.029 C 
ATOM     26  H2  non d ame      -4.661   5.503  62.895  0.00  0.00     0.036 H 
ATOM     27  H3  non d ame      -5.905   6.758  63.109  0.00  0.00     0.036 H 
ATOM     28  H4  non d ame      -4.366   6.871  63.995  0.00  0.00     0.036 H 
ENDBRANCH  21  25
ENDBRANCH  16  19
ENDBRANCH  13  15
BRANCH  13  29
ATOM     29  C8  non d ame      -9.227   4.480  70.703  0.00  0.00    -0.049 C 
ATOM     30  H7  non d ame      -8.683   5.334  71.106  0.00  0.00     0.030 H 
ATOM     31  H8  non d ame     -10.095   4.274  71.329  0.00  0.00     0.030 H 
ATOM     32  H9  non d ame      -8.573   3.608  70.689  0.00  0.00     0.030 H 
ENDBRANCH  13  29
ENDBRANCH  10  13
ENDBRANCH   7   9
BRANCH   7  33
ATOM     33  C11 non d ame     -11.725   8.534  71.945  0.00  0.00    -0.033 C 
ATOM     34  H12 non d ame     -11.211   9.482  72.109  0.00  0.00     0.042 H 
BRANCH  33  35
ATOM     35  C12 non d ame     -13.244   8.773  72.211  0.00  0.00    -0.071 C 
ATOM     36  H13 non d ame     -13.824   7.972  71.750  0.00  0.00     0.028 H 
ATOM     37  H14 non d ame     -13.428   8.781  73.285  0.00  0.00     0.028 H 
ATOM     38  H15 non d ame     -13.542   9.729  71.783  0.00  0.00     0.028 H 
ENDBRANCH  33  35
BRANCH  33  39
ATOM     39  C13 non d ame     -11.134   7.485  72.940  0.00  0.00    -0.071 C 
ATOM     40  H16 non d ame     -11.052   6.519  72.444  0.00  0.00     0.028 H 
ATOM     41  H17 non d ame     -10.145   7.811  73.267  0.00  0.00     0.028 H 
ATOM     42  H18 non d ame     -11.790   7.395  73.805  0.00  0.00     0.028 H 
ENDBRANCH  33  39
ENDBRANCH   7  33
ENDBRANCH   4   7
ENDBRANCH   1   3
BRANCH   1  43
ATOM     43  C15 non d ame     -11.352  11.903  67.834  0.00  0.00     0.240 C 
ATOM     44  O5  non d ame     -12.101  12.316  67.008  0.00  0.00    -0.271 OA
ATOM     45  N6  non d ame     -11.198  12.631  69.126  0.00  0.00    -0.355 N 
ATOM     46  H46 non d ame     -10.568  12.287  69.836  0.00  0.00     0.162 HD
BRANCH  45  47
ATOM     47  C20 non d ame     -11.974  13.867  69.368  0.00  0.00     0.013 C 
ATOM     48  H30 non d ame     -12.805  13.884  68.663  0.00  0.00     0.072 H 
BRANCH  47  49
ATOM     49  C21 non d ame     -11.083  15.068  69.146  0.00  0.00    -0.038 C 
ATOM     50  H31 non d ame     -11.402  15.810  69.878  0.00  0.00     0.036 H 
ATOM     51  H32 non d ame     -10.062  14.685  69.166  0.00  0.00     0.036 H 
BRANCH  49  52
ATOM     52  C22 non d ame     -11.280  15.712  67.756  0.00  0.00     0.018 C 
ATOM     53  H33 non d ame     -11.374  14.881  67.056  0.00  0.00     0.048 H 
ATOM     54  H34 non d ame     -12.099  16.421  67.873  0.00  0.00     0.048 H 
BRANCH  52  55
ATOM     55  C23 non d ame     -10.059  16.543  67.272  0.00  0.00     0.259 C 
ATOM     56  O7  non d ame      -9.817  16.640  66.113  0.00  0.00    -0.265 OA
BRANCH  55  57
ATOM     57  O8  non d ame      -9.224  17.178  68.233  0.00  0.00    -0.317 OA
BRANCH  57  58
ATOM     58  C29 non d ame      -9.521  18.562  68.438  0.00  0.00     0.052 C 
ATOM     59  H47 non d ame     -10.242  18.827  67.665  0.00  0.00     0.082 H 
ATOM     60  H48 non d ame      -9.791  18.653  69.490  0.00  0.00     0.082 H 
BRANCH  58  61
ATOM     61  C35 non d ame      -8.219  19.372  68.194  0.00  0.00    -0.034 A 
ATOM     62  C30 non d ame      -8.018  20.018  66.979  0.00  0.00    -0.075 A 
ATOM     63  C31 non d ame      -6.849  20.745  66.759  0.00  0.00    -0.082 A 
ATOM     64  H49 non d ame      -8.776  19.954  66.198  0.00  0.00     0.084 H 
ATOM     65  C32 non d ame      -5.878  20.823  67.761  0.00  0.00    -0.083 A 
ATOM     66  H50 non d ame      -6.696  21.252  65.807  0.00  0.00     0.083 H 
ATOM     67  C33 non d ame      -6.081  20.174  68.971  0.00  0.00    -0.082 A 
ATOM     68  H51 non d ame      -4.961  21.390  67.598  0.00  0.00     0.083 H 
ATOM     69  C34 non d ame      -7.249  19.448  69.195  0.00  0.00    -0.075 A 
ATOM     70  H52 non d ame      -5.321  20.235  69.750  0.00  0.00     0.083 H 
ATOM     71  H53 non d ame      -7.402  18.942  70.149  0.00  0.00     0.084 H 
ENDBRANCH  58  61
ENDBRANCH  57  58
ENDBRANCH  55  57
ENDBRANCH  52  55
ENDBRANCH  49  52
ENDBRANCH  47  49
BRANCH  47  72
ATOM     72  C24 non d ame     -12.495  13.876  70.803  0.00  0.00    -0.039 C 
ATOM     73  H35 non d ame     -13.473  13.396  70.760  0.00  0.00     0.036 H 
ATOM     74  H36 non d ame     -11.699  13.437  71.404  0.00  0.00     0.036 H 
BRANCH  72  75
ATOM     75  C25 non d ame     -12.724  15.368  71.340  0.00  0.00    -0.001 C 
ATOM     76  C26 non d ame     -11.685  15.685  72.575  0.00  0.00    -0.035 C 
ATOM     77  C27 non d ame     -12.390  16.167  73.626  0.00  0.00     0.085 C 
ATOM     78  H38 non d ame     -11.263  14.755  72.956  0.00  0.00     0.036 H 
ATOM     79  H39 non d ame     -11.028  16.513  72.308  0.00  0.00     0.036 H 
ATOM     80  N5  non d ame     -13.848  15.901  73.339  0.00  0.00    -0.049 N 
ATOM     81  H40 non d ame     -12.081  15.567  74.484  0.00  0.00     0.075 H 
ATOM     82  H41 non d ame     -12.218  17.242  73.623  0.00  0.00     0.075 H 
ATOM     83  C28 non d ame     -13.931  15.530  71.770  0.00  0.00     0.193 C 
ATOM     84  H42 non d ame     -14.101  15.084  73.877  0.00  0.00     0.280 HD
ATOM     85  H43 non d ame     -14.333  16.774  73.489  0.00  0.00     0.280 HD
ATOM     86  H44 non d ame     -14.302  16.258  71.048  0.00  0.00     0.129 H 
ATOM     87  H37 non d ame     -12.769  16.096  70.531  0.00  0.00     0.046 H 
BRANCH  83  88
ATOM     88  O6  non d ame     -14.732  14.362  71.582  0.00  0.00    -0.369 OA
ATOM     89  H45 non d ame     -15.453  14.562  70.981  0.00  0.00     0.212 HD
ENDBRANCH  83  88
ENDBRANCH  72  75
ENDBRANCH  47  72
ENDBRANCH  45  47
ENDBRANCH   1  43
BRANCH   1  90
ATOM     90  C16 non d ame     -10.567  10.285  66.077  0.00  0.00    -0.035 C 
ATOM     91  H21 non d ame     -10.882   9.244  66.008  0.00  0.00     0.037 H 
ATOM     92  H22 non d ame     -11.174  11.069  65.624  0.00  0.00     0.037 H 
BRANCH  90  93
ATOM     93  C17 non d ame      -9.163  10.367  65.397  0.00  0.00    -0.059 C 
ATOM     94  H23 non d ame      -9.243  11.053  64.554  0.00  0.00     0.038 H 
BRANCH  93  95
ATOM     95  C18 non d ame      -8.072  10.926  66.365  0.00  0.00    -0.073 C 
ATOM     96  H24 non d ame      -7.121  10.999  65.837  0.00  0.00     0.028 H 
ATOM     97  H25 non d ame      -8.369  11.915  66.716  0.00  0.00     0.028 H 
ATOM     98  H26 non d ame      -7.964  10.256  67.218  0.00  0.00     0.028 H 
ENDBRANCH  93  95
BRANCH  93  99
ATOM     99  C19 non d ame      -8.747   9.005  64.836  0.00  0.00    -0.073 C 
ATOM    100  H27 non d ame      -8.219   9.146  63.893  0.00  0.00     0.028 H 
ATOM    101  H28 non d ame      -8.091   8.504  65.549  0.00  0.00     0.028 H 
ATOM    102  H29 non d ame      -9.634   8.394  64.669  0.00  0.00     0.028 H 
ENDBRANCH  93  99
ENDBRANCH  90  93
ENDBRANCH   1  90
TORSDOF 26
ENDMDL
MODEL 12
REMARK VINA RESULT:      -6.3      3.601      7.499
REMARK  26 active torsions:
REMARK  status: ('A' for Active; 'I' for Inactive)
REMARK    1  A    between atoms: C2_2  and  C3_3 
REMARK    2  A    between atoms: C4_6  and  C5_7 
REMARK       I    between atoms: C5_7  and  N2_9 
REMARK    3  A    between atoms: N2_9  and  C6_10 
REMARK    4  A    between atoms: C6_10  and  C7_11 
REMARK    5  A    between atoms: C6_10  and  C8_13 
REMARK       I    between atoms: C7_11  and  N3_14 
REMARK    6  A    between atoms: N3_14  and  C9_15 
REMARK    7  A    between atoms: C9_15  and  C10_16 
REMARK    8  A    between atoms: C9_15  and  C11_18 
REMARK       I    between atoms: C10_16  and  N4_21 
REMARK    9  A    between atoms: C11_18  and  C12_19 
REMARK   10  A    between atoms: C11_18  and  C13_20 
REMARK   11  A    between atoms: N4_21  and  C14_22 
REMARK   12  A    between atoms: C14_22  and  C15_23 
REMARK   13  A    between atoms: C14_22  and  C16_25 
REMARK       I    between atoms: C15_23  and  N6_40 
REMARK   14  A    between atoms: C16_25  and  C17_26 
REMARK   15  A    between atoms: C17_26  and  C18_27 
REMARK   16  A    between atoms: C17_26  and  C19_28 
REMARK   17  A    between atoms: C20_29  and  C21_30 
REMARK   18  A    between atoms: C20_29  and  C24_33 
REMARK   19  A    between atoms: C20_29  and  N6_40 
REMARK   20  A    between atoms: C21_30  and  C22_31 
REMARK   21  A    between atoms: C22_31  and  C23_32 
REMARK   22  A    between atoms: C23_32  and  O8_43 
REMARK   23  A    between atoms: C24_33  and  C25_34 
REMARK   24  A    between atoms: C28_38  and  O6_39 
REMARK   25  A    between atoms: C29_42  and  O8_43 
REMARK   26  A    between atoms: C29_42  and  C35_49 
ROOT
ATOM      1  C14 non d ame     -10.317  10.402  67.875  0.00  0.00     0.089 C 
ATOM      2  H20 non d ame      -9.287  10.432  68.231  0.00  0.00     0.087 H 
ENDROOT
BRANCH   1   3
ATOM      3  N4  non d ame     -11.002   9.346  68.606  0.00  0.00    -0.346 N 
ATOM      4  C10 non d ame     -10.553   8.965  69.994  0.00  0.00     0.241 C 
ATOM      5  O4  non d ame      -9.635   9.521  70.502  0.00  0.00    -0.271 OA
ATOM      6  H19 non d ame     -11.780   8.884  68.156  0.00  0.00     0.163 HD
BRANCH   4   7
ATOM      7  C9  non d ame     -11.278   7.874  70.738  0.00  0.00     0.092 C 
ATOM      8  H11 non d ame     -12.238   7.689  70.257  0.00  0.00     0.088 H 
BRANCH   7   9
ATOM      9  N3  non d ame     -10.505   6.631  70.657  0.00  0.00    -0.346 N 
ATOM     10  C7  non d ame     -10.566   5.822  69.465  0.00  0.00     0.240 C 
ATOM     11  O3  non d ame     -11.232   6.155  68.562  0.00  0.00    -0.271 OA
ATOM     12  H10 non d ame      -9.927   6.329  71.428  0.00  0.00     0.163 HD
BRANCH  10  13
ATOM     13  C6  non d ame      -9.744   4.498  69.385  0.00  0.00     0.086 C 
ATOM     14  H6  non d ame     -10.279   3.699  68.873  0.00  0.00     0.086 H 
BRANCH  13  15
ATOM     15  N2  non d ame      -8.531   4.741  68.623  0.00  0.00    -0.343 N 
ATOM     16  C5  non d ame      -8.493   4.399  67.199  0.00  0.00     0.273 C 
ATOM     17  O2  non d ame      -9.442   3.926  66.678  0.00  0.00    -0.266 OA
ATOM     18  H5  non d ame      -7.723   5.143  69.077  0.00  0.00     0.163 HD
BRANCH  16  19
ATOM     19  C4  non d ame      -7.217   4.652  66.381  0.00  0.00     0.154 A 
ATOM     20  C1  non d ame      -5.915   4.108  66.618  0.00  0.00    -0.017 A 
ATOM     21  C2  non d ame      -5.104   4.645  65.593  0.00  0.00     0.077 A 
ATOM     22  H1  non d ame      -5.606   3.427  67.411  0.00  0.00     0.091 H 
ATOM     23  O1  non d ame      -5.862   5.406  64.859  0.00  0.00    -0.218 OA
ATOM     24  N1  non d ame      -7.099   5.427  65.299  0.00  0.00    -0.123 NA
BRANCH  21  25
ATOM     25  C3  non d ame      -3.619   4.381  65.387  0.00  0.00    -0.029 C 
ATOM     26  H2  non d ame      -3.351   3.429  65.847  0.00  0.00     0.036 H 
ATOM     27  H3  non d ame      -3.401   4.343  64.320  0.00  0.00     0.036 H 
ATOM     28  H4  non d ame      -3.039   5.182  65.847  0.00  0.00     0.036 H 
ENDBRANCH  21  25
ENDBRANCH  16  19
ENDBRANCH  13  15
BRANCH  13  29
ATOM     29  C8  non d ame      -9.395   4.035  70.777  0.00  0.00    -0.049 C 
ATOM     30  H7  non d ame      -8.748   4.772  71.254  0.00  0.00     0.030 H 
ATOM     31  H8  non d ame     -10.308   3.921  71.362  0.00  0.00     0.030 H 
ATOM     32  H9  non d ame      -8.876   3.079  70.723  0.00  0.00     0.030 H 
ENDBRANCH  13  29
ENDBRANCH  10  13
ENDBRANCH   7   9
BRANCH   7  33
ATOM     33  C11 non d ame     -11.440   8.284  72.231  0.00  0.00    -0.033 C 
ATOM     34  H12 non d ame     -10.868   9.199  72.385  0.00  0.00     0.042 H 
BRANCH  33  35
ATOM     35  C12 non d ame     -12.929   8.599  72.575  0.00  0.00    -0.071 C 
ATOM     36  H13 non d ame     -13.346   9.260  71.815  0.00  0.00     0.028 H 
ATOM     37  H14 non d ame     -13.500   7.671  72.601  0.00  0.00     0.028 H 
ATOM     38  H15 non d ame     -12.982   9.086  73.549  0.00  0.00     0.028 H 
ENDBRANCH  33  35
BRANCH  33  39
ATOM     39  C13 non d ame     -10.860   7.186  73.179  0.00  0.00    -0.071 C 
ATOM     40  H16 non d ame     -10.861   7.554  74.205  0.00  0.00     0.028 H 
ATOM     41  H17 non d ame     -11.475   6.288  73.115  0.00  0.00     0.028 H 
ATOM     42  H18 non d ame      -9.839   6.950  72.878  0.00  0.00     0.028 H 
ENDBRANCH  33  39
ENDBRANCH   7  33
ENDBRANCH   4   7
ENDBRANCH   1   3
BRANCH   1  43
ATOM     43  C15 non d ame     -11.065  11.743  68.125  0.00  0.00     0.240 C 
ATOM     44  O5  non d ame     -12.088  11.963  67.562  0.00  0.00    -0.271 OA
ATOM     45  N6  non d ame     -10.509  12.750  69.074  0.00  0.00    -0.355 N 
ATOM     46  H46 non d ame      -9.643  12.572  69.562  0.00  0.00     0.162 HD
BRANCH  45  47
ATOM     47  C20 non d ame     -11.232  14.019  69.302  0.00  0.00     0.013 C 
ATOM     48  H30 non d ame     -11.798  14.250  68.399  0.00  0.00     0.072 H 
BRANCH  47  49
ATOM     49  C21 non d ame     -10.234  15.120  69.581  0.00  0.00    -0.038 C 
ATOM     50  H31 non d ame     -10.817  15.955  69.971  0.00  0.00     0.036 H 
ATOM     51  H32 non d ame      -9.456  14.664  70.193  0.00  0.00     0.036 H 
BRANCH  49  52
ATOM     52  C22 non d ame      -9.537  15.635  68.303  0.00  0.00     0.018 C 
ATOM     53  H33 non d ame      -8.794  16.357  68.642  0.00  0.00     0.048 H 
ATOM     54  H34 non d ame      -9.222  14.744  67.759  0.00  0.00     0.048 H 
BRANCH  52  55
ATOM     55  C23 non d ame     -10.482  16.410  67.343  0.00  0.00     0.259 C 
ATOM     56  O7  non d ame     -11.006  17.417  67.695  0.00  0.00    -0.265 OA
BRANCH  55  57
ATOM     57  O8  non d ame     -10.726  15.896  66.039  0.00  0.00    -0.317 OA
BRANCH  57  58
ATOM     58  C29 non d ame     -11.928  15.128  65.932  0.00  0.00     0.052 C 
ATOM     59  H47 non d ame     -12.122  14.742  66.932  0.00  0.00     0.082 H 
ATOM     60  H48 non d ame     -12.654  15.782  65.450  0.00  0.00     0.082 H 
BRANCH  58  61
ATOM     61  C35 non d ame     -11.647  13.928  64.988  0.00  0.00    -0.034 A 
ATOM     62  C30 non d ame     -10.336  13.560  64.700  0.00  0.00    -0.075 A 
ATOM     63  C31 non d ame     -10.084  12.483  63.853  0.00  0.00    -0.082 A 
ATOM     64  H49 non d ame      -9.508  14.115  65.139  0.00  0.00     0.084 H 
ATOM     65  C32 non d ame     -11.148  11.773  63.289  0.00  0.00    -0.083 A 
ATOM     66  H50 non d ame      -9.056  12.195  63.631  0.00  0.00     0.083 H 
ATOM     67  C33 non d ame     -12.454  12.146  63.577  0.00  0.00    -0.082 A 
ATOM     68  H51 non d ame     -10.960  10.929  62.626  0.00  0.00     0.083 H 
ATOM     69  C34 non d ame     -12.711  13.221  64.425  0.00  0.00    -0.075 A 
ATOM     70  H52 non d ame     -13.282  11.592  63.134  0.00  0.00     0.083 H 
ATOM     71  H53 non d ame     -13.740  13.507  64.647  0.00  0.00     0.084 H 
ENDBRANCH  58  61
ENDBRANCH  57  58
ENDBRANCH  55  57
ENDBRANCH  52  55
ENDBRANCH  49  52
ENDBRANCH  47  49
BRANCH  47  72
ATOM     72  C24 non d ame     -12.174  13.870  70.495  0.00  0.00    -0.039 C 
ATOM     73  H35 non d ame     -13.145  13.618  70.069  0.00  0.00     0.036 H 
ATOM     74  H36 non d ame     -11.678  13.173  71.171  0.00  0.00     0.036 H 
BRANCH  72  75
ATOM     75  C25 non d ame     -12.350  15.252  71.287  0.00  0.00    -0.001 C 
ATOM     76  C26 non d ame     -11.613  15.154  72.754  0.00  0.00    -0.035 C 
ATOM     77  C27 non d ame     -12.492  15.541  73.710  0.00  0.00     0.085 C 
ATOM     78  H38 non d ame     -11.409  14.113  73.001  0.00  0.00     0.036 H 
ATOM     79  H39 non d ame     -10.818  15.897  72.823  0.00  0.00     0.036 H 
ATOM     80  N5  non d ame     -13.856  15.579  73.066  0.00  0.00    -0.049 N 
ATOM     81  H40 non d ame     -12.474  14.748  74.459  0.00  0.00     0.075 H 
ATOM     82  H41 non d ame     -12.199  16.554  73.982  0.00  0.00     0.075 H 
ATOM     83  C28 non d ame     -13.598  15.528  71.473  0.00  0.00     0.193 C 
ATOM     84  H42 non d ame     -14.327  14.729  73.343  0.00  0.00     0.280 HD
ATOM     85  H43 non d ame     -14.257  16.477  73.298  0.00  0.00     0.280 HD
ATOM     86  H44 non d ame     -13.694  16.429  70.868  0.00  0.00     0.129 H 
ATOM     87  H37 non d ame     -12.110  16.116  70.668  0.00  0.00     0.046 H 
BRANCH  83  88
ATOM     88  O6  non d ame     -14.460  14.565  70.864  0.00  0.00    -0.369 OA
ATOM     89  H45 non d ame     -14.217  13.686  71.162  0.00  0.00     0.212 HD
ENDBRANCH  83  88
ENDBRANCH  72  75
ENDBRANCH  47  72
ENDBRANCH  45  47
ENDBRANCH   1  43
BRANCH   1  90
ATOM     90  C16 non d ame     -10.339  10.073  66.391  0.00  0.00    -0.035 C 
ATOM     91  H21 non d ame     -11.324   9.643  66.205  0.00  0.00     0.037 H 
ATOM     92  H22 non d ame     -10.043  10.993  65.887  0.00  0.00     0.037 H 
BRANCH  90  93
ATOM     93  C17 non d ame      -9.298   8.987  65.974  0.00  0.00    -0.059 C 
ATOM     94  H23 non d ame      -9.754   8.011  66.137  0.00  0.00     0.038 H 
BRANCH  93  95
ATOM     95  C18 non d ame      -8.914   9.087  64.463  0.00  0.00    -0.073 C 
ATOM     96  H24 non d ame      -9.820   9.098  63.859  0.00  0.00     0.028 H 
ATOM     97  H25 non d ame      -8.351  10.005  64.292  0.00  0.00     0.028 H 
ATOM     98  H26 non d ame      -8.302   8.228  64.186  0.00  0.00     0.028 H 
ENDBRANCH  93  95
BRANCH  93  99
ATOM     99  C19 non d ame      -8.050   9.058  66.859  0.00  0.00    -0.073 C 
ATOM    100  H27 non d ame      -8.259   9.675  67.733  0.00  0.00     0.028 H 
ATOM    101  H28 non d ame      -7.775   8.053  67.181  0.00  0.00     0.028 H 
ATOM    102  H29 non d ame      -7.228   9.495  66.293  0.00  0.00     0.028 H 
ENDBRANCH  93  99
ENDBRANCH  90  93
ENDBRANCH   1  90
TORSDOF 26
ENDMDL
MODEL 13
REMARK VINA RESULT:      -6.3      3.076      7.339
REMARK  26 active torsions:
REMARK  status: ('A' for Active; 'I' for Inactive)
REMARK    1  A    between atoms: C2_2  and  C3_3 
REMARK    2  A    between atoms: C4_6  and  C5_7 
REMARK       I    between atoms: C5_7  and  N2_9 
REMARK    3  A    between atoms: N2_9  and  C6_10 
REMARK    4  A    between atoms: C6_10  and  C7_11 
REMARK    5  A    between atoms: C6_10  and  C8_13 
REMARK       I    between atoms: C7_11  and  N3_14 
REMARK    6  A    between atoms: N3_14  and  C9_15 
REMARK    7  A    between atoms: C9_15  and  C10_16 
REMARK    8  A    between atoms: C9_15  and  C11_18 
REMARK       I    between atoms: C10_16  and  N4_21 
REMARK    9  A    between atoms: C11_18  and  C12_19 
REMARK   10  A    between atoms: C11_18  and  C13_20 
REMARK   11  A    between atoms: N4_21  and  C14_22 
REMARK   12  A    between atoms: C14_22  and  C15_23 
REMARK   13  A    between atoms: C14_22  and  C16_25 
REMARK       I    between atoms: C15_23  and  N6_40 
REMARK   14  A    between atoms: C16_25  and  C17_26 
REMARK   15  A    between atoms: C17_26  and  C18_27 
REMARK   16  A    between atoms: C17_26  and  C19_28 
REMARK   17  A    between atoms: C20_29  and  C21_30 
REMARK   18  A    between atoms: C20_29  and  C24_33 
REMARK   19  A    between atoms: C20_29  and  N6_40 
REMARK   20  A    between atoms: C21_30  and  C22_31 
REMARK   21  A    between atoms: C22_31  and  C23_32 
REMARK   22  A    between atoms: C23_32  and  O8_43 
REMARK   23  A    between atoms: C24_33  and  C25_34 
REMARK   24  A    between atoms: C28_38  and  O6_39 
REMARK   25  A    between atoms: C29_42  and  O8_43 
REMARK   26  A    between atoms: C29_42  and  C35_49 
ROOT
ATOM      1  C14 non d ame     -11.094   8.934  69.667  0.00  0.00     0.089 C 
ATOM      2  H20 non d ame     -12.073   8.461  69.739  0.00  0.00     0.087 H 
ENDROOT
BRANCH   1   3
ATOM      3  N4  non d ame     -10.176   7.960  69.095  0.00  0.00    -0.346 N 
ATOM      4  C10 non d ame     -10.522   6.492  69.103  0.00  0.00     0.241 C 
ATOM      5  O4  non d ame     -11.544   6.119  69.577  0.00  0.00    -0.271 OA
ATOM      6  H19 non d ame      -9.311   8.298  68.699  0.00  0.00     0.163 HD
BRANCH   4   7
ATOM      7  C9  non d ame      -9.564   5.498  68.501  0.00  0.00     0.092 C 
ATOM      8  H11 non d ame     -10.129   4.722  67.985  0.00  0.00     0.088 H 
BRANCH   7   9
ATOM      9  N3  non d ame      -8.731   6.168  67.498  0.00  0.00    -0.346 N 
ATOM     10  C7  non d ame      -8.553   5.572  66.196  0.00  0.00     0.240 C 
ATOM     11  O3  non d ame      -9.071   4.555  65.940  0.00  0.00    -0.271 OA
ATOM     12  H10 non d ame      -8.276   7.045  67.705  0.00  0.00     0.163 HD
BRANCH  10  13
ATOM     13  C6  non d ame      -7.662   6.288  65.134  0.00  0.00     0.086 C 
ATOM     14  H6  non d ame      -7.682   5.792  64.163  0.00  0.00     0.086 H 
BRANCH  13  15
ATOM     15  N2  non d ame      -8.169   7.634  64.923  0.00  0.00    -0.343 N 
ATOM     16  C5  non d ame      -8.358   8.128  63.558  0.00  0.00     0.273 C 
ATOM     17  O2  non d ame      -8.096   7.437  62.635  0.00  0.00    -0.266 OA
ATOM     18  H5  non d ame      -8.387   8.219  65.717  0.00  0.00     0.163 HD
BRANCH  16  19
ATOM     19  C4  non d ame      -8.894   9.549  63.320  0.00  0.00     0.154 A 
ATOM     20  C1  non d ame      -9.788  10.287  64.160  0.00  0.00    -0.017 A 
ATOM     21  C2  non d ame      -9.966  11.524  63.501  0.00  0.00     0.077 A 
ATOM     22  H1  non d ame     -10.237   9.973  65.102  0.00  0.00     0.091 H 
ATOM     23  O1  non d ame      -9.253  11.490  62.414  0.00  0.00    -0.218 OA
ATOM     24  N1  non d ame      -8.619  10.348  62.286  0.00  0.00    -0.123 NA
BRANCH  21  25
ATOM     25  C3  non d ame     -10.832  12.683  63.978  0.00  0.00    -0.029 C 
ATOM     26  H2  non d ame     -11.175  12.486  64.995  0.00  0.00     0.036 H 
ATOM     27  H3  non d ame     -10.248  13.603  63.963  0.00  0.00     0.036 H 
ATOM     28  H4  non d ame     -11.693  12.789  63.318  0.00  0.00     0.036 H 
ENDBRANCH  21  25
ENDBRANCH  16  19
ENDBRANCH  13  15
BRANCH  13  29
ATOM     29  C8  non d ame      -6.237   6.343  65.623  0.00  0.00    -0.049 C 
ATOM     30  H7  non d ame      -5.566   6.032  64.823  0.00  0.00     0.030 H 
ATOM     31  H8  non d ame      -5.996   7.363  65.924  0.00  0.00     0.030 H 
ATOM     32  H9  non d ame      -6.120   5.675  66.475  0.00  0.00     0.030 H 
ENDBRANCH  13  29
ENDBRANCH  10  13
ENDBRANCH   7   9
BRANCH   7  33
ATOM     33  C11 non d ame      -8.654   4.913  69.621  0.00  0.00    -0.033 C 
ATOM     34  H12 non d ame      -7.710   4.623  69.159  0.00  0.00     0.042 H 
BRANCH  33  35
ATOM     35  C12 non d ame      -8.333   5.984  70.710  0.00  0.00    -0.071 C 
ATOM     36  H13 non d ame      -8.332   5.513  71.693  0.00  0.00     0.028 H 
ATOM     37  H14 non d ame      -7.352   6.417  70.515  0.00  0.00     0.028 H 
ATOM     38  H15 non d ame      -9.089   6.767  70.683  0.00  0.00     0.028 H 
ENDBRANCH  33  35
BRANCH  33  39
ATOM     39  C13 non d ame      -9.295   3.637  70.253  0.00  0.00    -0.071 C 
ATOM     40  H16 non d ame      -9.965   3.171  69.531  0.00  0.00     0.028 H 
ATOM     41  H17 non d ame      -8.509   2.932  70.526  0.00  0.00     0.028 H 
ATOM     42  H18 non d ame      -9.858   3.916  71.144  0.00  0.00     0.028 H 
ENDBRANCH  33  39
ENDBRANCH   7  33
ENDBRANCH   4   7
ENDBRANCH   1   3
BRANCH   1  43
ATOM     43  C15 non d ame     -11.114  10.192  68.752  0.00  0.00     0.240 C 
ATOM     44  O5  non d ame     -11.297  10.070  67.584  0.00  0.00    -0.271 OA
ATOM     45  N6  non d ame     -10.915  11.550  69.333  0.00  0.00    -0.355 N 
ATOM     46  H46 non d ame     -10.764  11.667  70.325  0.00  0.00     0.162 HD
BRANCH  45  47
ATOM     47  C20 non d ame     -10.939  12.736  68.450  0.00  0.00     0.013 C 
ATOM     48  H30 non d ame     -11.077  12.389  67.426  0.00  0.00     0.072 H 
BRANCH  47  49
ATOM     49  C21 non d ame      -9.627  13.477  68.572  0.00  0.00    -0.038 C 
ATOM     50  H31 non d ame      -9.876  14.449  68.996  0.00  0.00     0.036 H 
ATOM     51  H32 non d ame      -8.957  12.803  69.107  0.00  0.00     0.036 H 
BRANCH  49  52
ATOM     52  C22 non d ame      -8.965  13.753  67.204  0.00  0.00     0.018 C 
ATOM     53  H33 non d ame      -8.740  12.774  66.781  0.00  0.00     0.048 H 
ATOM     54  H34 non d ame      -9.640  14.431  66.681  0.00  0.00     0.048 H 
BRANCH  52  55
ATOM     55  C23 non d ame      -7.605  14.498  67.306  0.00  0.00     0.259 C 
ATOM     56  O7  non d ame      -6.599  13.895  67.496  0.00  0.00    -0.265 OA
BRANCH  55  57
ATOM     57  O8  non d ame      -7.576  15.915  67.181  0.00  0.00    -0.317 OA
BRANCH  57  58
ATOM     58  C29 non d ame      -8.420  16.426  66.146  0.00  0.00     0.052 C 
ATOM     59  H47 non d ame      -7.766  16.600  65.291  0.00  0.00     0.082 H 
ATOM     60  H48 non d ame      -9.247  15.721  66.064  0.00  0.00     0.082 H 
BRANCH  58  61
ATOM     61  C35 non d ame      -8.985  17.792  66.618  0.00  0.00    -0.034 A 
ATOM     62  C30 non d ame     -10.343  17.929  66.887  0.00  0.00    -0.075 A 
ATOM     63  C31 non d ame     -10.851  19.156  67.311  0.00  0.00    -0.082 A 
ATOM     64  H49 non d ame     -11.010  17.075  66.765  0.00  0.00     0.084 H 
ATOM     65  C32 non d ame      -9.995  20.250  67.464  0.00  0.00    -0.083 A 
ATOM     66  H50 non d ame     -11.915  19.260  67.523  0.00  0.00     0.083 H 
ATOM     67  C33 non d ame      -8.641  20.109  67.192  0.00  0.00    -0.082 A 
ATOM     68  H51 non d ame     -10.383  21.213  67.796  0.00  0.00     0.083 H 
ATOM     69  C34 non d ame      -8.129  18.884  66.770  0.00  0.00    -0.075 A 
ATOM     70  H52 non d ame      -7.976  20.965  67.311  0.00  0.00     0.083 H 
ATOM     71  H53 non d ame      -7.064  18.781  66.559  0.00  0.00     0.084 H 
ENDBRANCH  58  61
ENDBRANCH  57  58
ENDBRANCH  55  57
ENDBRANCH  52  55
ENDBRANCH  49  52
ENDBRANCH  47  49
BRANCH  47  72
ATOM     72  C24 non d ame     -12.086  13.659  68.856  0.00  0.00    -0.039 C 
ATOM     73  H35 non d ame     -11.959  14.560  68.254  0.00  0.00     0.036 H 
ATOM     74  H36 non d ame     -12.990  13.060  68.755  0.00  0.00     0.036 H 
BRANCH  72  75
ATOM     75  C25 non d ame     -11.977  14.098  70.392  0.00  0.00    -0.001 C 
ATOM     76  C26 non d ame     -12.993  13.186  71.308  0.00  0.00    -0.035 C 
ATOM     77  C27 non d ame     -13.755  14.009  72.067  0.00  0.00     0.085 C 
ATOM     78  H38 non d ame     -13.720  12.682  70.671  0.00  0.00     0.036 H 
ATOM     79  H39 non d ame     -12.424  12.616  72.043  0.00  0.00     0.036 H 
ATOM     80  N5  non d ame     -13.582  15.404  71.516  0.00  0.00    -0.049 N 
ATOM     81  H40 non d ame     -14.785  13.687  71.903  0.00  0.00     0.075 H 
ATOM     82  H41 non d ame     -13.324  13.966  73.067  0.00  0.00     0.075 H 
ATOM     83  C28 non d ame     -12.292  15.341  70.547  0.00  0.00     0.193 C 
ATOM     84  H42 non d ame     -14.399  15.592  70.952  0.00  0.00     0.280 HD
ATOM     85  H43 non d ame     -13.364  15.998  72.303  0.00  0.00     0.280 HD
ATOM     86  H44 non d ame     -11.335  15.749  70.872  0.00  0.00     0.129 H 
ATOM     87  H37 non d ame     -10.943  14.177  70.728  0.00  0.00     0.046 H 
BRANCH  83  88
ATOM     88  O6  non d ame     -12.578  15.983  69.303  0.00  0.00    -0.369 OA
ATOM     89  H45 non d ame     -12.478  16.933  69.403  0.00  0.00     0.212 HD
ENDBRANCH  83  88
ENDBRANCH  72  75
ENDBRANCH  47  72
ENDBRANCH  45  47
ENDBRANCH   1  43
BRANCH   1  90
ATOM     90  C16 non d ame     -10.606   9.320  71.055  0.00  0.00    -0.035 C 
ATOM     91  H21 non d ame      -9.658   8.798  71.183  0.00  0.00     0.037 H 
ATOM     92  H22 non d ame     -10.635  10.410  71.078  0.00  0.00     0.037 H 
BRANCH  90  93
ATOM     93  C17 non d ame     -11.540   8.828  72.206  0.00  0.00    -0.059 C 
ATOM     94  H23 non d ame     -11.481   9.557  73.014  0.00  0.00     0.038 H 
BRANCH  93  95
ATOM     95  C18 non d ame     -13.033   8.737  71.756  0.00  0.00    -0.073 C 
ATOM     96  H24 non d ame     -13.083   8.708  70.667  0.00  0.00     0.028 H 
ATOM     97  H25 non d ame     -13.481   7.830  72.164  0.00  0.00     0.028 H 
ATOM     98  H26 non d ame     -13.577   9.608  72.122  0.00  0.00     0.028 H 
ENDBRANCH  93  95
BRANCH  93  99
ATOM     99  C19 non d ame     -11.057   7.488  72.767  0.00  0.00    -0.073 C 
ATOM    100  H27 non d ame     -11.735   7.158  73.555  0.00  0.00     0.028 H 
ATOM    101  H28 non d ame     -11.039   6.746  71.968  0.00  0.00     0.028 H 
ATOM    102  H29 non d ame     -10.054   7.605  73.176  0.00  0.00     0.028 H 
ENDBRANCH  93  99
ENDBRANCH  90  93
ENDBRANCH   1  90
TORSDOF 26
ENDMDL
MODEL 14
REMARK VINA RESULT:      -6.2      3.431      9.177
REMARK  26 active torsions:
REMARK  status: ('A' for Active; 'I' for Inactive)
REMARK    1  A    between atoms: C2_2  and  C3_3 
REMARK    2  A    between atoms: C4_6  and  C5_7 
REMARK       I    between atoms: C5_7  and  N2_9 
REMARK    3  A    between atoms: N2_9  and  C6_10 
REMARK    4  A    between atoms: C6_10  and  C7_11 
REMARK    5  A    between atoms: C6_10  and  C8_13 
REMARK       I    between atoms: C7_11  and  N3_14 
REMARK    6  A    between atoms: N3_14  and  C9_15 
REMARK    7  A    between atoms: C9_15  and  C10_16 
REMARK    8  A    between atoms: C9_15  and  C11_18 
REMARK       I    between atoms: C10_16  and  N4_21 
REMARK    9  A    between atoms: C11_18  and  C12_19 
REMARK   10  A    between atoms: C11_18  and  C13_20 
REMARK   11  A    between atoms: N4_21  and  C14_22 
REMARK   12  A    between atoms: C14_22  and  C15_23 
REMARK   13  A    between atoms: C14_22  and  C16_25 
REMARK       I    between atoms: C15_23  and  N6_40 
REMARK   14  A    between atoms: C16_25  and  C17_26 
REMARK   15  A    between atoms: C17_26  and  C18_27 
REMARK   16  A    between atoms: C17_26  and  C19_28 
REMARK   17  A    between atoms: C20_29  and  C21_30 
REMARK   18  A    between atoms: C20_29  and  C24_33 
REMARK   19  A    between atoms: C20_29  and  N6_40 
REMARK   20  A    between atoms: C21_30  and  C22_31 
REMARK   21  A    between atoms: C22_31  and  C23_32 
REMARK   22  A    between atoms: C23_32  and  O8_43 
REMARK   23  A    between atoms: C24_33  and  C25_34 
REMARK   24  A    between atoms: C28_38  and  O6_39 
REMARK   25  A    between atoms: C29_42  and  O8_43 
REMARK   26  A    between atoms: C29_42  and  C35_49 
ROOT
ATOM      1  C14 non d ame      -7.642   9.825  68.394  0.00  0.00     0.089 C 
ATOM      2  H20 non d ame      -6.885   9.188  68.853  0.00  0.00     0.087 H 
ENDROOT
BRANCH   1   3
ATOM      3  N4  non d ame      -7.496   9.707  66.950  0.00  0.00    -0.346 N 
ATOM      4  C10 non d ame      -7.198   8.369  66.322  0.00  0.00     0.241 C 
ATOM      5  O4  non d ame      -7.076   7.402  66.999  0.00  0.00    -0.271 OA
ATOM      6  H19 non d ame      -7.601  10.542  66.392  0.00  0.00     0.163 HD
BRANCH   4   7
ATOM      7  C9  non d ame      -7.056   8.264  64.826  0.00  0.00     0.092 C 
ATOM      8  H11 non d ame      -7.687   7.453  64.462  0.00  0.00     0.088 H 
BRANCH   7   9
ATOM      9  N3  non d ame      -7.537   9.500  64.201  0.00  0.00    -0.346 N 
ATOM     10  C7  non d ame      -8.369   9.437  63.025  0.00  0.00     0.240 C 
ATOM     11  O3  non d ame      -8.660   8.400  62.567  0.00  0.00    -0.271 OA
ATOM     12  H10 non d ame      -7.293  10.403  64.584  0.00  0.00     0.163 HD
BRANCH  10  13
ATOM     13  C6  non d ame      -8.875  10.756  62.363  0.00  0.00     0.086 C 
ATOM     14  H6  non d ame      -9.751  10.602  61.732  0.00  0.00     0.086 H 
BRANCH  13  15
ATOM     15  N2  non d ame      -9.273  11.685  63.407  0.00  0.00    -0.343 N 
ATOM     16  C5  non d ame     -10.696  11.921  63.660  0.00  0.00     0.273 C 
ATOM     17  O2  non d ame     -11.513  11.360  63.016  0.00  0.00    -0.266 OA
ATOM     18  H5  non d ame      -8.567  12.162  63.951  0.00  0.00     0.163 HD
BRANCH  16  19
ATOM     19  C4  non d ame     -11.130  12.899  64.762  0.00  0.00     0.154 A 
ATOM     20  C1  non d ame     -10.309  13.851  65.446  0.00  0.00    -0.017 A 
ATOM     21  C2  non d ame     -11.179  14.496  66.354  0.00  0.00     0.077 A 
ATOM     22  H1  non d ame      -9.246  14.045  65.306  0.00  0.00     0.091 H 
ATOM     23  O1  non d ame     -12.359  13.970  66.200  0.00  0.00    -0.218 OA
ATOM     24  N1  non d ame     -12.355  13.035  65.277  0.00  0.00    -0.123 NA
BRANCH  21  25
ATOM     25  C3  non d ame     -10.804  15.603  67.330  0.00  0.00    -0.029 C 
ATOM     26  H2  non d ame     -10.299  15.170  68.194  0.00  0.00     0.036 H 
ATOM     27  H3  non d ame     -10.139  16.312  66.837  0.00  0.00     0.036 H 
ATOM     28  H4  non d ame     -11.707  16.120  67.658  0.00  0.00     0.036 H 
ENDBRANCH  21  25
ENDBRANCH  16  19
ENDBRANCH  13  15
BRANCH  13  29
ATOM     29  C8  non d ame      -7.773  11.357  61.528  0.00  0.00    -0.049 C 
ATOM     30  H7  non d ame      -6.806  11.051  61.927  0.00  0.00     0.030 H 
ATOM     31  H8  non d ame      -7.868  11.012  60.498  0.00  0.00     0.030 H 
ATOM     32  H9  non d ame      -7.849  12.444  61.556  0.00  0.00     0.030 H 
ENDBRANCH  13  29
ENDBRANCH  10  13
ENDBRANCH   7   9
BRANCH   7  33
ATOM     33  C11 non d ame      -5.558   8.050  64.460  0.00  0.00    -0.033 C 
ATOM     34  H12 non d ame      -5.078   7.568  65.312  0.00  0.00     0.042 H 
BRANCH  33  35
ATOM     35  C12 non d ame      -5.403   7.099  63.233  0.00  0.00    -0.071 C 
ATOM     36  H13 non d ame      -6.375   6.678  62.974  0.00  0.00     0.028 H 
ATOM     37  H14 non d ame      -5.014   7.662  62.385  0.00  0.00     0.028 H 
ATOM     38  H15 non d ame      -4.713   6.294  63.483  0.00  0.00     0.028 H 
ENDBRANCH  33  35
BRANCH  33  39
ATOM     39  C13 non d ame      -4.843   9.417  64.212  0.00  0.00    -0.071 C 
ATOM     40  H16 non d ame      -5.582  10.171  63.942  0.00  0.00     0.028 H 
ATOM     41  H17 non d ame      -4.324   9.726  65.120  0.00  0.00     0.028 H 
ATOM     42  H18 non d ame      -4.122   9.307  63.401  0.00  0.00     0.028 H 
ENDBRANCH  33  39
ENDBRANCH   7  33
ENDBRANCH   4   7
ENDBRANCH   1   3
BRANCH   1  43
ATOM     43  C15 non d ame      -9.086   9.397  68.783  0.00  0.00     0.240 C 
ATOM     44  O5  non d ame      -9.988  10.155  68.629  0.00  0.00    -0.271 OA
ATOM     45  N6  non d ame      -9.344   8.039  69.340  0.00  0.00    -0.355 N 
ATOM     46  H46 non d ame      -8.586   7.385  69.471  0.00  0.00     0.162 HD
BRANCH  45  47
ATOM     47  C20 non d ame     -10.723   7.647  69.704  0.00  0.00     0.013 C 
ATOM     48  H30 non d ame     -11.402   8.401  69.307  0.00  0.00     0.072 H 
BRANCH  47  49
ATOM     49  C21 non d ame     -10.844   7.583  71.210  0.00  0.00    -0.038 C 
ATOM     50  H31 non d ame     -11.611   6.836  71.413  0.00  0.00     0.036 H 
ATOM     51  H32 non d ame      -9.829   7.438  71.580  0.00  0.00     0.036 H 
BRANCH  49  52
ATOM     52  C22 non d ame     -11.348   8.906  71.827  0.00  0.00     0.018 C 
ATOM     53  H33 non d ame     -11.178   8.815  72.900  0.00  0.00     0.048 H 
ATOM     54  H34 non d ame     -10.859   9.701  71.263  0.00  0.00     0.048 H 
BRANCH  52  55
ATOM     55  C23 non d ame     -12.875   9.136  71.653  0.00  0.00     0.259 C 
ATOM     56  O7  non d ame     -13.641   8.239  71.799  0.00  0.00    -0.265 OA
BRANCH  55  57
ATOM     57  O8  non d ame     -13.350  10.430  71.303  0.00  0.00    -0.317 OA
BRANCH  57  58
ATOM     58  C29 non d ame     -12.356  11.276  70.718  0.00  0.00     0.052 C 
ATOM     59  H47 non d ame     -11.419  11.014  71.209  0.00  0.00     0.082 H 
ATOM     60  H48 non d ame     -12.459  11.152  69.640  0.00  0.00     0.082 H 
BRANCH  58  61
ATOM     61  C35 non d ame     -12.705  12.745  71.077  0.00  0.00    -0.034 A 
ATOM     62  C30 non d ame     -12.240  13.787  70.281  0.00  0.00    -0.075 A 
ATOM     63  C31 non d ame     -12.553  15.106  70.604  0.00  0.00    -0.082 A 
ATOM     64  H49 non d ame     -11.631  13.569  69.404  0.00  0.00     0.084 H 
ATOM     65  C32 non d ame     -13.332  15.383  71.730  0.00  0.00    -0.083 A 
ATOM     66  H50 non d ame     -12.189  15.920  69.977  0.00  0.00     0.083 H 
ATOM     67  C33 non d ame     -13.791  14.340  72.524  0.00  0.00    -0.082 A 
ATOM     68  H51 non d ame     -13.583  16.411  71.990  0.00  0.00     0.083 H 
ATOM     69  C34 non d ame     -13.483  13.020  72.204  0.00  0.00    -0.075 A 
ATOM     70  H52 non d ame     -14.398  14.559  73.404  0.00  0.00     0.083 H 
ATOM     71  H53 non d ame     -13.848  12.206  72.831  0.00  0.00     0.084 H 
ENDBRANCH  58  61
ENDBRANCH  57  58
ENDBRANCH  55  57
ENDBRANCH  52  55
ENDBRANCH  49  52
ENDBRANCH  47  49
BRANCH  47  72
ATOM     72  C24 non d ame     -11.045   6.278  69.108  0.00  0.00    -0.039 C 
ATOM     73  H35 non d ame     -11.074   5.592  69.956  0.00  0.00     0.036 H 
ATOM     74  H36 non d ame     -11.936   6.428  68.499  0.00  0.00     0.036 H 
BRANCH  72  75
ATOM     75  C25 non d ame      -9.884   5.769  68.129  0.00  0.00    -0.001 C 
ATOM     76  C26 non d ame     -10.455   5.664  66.591  0.00  0.00    -0.035 C 
ATOM     77  C27 non d ame     -10.161   4.436  66.100  0.00  0.00     0.085 C 
ATOM     78  H38 non d ame     -11.544   5.683  66.594  0.00  0.00     0.036 H 
ATOM     79  H39 non d ame      -9.899   6.338  65.938  0.00  0.00     0.036 H 
ATOM     80  N5  non d ame      -9.734   3.583  67.270  0.00  0.00    -0.049 N 
ATOM     81  H40 non d ame     -11.100   4.049  65.702  0.00  0.00     0.075 H 
ATOM     82  H41 non d ame      -9.309   4.583  65.438  0.00  0.00     0.075 H 
ATOM     83  C28 non d ame      -9.448   4.607  68.485  0.00  0.00     0.193 C 
ATOM     84  H42 non d ame     -10.531   3.011  67.513  0.00  0.00     0.280 HD
ATOM     85  H43 non d ame      -8.862   3.148  67.004  0.00  0.00     0.280 HD
ATOM     86  H44 non d ame      -8.425   4.857  68.768  0.00  0.00     0.129 H 
ATOM     87  H37 non d ame      -8.951   6.315  68.276  0.00  0.00     0.046 H 
BRANCH  83  88
ATOM     88  O6  non d ame     -10.073   4.140  69.681  0.00  0.00    -0.369 OA
ATOM     89  H45 non d ame      -9.985   3.186  69.736  0.00  0.00     0.212 HD
ENDBRANCH  83  88
ENDBRANCH  72  75
ENDBRANCH  47  72
ENDBRANCH  45  47
ENDBRANCH   1  43
BRANCH   1  90
ATOM     90  C16 non d ame      -7.410  11.272  68.799  0.00  0.00    -0.035 C 
ATOM     91  H21 non d ame      -7.810  11.869  67.979  0.00  0.00     0.037 H 
ATOM     92  H22 non d ame      -7.837  11.364  69.798  0.00  0.00     0.037 H 
BRANCH  90  93
ATOM     93  C17 non d ame      -5.901  11.653  68.927  0.00  0.00    -0.059 C 
ATOM     94  H23 non d ame      -5.321  10.733  68.860  0.00  0.00     0.038 H 
BRANCH  93  95
ATOM     95  C18 non d ame      -5.432  12.598  67.774  0.00  0.00    -0.073 C 
ATOM     96  H24 non d ame      -5.995  12.372  66.869  0.00  0.00     0.028 H 
ATOM     97  H25 non d ame      -5.605  13.635  68.061  0.00  0.00     0.028 H 
ATOM     98  H26 non d ame      -4.368  12.444  67.590  0.00  0.00     0.028 H 
ENDBRANCH  93  95
BRANCH  93  99
ATOM     99  C19 non d ame      -5.609  12.277  70.295  0.00  0.00    -0.073 C 
ATOM    100  H27 non d ame      -5.060  13.209  70.159  0.00  0.00     0.028 H 
ATOM    101  H28 non d ame      -6.549  12.480  70.809  0.00  0.00     0.028 H 
ATOM    102  H29 non d ame      -5.012  11.586  70.889  0.00  0.00     0.028 H 
ENDBRANCH  93  99
ENDBRANCH  90  93
ENDBRANCH   1  90
TORSDOF 26
ENDMDL
MODEL 15
REMARK VINA RESULT:      -6.2      3.447      7.751
REMARK  26 active torsions:
REMARK  status: ('A' for Active; 'I' for Inactive)
REMARK    1  A    between atoms: C2_2  and  C3_3 
REMARK    2  A    between atoms: C4_6  and  C5_7 
REMARK       I    between atoms: C5_7  and  N2_9 
REMARK    3  A    between atoms: N2_9  and  C6_10 
REMARK    4  A    between atoms: C6_10  and  C7_11 
REMARK    5  A    between atoms: C6_10  and  C8_13 
REMARK       I    between atoms: C7_11  and  N3_14 
REMARK    6  A    between atoms: N3_14  and  C9_15 
REMARK    7  A    between atoms: C9_15  and  C10_16 
REMARK    8  A    between atoms: C9_15  and  C11_18 
REMARK       I    between atoms: C10_16  and  N4_21 
REMARK    9  A    between atoms: C11_18  and  C12_19 
REMARK   10  A    between atoms: C11_18  and  C13_20 
REMARK   11  A    between atoms: N4_21  and  C14_22 
REMARK   12  A    between atoms: C14_22  and  C15_23 
REMARK   13  A    between atoms: C14_22  and  C16_25 
REMARK       I    between atoms: C15_23  and  N6_40 
REMARK   14  A    between atoms: C16_25  and  C17_26 
REMARK   15  A    between atoms: C17_26  and  C18_27 
REMARK   16  A    between atoms: C17_26  and  C19_28 
REMARK   17  A    between atoms: C20_29  and  C21_30 
REMARK   18  A    between atoms: C20_29  and  C24_33 
REMARK   19  A    between atoms: C20_29  and  N6_40 
REMARK   20  A    between atoms: C21_30  and  C22_31 
REMARK   21  A    between atoms: C22_31  and  C23_32 
REMARK   22  A    between atoms: C23_32  and  O8_43 
REMARK   23  A    between atoms: C24_33  and  C25_34 
REMARK   24  A    between atoms: C28_38  and  O6_39 
REMARK   25  A    between atoms: C29_42  and  O8_43 
REMARK   26  A    between atoms: C29_42  and  C35_49 
ROOT
ATOM      1  C14 non d ame     -10.507  10.592  67.615  0.00  0.00     0.089 C 
ATOM      2  H20 non d ame      -9.478  10.640  67.971  0.00  0.00     0.087 H 
ENDROOT
BRANCH   1   3
ATOM      3  N4  non d ame     -11.167   9.508  68.329  0.00  0.00    -0.346 N 
ATOM      4  C10 non d ame     -10.794   9.200  69.758  0.00  0.00     0.241 C 
ATOM      5  O4  non d ame      -9.959   9.835  70.311  0.00  0.00    -0.271 OA
ATOM      6  H19 non d ame     -11.874   8.978  67.840  0.00  0.00     0.163 HD
BRANCH   4   7
ATOM      7  C9  non d ame     -11.491   8.079  70.483  0.00  0.00     0.092 C 
ATOM      8  H11 non d ame     -12.411   7.827  69.955  0.00  0.00     0.088 H 
BRANCH   7   9
ATOM      9  N3  non d ame     -10.642   6.884  70.468  0.00  0.00    -0.346 N 
ATOM     10  C7  non d ame     -10.668   5.996  69.331  0.00  0.00     0.240 C 
ATOM     11  O3  non d ame     -11.367   6.227  68.421  0.00  0.00    -0.271 OA
ATOM     12  H10 non d ame     -10.035   6.670  71.246  0.00  0.00     0.163 HD
BRANCH  10  13
ATOM     13  C6  non d ame      -9.764   4.724  69.322  0.00  0.00     0.086 C 
ATOM     14  H6  non d ame     -10.259   3.859  68.881  0.00  0.00     0.086 H 
BRANCH  13  15
ATOM     15  N2  non d ame      -8.588   4.988  68.510  0.00  0.00    -0.343 N 
ATOM     16  C5  non d ame      -8.539   4.500  67.130  0.00  0.00     0.273 C 
ATOM     17  O2  non d ame      -9.450   3.895  66.683  0.00  0.00    -0.266 OA
ATOM     18  H5  non d ame      -7.812   5.504  68.901  0.00  0.00     0.163 HD
BRANCH  16  19
ATOM     19  C4  non d ame      -7.302   4.773  66.260  0.00  0.00     0.154 A 
ATOM     20  C1  non d ame      -7.244   5.547  65.058  0.00  0.00    -0.017 A 
ATOM     21  C2  non d ame      -5.892   5.489  64.653  0.00  0.00     0.077 A 
ATOM     22  H1  non d ame      -8.058   6.071  64.556  0.00  0.00     0.091 H 
ATOM     23  O1  non d ame      -5.257   4.765  65.527  0.00  0.00    -0.218 OA
ATOM     24  N1  non d ame      -6.058   4.336  66.475  0.00  0.00    -0.123 NA
BRANCH  21  25
ATOM     25  C3  non d ame      -5.291   6.152  63.421  0.00  0.00    -0.029 C 
ATOM     26  H2  non d ame      -4.250   5.844  63.313  0.00  0.00     0.036 H 
ATOM     27  H3  non d ame      -5.852   5.851  62.536  0.00  0.00     0.036 H 
ATOM     28  H4  non d ame      -5.339   7.235  63.530  0.00  0.00     0.036 H 
ENDBRANCH  21  25
ENDBRANCH  16  19
ENDBRANCH  13  15
BRANCH  13  29
ATOM     29  C8  non d ame      -9.354   4.386  70.732  0.00  0.00    -0.049 C 
ATOM     30  H7  non d ame      -8.289   4.152  70.755  0.00  0.00     0.030 H 
ATOM     31  H8  non d ame      -9.553   5.237  71.383  0.00  0.00     0.030 H 
ATOM     32  H9  non d ame      -9.922   3.523  71.078  0.00  0.00     0.030 H 
ENDBRANCH  13  29
ENDBRANCH  10  13
ENDBRANCH   7   9
BRANCH   7  33
ATOM     33  C11 non d ame     -11.759   8.502  71.957  0.00  0.00    -0.033 C 
ATOM     34  H12 non d ame     -11.231   9.439  72.131  0.00  0.00     0.042 H 
BRANCH  33  35
ATOM     35  C12 non d ame     -13.277   8.766  72.206  0.00  0.00    -0.071 C 
ATOM     36  H13 non d ame     -13.869   8.153  71.525  0.00  0.00     0.028 H 
ATOM     37  H14 non d ame     -13.526   8.509  73.235  0.00  0.00     0.028 H 
ATOM     38  H15 non d ame     -13.496   9.819  72.030  0.00  0.00     0.028 H 
ENDBRANCH  33  35
BRANCH  33  39
ATOM     39  C13 non d ame     -11.198   7.439  72.955  0.00  0.00    -0.071 C 
ATOM     40  H16 non d ame     -10.892   7.932  73.877  0.00  0.00     0.028 H 
ATOM     41  H17 non d ame     -11.973   6.704  73.176  0.00  0.00     0.028 H 
ATOM     42  H18 non d ame     -10.339   6.939  72.508  0.00  0.00     0.028 H 
ENDBRANCH  33  39
ENDBRANCH   7  33
ENDBRANCH   4   7
ENDBRANCH   1   3
BRANCH   1  43
ATOM     43  C15 non d ame     -11.285  11.911  67.888  0.00  0.00     0.240 C 
ATOM     44  O5  non d ame     -12.012  12.351  67.057  0.00  0.00    -0.271 OA
ATOM     45  N6  non d ame     -11.131  12.621  69.190  0.00  0.00    -0.355 N 
ATOM     46  H46 non d ame     -10.520  12.254  69.905  0.00  0.00     0.162 HD
BRANCH  45  47
ATOM     47  C20 non d ame     -11.879  13.873  69.435  0.00  0.00     0.013 C 
ATOM     48  H30 non d ame     -12.701  13.917  68.721  0.00  0.00     0.072 H 
BRANCH  47  49
ATOM     49  C21 non d ame     -10.956  15.054  69.233  0.00  0.00    -0.038 C 
ATOM     50  H31 non d ame     -10.994  15.620  70.164  0.00  0.00     0.036 H 
ATOM     51  H32 non d ame     -10.011  14.633  68.889  0.00  0.00     0.036 H 
BRANCH  49  52
ATOM     52  C22 non d ame     -11.439  16.009  68.120  0.00  0.00     0.018 C 
ATOM     53  H33 non d ame     -12.420  15.640  67.819  0.00  0.00     0.048 H 
ATOM     54  H34 non d ame     -11.338  17.015  68.530  0.00  0.00     0.048 H 
BRANCH  52  55
ATOM     55  C23 non d ame     -10.558  15.977  66.841  0.00  0.00     0.259 C 
ATOM     56  O7  non d ame     -10.684  15.105  66.044  0.00  0.00    -0.265 OA
BRANCH  55  57
ATOM     57  O8  non d ame      -9.588  16.998  66.637  0.00  0.00    -0.317 OA
BRANCH  57  58
ATOM     58  C29 non d ame      -8.313  16.512  66.208  0.00  0.00     0.052 C 
ATOM     59  H47 non d ame      -8.526  15.720  65.489  0.00  0.00     0.082 H 
ATOM     60  H48 non d ame      -7.751  17.392  65.897  0.00  0.00     0.082 H 
BRANCH  58  61
ATOM     61  C35 non d ame      -7.602  15.883  67.435  0.00  0.00    -0.034 A 
ATOM     62  C30 non d ame      -7.160  16.694  68.475  0.00  0.00    -0.075 A 
ATOM     63  C31 non d ame      -6.521  16.130  69.578  0.00  0.00    -0.082 A 
ATOM     64  H49 non d ame      -7.315  17.772  68.427  0.00  0.00     0.084 H 
ATOM     65  C32 non d ame      -6.322  14.748  69.638  0.00  0.00    -0.083 A 
ATOM     66  H50 non d ame      -6.178  16.768  70.393  0.00  0.00     0.083 H 
ATOM     67  C33 non d ame      -6.762  13.942  68.596  0.00  0.00    -0.082 A 
ATOM     68  H51 non d ame      -5.824  14.298  70.496  0.00  0.00     0.083 H 
ATOM     69  C34 non d ame      -7.403  14.502  67.493  0.00  0.00    -0.075 A 
ATOM     70  H52 non d ame      -6.603  12.865  68.644  0.00  0.00     0.083 H 
ATOM     71  H53 non d ame      -7.747  13.863  66.679  0.00  0.00     0.084 H 
ENDBRANCH  58  61
ENDBRANCH  57  58
ENDBRANCH  55  57
ENDBRANCH  52  55
ENDBRANCH  49  52
ENDBRANCH  47  49
BRANCH  47  72
ATOM     72  C24 non d ame     -12.415  13.884  70.864  0.00  0.00    -0.039 C 
ATOM     73  H35 non d ame     -13.386  13.389  70.814  0.00  0.00     0.036 H 
ATOM     74  H36 non d ame     -11.619  13.459  71.476  0.00  0.00     0.036 H 
BRANCH  72  75
ATOM     75  C25 non d ame     -12.671  15.375  71.391  0.00  0.00    -0.001 C 
ATOM     76  C26 non d ame     -11.671  15.702  72.655  0.00  0.00    -0.035 C 
ATOM     77  C27 non d ame     -12.411  16.181  73.683  0.00  0.00     0.085 C 
ATOM     78  H38 non d ame     -11.254  14.777  73.050  0.00  0.00     0.036 H 
ATOM     79  H39 non d ame     -11.013  16.534  72.405  0.00  0.00     0.036 H 
ATOM     80  N5  non d ame     -13.858  15.904  73.353  0.00  0.00    -0.049 N 
ATOM     81  H40 non d ame     -12.124  15.586  74.551  0.00  0.00     0.075 H 
ATOM     82  H41 non d ame     -12.247  17.258  73.683  0.00  0.00     0.075 H 
ATOM     83  C28 non d ame     -13.891  15.529  71.783  0.00  0.00     0.193 C 
ATOM     84  H42 non d ame     -14.121  15.087  73.885  0.00  0.00     0.280 HD
ATOM     85  H43 non d ame     -14.354  16.774  73.486  0.00  0.00     0.280 HD
ATOM     86  H44 non d ame     -14.246  16.252  71.049  0.00  0.00     0.129 H 
ATOM     87  H37 non d ame     -12.697  16.101  70.578  0.00  0.00     0.046 H 
BRANCH  83  88
ATOM     88  O6  non d ame     -14.677  14.354  71.574  0.00  0.00    -0.369 OA
ATOM     89  H45 non d ame     -14.340  13.875  70.814  0.00  0.00     0.212 HD
ENDBRANCH  83  88
ENDBRANCH  72  75
ENDBRANCH  47  72
ENDBRANCH  45  47
ENDBRANCH   1  43
BRANCH   1  90
ATOM     90  C16 non d ame     -10.524  10.287  66.126  0.00  0.00    -0.035 C 
ATOM     91  H21 non d ame     -10.857   9.252  66.047  0.00  0.00     0.037 H 
ATOM     92  H22 non d ame     -11.114  11.085  65.675  0.00  0.00     0.037 H 
BRANCH  90  93
ATOM     93  C17 non d ame      -9.114  10.349  65.458  0.00  0.00    -0.059 C 
ATOM     94  H23 non d ame      -9.187  11.007  64.592  0.00  0.00     0.038 H 
BRANCH  93  95
ATOM     95  C18 non d ame      -8.033  10.942  66.417  0.00  0.00    -0.073 C 
ATOM     96  H24 non d ame      -7.955  10.317  67.307  0.00  0.00     0.028 H 
ATOM     97  H25 non d ame      -7.070  10.969  65.907  0.00  0.00     0.028 H 
ATOM     98  H26 non d ame      -8.319  11.953  66.706  0.00  0.00     0.028 H 
ENDBRANCH  93  95
BRANCH  93  99
ATOM     99  C19 non d ame      -8.690   8.969  64.946  0.00  0.00    -0.073 C 
ATOM    100  H27 non d ame      -8.108   8.460  65.715  0.00  0.00     0.028 H 
ATOM    101  H28 non d ame      -9.578   8.381  64.712  0.00  0.00     0.028 H 
ATOM    102  H29 non d ame      -8.084   9.085  64.048  0.00  0.00     0.028 H 
ENDBRANCH  93  99
ENDBRANCH  90  93
ENDBRANCH   1  90
TORSDOF 26
ENDMDL
MODEL 16
REMARK VINA RESULT:      -6.2      3.378      7.096
REMARK  26 active torsions:
REMARK  status: ('A' for Active; 'I' for Inactive)
REMARK    1  A    between atoms: C2_2  and  C3_3 
REMARK    2  A    between atoms: C4_6  and  C5_7 
REMARK       I    between atoms: C5_7  and  N2_9 
REMARK    3  A    between atoms: N2_9  and  C6_10 
REMARK    4  A    between atoms: C6_10  and  C7_11 
REMARK    5  A    between atoms: C6_10  and  C8_13 
REMARK       I    between atoms: C7_11  and  N3_14 
REMARK    6  A    between atoms: N3_14  and  C9_15 
REMARK    7  A    between atoms: C9_15  and  C10_16 
REMARK    8  A    between atoms: C9_15  and  C11_18 
REMARK       I    between atoms: C10_16  and  N4_21 
REMARK    9  A    between atoms: C11_18  and  C12_19 
REMARK   10  A    between atoms: C11_18  and  C13_20 
REMARK   11  A    between atoms: N4_21  and  C14_22 
REMARK   12  A    between atoms: C14_22  and  C15_23 
REMARK   13  A    between atoms: C14_22  and  C16_25 
REMARK       I    between atoms: C15_23  and  N6_40 
REMARK   14  A    between atoms: C16_25  and  C17_26 
REMARK   15  A    between atoms: C17_26  and  C18_27 
REMARK   16  A    between atoms: C17_26  and  C19_28 
REMARK   17  A    between atoms: C20_29  and  C21_30 
REMARK   18  A    between atoms: C20_29  and  C24_33 
REMARK   19  A    between atoms: C20_29  and  N6_40 
REMARK   20  A    between atoms: C21_30  and  C22_31 
REMARK   21  A    between atoms: C22_31  and  C23_32 
REMARK   22  A    between atoms: C23_32  and  O8_43 
REMARK   23  A    between atoms: C24_33  and  C25_34 
REMARK   24  A    between atoms: C28_38  and  O6_39 
REMARK   25  A    between atoms: C29_42  and  O8_43 
REMARK   26  A    between atoms: C29_42  and  C35_49 
ROOT
ATOM      1  C14 non d ame     -10.518   7.642  67.512  0.00  0.00     0.089 C 
ATOM      2  H20 non d ame     -11.451   7.218  67.141  0.00  0.00     0.087 H 
ENDROOT
BRANCH   1   3
ATOM      3  N4  non d ame      -9.434   6.789  67.049  0.00  0.00    -0.346 N 
ATOM      4  C10 non d ame      -9.732   5.447  66.429  0.00  0.00     0.241 C 
ATOM      5  O4  non d ame     -10.854   5.074  66.316  0.00  0.00    -0.271 OA
ATOM      6  H19 non d ame      -8.487   7.124  67.156  0.00  0.00     0.163 HD
BRANCH   4   7
ATOM      7  C9  non d ame      -8.598   4.580  65.949  0.00  0.00     0.092 C 
ATOM      8  H11 non d ame      -8.950   3.948  65.134  0.00  0.00     0.088 H 
BRANCH   7   9
ATOM      9  N3  non d ame      -7.529   5.426  65.411  0.00  0.00    -0.346 N 
ATOM     10  C7  non d ame      -7.594   5.888  64.047  0.00  0.00     0.240 C 
ATOM     11  O3  non d ame      -8.498   5.588  63.367  0.00  0.00    -0.271 OA
ATOM     12  H10 non d ame      -6.742   5.692  65.985  0.00  0.00     0.163 HD
BRANCH  10  13
ATOM     13  C6  non d ame      -6.451   6.786  63.479  0.00  0.00     0.086 C 
ATOM     14  H6  non d ame      -6.736   7.302  62.562  0.00  0.00     0.086 H 
BRANCH  13  15
ATOM     15  N2  non d ame      -6.132   7.816  64.454  0.00  0.00    -0.343 N 
ATOM     16  C5  non d ame      -6.356   9.223  64.116  0.00  0.00     0.273 C 
ATOM     17  O2  non d ame      -6.791   9.517  63.057  0.00  0.00    -0.266 OA
ATOM     18  H5  non d ame      -5.758   7.556  65.356  0.00  0.00     0.163 HD
BRANCH  16  19
ATOM     19  C4  non d ame      -6.025  10.322  65.138  0.00  0.00     0.154 A 
ATOM     20  C1  non d ame      -6.846  10.773  66.220  0.00  0.00    -0.017 A 
ATOM     21  C2  non d ame      -6.091  11.787  66.851  0.00  0.00     0.077 A 
ATOM     22  H1  non d ame      -7.838  10.420  66.503  0.00  0.00     0.091 H 
ATOM     23  O1  non d ame      -4.969  11.895  66.202  0.00  0.00    -0.218 OA
ATOM     24  N1  non d ame      -4.907  11.052  65.198  0.00  0.00    -0.123 NA
BRANCH  21  25
ATOM     25  C3  non d ame      -6.513  12.599  68.068  0.00  0.00    -0.029 C 
ATOM     26  H2  non d ame      -7.130  13.439  67.748  0.00  0.00     0.036 H 
ATOM     27  H3  non d ame      -7.084  11.966  68.747  0.00  0.00     0.036 H 
ATOM     28  H4  non d ame      -5.626  12.974  68.580  0.00  0.00     0.036 H 
ENDBRANCH  21  25
ENDBRANCH  16  19
ENDBRANCH  13  15
BRANCH  13  29
ATOM     29  C8  non d ame      -5.233   5.941  63.204  0.00  0.00    -0.049 C 
ATOM     30  H7  non d ame      -5.212   5.667  62.149  0.00  0.00     0.030 H 
ATOM     31  H8  non d ame      -4.335   6.506  63.451  0.00  0.00     0.030 H 
ATOM     32  H9  non d ame      -5.274   5.037  63.812  0.00  0.00     0.030 H 
ENDBRANCH  13  29
ENDBRANCH  10  13
ENDBRANCH   7   9
BRANCH   7  33
ATOM     33  C11 non d ame      -8.045   3.744  67.141  0.00  0.00    -0.033 C 
ATOM     34  H12 non d ame      -8.175   4.337  68.046  0.00  0.00     0.042 H 
BRANCH  33  35
ATOM     35  C12 non d ame      -8.850   2.420  67.328  0.00  0.00    -0.071 C 
ATOM     36  H13 non d ame      -8.172   1.570  67.254  0.00  0.00     0.028 H 
ATOM     37  H14 non d ame      -9.325   2.420  68.309  0.00  0.00     0.028 H 
ATOM     38  H15 non d ame      -9.612   2.346  66.554  0.00  0.00     0.028 H 
ENDBRANCH  33  35
BRANCH  33  39
ATOM     39  C13 non d ame      -6.519   3.459  66.963  0.00  0.00    -0.071 C 
ATOM     40  H16 non d ame      -6.007   4.381  66.688  0.00  0.00     0.028 H 
ATOM     41  H17 non d ame      -6.109   3.082  67.900  0.00  0.00     0.028 H 
ATOM     42  H18 non d ame      -6.378   2.716  66.179  0.00  0.00     0.028 H 
ENDBRANCH  33  39
ENDBRANCH   7  33
ENDBRANCH   4   7
ENDBRANCH   1   3
BRANCH   1  43
ATOM     43  C15 non d ame     -10.276   9.084  66.981  0.00  0.00     0.240 C 
ATOM     44  O5  non d ame      -9.815   9.245  65.898  0.00  0.00    -0.271 OA
ATOM     45  N6  non d ame     -10.626  10.265  67.821  0.00  0.00    -0.355 N 
ATOM     46  H46 non d ame     -11.023  10.141  68.741  0.00  0.00     0.162 HD
BRANCH  45  47
ATOM     47  C20 non d ame     -10.391  11.629  67.301  0.00  0.00     0.013 C 
ATOM     48  H30 non d ame      -9.444  11.624  66.762  0.00  0.00     0.072 H 
BRANCH  47  49
ATOM     49  C21 non d ame     -10.322  12.600  68.458  0.00  0.00    -0.038 C 
ATOM     50  H31 non d ame      -9.532  12.227  69.109  0.00  0.00     0.036 H 
ATOM     51  H32 non d ame     -10.236  13.589  68.007  0.00  0.00     0.036 H 
BRANCH  49  52
ATOM     52  C22 non d ame     -11.614  12.616  69.304  0.00  0.00     0.018 C 
ATOM     53  H33 non d ame     -12.419  12.352  68.619  0.00  0.00     0.048 H 
ATOM     54  H34 non d ame     -11.407  11.987  70.170  0.00  0.00     0.048 H 
BRANCH  52  55
ATOM     55  C23 non d ame     -11.975  14.018  69.869  0.00  0.00     0.259 C 
ATOM     56  O7  non d ame     -12.267  14.150  71.013  0.00  0.00    -0.265 OA
BRANCH  55  57
ATOM     57  O8  non d ame     -11.964  15.144  69.000  0.00  0.00    -0.317 OA
BRANCH  57  58
ATOM     58  C29 non d ame     -11.256  16.273  69.518  0.00  0.00     0.052 C 
ATOM     59  H47 non d ame     -11.997  17.068  69.611  0.00  0.00     0.082 H 
ATOM     60  H48 non d ame     -10.730  15.912  70.401  0.00  0.00     0.082 H 
BRANCH  58  61
ATOM     61  C35 non d ame     -10.204  16.704  68.462  0.00  0.00    -0.034 A 
ATOM     62  C30 non d ame     -10.485  17.746  67.583  0.00  0.00    -0.075 A 
ATOM     63  C31 non d ame      -9.540  18.133  66.634  0.00  0.00    -0.082 A 
ATOM     64  H49 non d ame     -11.445  18.258  67.638  0.00  0.00     0.084 H 
ATOM     65  C32 non d ame      -8.310  17.472  66.564  0.00  0.00    -0.083 A 
ATOM     66  H50 non d ame      -9.762  18.951  65.948  0.00  0.00     0.083 H 
ATOM     67  C33 non d ame      -8.036  16.432  67.441  0.00  0.00    -0.082 A 
ATOM     68  H51 non d ame      -7.565  17.769  65.826  0.00  0.00     0.083 H 
ATOM     69  C34 non d ame      -8.976  16.043  68.392  0.00  0.00    -0.075 A 
ATOM     70  H52 non d ame      -7.076  15.917  67.383  0.00  0.00     0.083 H 
ATOM     71  H53 non d ame      -8.753  15.225  69.078  0.00  0.00     0.084 H 
ENDBRANCH  58  61
ENDBRANCH  57  58
ENDBRANCH  55  57
ENDBRANCH  52  55
ENDBRANCH  49  52
ENDBRANCH  47  49
BRANCH  47  72
ATOM     72  C24 non d ame     -11.531  12.030  66.366  0.00  0.00    -0.039 C 
ATOM     73  H35 non d ame     -11.945  11.092  65.996  0.00  0.00     0.036 H 
ATOM     74  H36 non d ame     -12.155  12.710  66.945  0.00  0.00     0.036 H 
BRANCH  72  75
ATOM     75  C25 non d ame     -10.996  12.845  65.095  0.00  0.00    -0.001 C 
ATOM     76  C26 non d ame     -10.596  14.377  65.540  0.00  0.00    -0.035 C 
ATOM     77  C27 non d ame     -11.210  15.248  64.704  0.00  0.00     0.085 C 
ATOM     78  H38 non d ame     -11.030  14.609  66.512  0.00  0.00     0.036 H 
ATOM     79  H39 non d ame      -9.536  14.554  65.359  0.00  0.00     0.036 H 
ATOM     80  N5  non d ame     -12.249  14.467  63.936  0.00  0.00    -0.049 N 
ATOM     81  H40 non d ame     -11.713  15.968  65.351  0.00  0.00     0.075 H 
ATOM     82  H41 non d ame     -10.436  15.583  64.014  0.00  0.00     0.075 H 
ATOM     83  C28 non d ame     -11.894  12.909  64.169  0.00  0.00     0.193 C 
ATOM     84  H42 non d ame     -13.137  14.663  64.374  0.00  0.00     0.280 HD
ATOM     85  H43 non d ame     -12.108  14.685  62.960  0.00  0.00     0.280 HD
ATOM     86  H44 non d ame     -11.411  12.327  63.384  0.00  0.00     0.129 H 
ATOM     87  H37 non d ame     -10.254  12.284  64.527  0.00  0.00     0.046 H 
BRANCH  83  88
ATOM     88  O6  non d ame     -13.075  12.181  64.512  0.00  0.00    -0.369 OA
ATOM     89  H45 non d ame     -13.295  11.575  63.801  0.00  0.00     0.212 HD
ENDBRANCH  83  88
ENDBRANCH  72  75
ENDBRANCH  47  72
ENDBRANCH  45  47
ENDBRANCH   1  43
BRANCH   1  90
ATOM     90  C16 non d ame     -10.526   7.652  69.033  0.00  0.00    -0.035 C 
ATOM     91  H21 non d ame      -9.483   7.537  69.328  0.00  0.00     0.037 H 
ATOM     92  H22 non d ame     -11.076   8.551  69.312  0.00  0.00     0.037 H 
BRANCH  90  93
ATOM     93  C17 non d ame     -11.298   6.449  69.663  0.00  0.00    -0.059 C 
ATOM     94  H23 non d ame     -11.991   6.070  68.911  0.00  0.00     0.038 H 
BRANCH  93  95
ATOM     95  C18 non d ame     -10.342   5.280  70.062  0.00  0.00    -0.073 C 
ATOM     96  H24 non d ame      -9.337   5.492  69.698  0.00  0.00     0.028 H 
ATOM     97  H25 non d ame     -10.322   5.182  71.148  0.00  0.00     0.028 H 
ATOM     98  H26 non d ame     -10.701   4.350  69.620  0.00  0.00     0.028 H 
ENDBRANCH  93  95
BRANCH  93  99
ATOM     99  C19 non d ame     -12.133   6.904  70.862  0.00  0.00    -0.073 C 
ATOM    100  H27 non d ame     -12.070   6.156  71.654  0.00  0.00     0.028 H 
ATOM    101  H28 non d ame     -11.752   7.856  71.230  0.00  0.00     0.028 H 
ATOM    102  H29 non d ame     -13.173   7.022  70.557  0.00  0.00     0.028 H 
ENDBRANCH  93  99
ENDBRANCH  90  93
ENDBRANCH   1  90
TORSDOF 26
ENDMDL
MODEL 17
REMARK VINA RESULT:      -6.2      4.316      8.210
REMARK  26 active torsions:
REMARK  status: ('A' for Active; 'I' for Inactive)
REMARK    1  A    between atoms: C2_2  and  C3_3 
REMARK    2  A    between atoms: C4_6  and  C5_7 
REMARK       I    between atoms: C5_7  and  N2_9 
REMARK    3  A    between atoms: N2_9  and  C6_10 
REMARK    4  A    between atoms: C6_10  and  C7_11 
REMARK    5  A    between atoms: C6_10  and  C8_13 
REMARK       I    between atoms: C7_11  and  N3_14 
REMARK    6  A    between atoms: N3_14  and  C9_15 
REMARK    7  A    between atoms: C9_15  and  C10_16 
REMARK    8  A    between atoms: C9_15  and  C11_18 
REMARK       I    between atoms: C10_16  and  N4_21 
REMARK    9  A    between atoms: C11_18  and  C12_19 
REMARK   10  A    between atoms: C11_18  and  C13_20 
REMARK   11  A    between atoms: N4_21  and  C14_22 
REMARK   12  A    between atoms: C14_22  and  C15_23 
REMARK   13  A    between atoms: C14_22  and  C16_25 
REMARK       I    between atoms: C15_23  and  N6_40 
REMARK   14  A    between atoms: C16_25  and  C17_26 
REMARK   15  A    between atoms: C17_26  and  C18_27 
REMARK   16  A    between atoms: C17_26  and  C19_28 
REMARK   17  A    between atoms: C20_29  and  C21_30 
REMARK   18  A    between atoms: C20_29  and  C24_33 
REMARK   19  A    between atoms: C20_29  and  N6_40 
REMARK   20  A    between atoms: C21_30  and  C22_31 
REMARK   21  A    between atoms: C22_31  and  C23_32 
REMARK   22  A    between atoms: C23_32  and  O8_43 
REMARK   23  A    between atoms: C24_33  and  C25_34 
REMARK   24  A    between atoms: C28_38  and  O6_39 
REMARK   25  A    between atoms: C29_42  and  O8_43 
REMARK   26  A    between atoms: C29_42  and  C35_49 
ROOT
ATOM      1  C14 non d ame      -8.022   8.723  64.081  0.00  0.00     0.089 C 
ATOM      2  H20 non d ame      -6.935   8.640  64.093  0.00  0.00     0.087 H 
ENDROOT
BRANCH   1   3
ATOM      3  N4  non d ame      -8.563   7.437  64.496  0.00  0.00    -0.346 N 
ATOM      4  C10 non d ame      -7.771   6.172  64.283  0.00  0.00     0.241 C 
ATOM      5  O4  non d ame      -6.700   6.214  63.772  0.00  0.00    -0.271 OA
ATOM      6  H19 non d ame      -9.477   7.423  64.926  0.00  0.00     0.163 HD
BRANCH   4   7
ATOM      7  C9  non d ame      -8.344   4.851  64.723  0.00  0.00     0.092 C 
ATOM      8  H11 non d ame      -7.612   4.064  64.541  0.00  0.00     0.088 H 
BRANCH   7   9
ATOM      9  N3  non d ame      -8.596   4.884  66.167  0.00  0.00    -0.346 N 
ATOM     10  C7  non d ame      -7.659   4.270  67.075  0.00  0.00     0.240 C 
ATOM     11  O3  non d ame      -6.699   3.744  66.662  0.00  0.00    -0.271 OA
ATOM     12  H10 non d ame      -9.421   5.333  66.538  0.00  0.00     0.163 HD
BRANCH  10  13
ATOM     13  C6  non d ame      -7.934   4.305  68.611  0.00  0.00     0.086 C 
ATOM     14  H6  non d ame      -7.284   3.633  69.171  0.00  0.00     0.086 H 
BRANCH  13  15
ATOM     15  N2  non d ame      -7.672   5.646  69.106  0.00  0.00    -0.343 N 
ATOM     16  C5  non d ame      -6.596   5.859  70.077  0.00  0.00     0.273 C 
ATOM     17  O2  non d ame      -5.950   4.945  70.455  0.00  0.00    -0.266 OA
ATOM     18  H5  non d ame      -8.231   6.422  68.779  0.00  0.00     0.163 HD
BRANCH  16  19
ATOM     19  C4  non d ame      -6.307   7.272  70.607  0.00  0.00     0.154 A 
ATOM     20  C1  non d ame      -6.399   8.503  69.884  0.00  0.00    -0.017 A 
ATOM     21  C2  non d ame      -6.033   9.501  70.815  0.00  0.00     0.077 A 
ATOM     22  H1  non d ame      -6.687   8.650  68.843  0.00  0.00     0.091 H 
ATOM     23  O1  non d ame      -5.767   8.902  71.939  0.00  0.00    -0.218 OA
ATOM     24  N1  non d ame      -5.919   7.601  71.843  0.00  0.00    -0.123 NA
BRANCH  21  25
ATOM     25  C3  non d ame      -5.966  10.999  70.552  0.00  0.00    -0.029 C 
ATOM     26  H2  non d ame      -6.816  11.299  69.939  0.00  0.00     0.036 H 
ATOM     27  H3  non d ame      -5.994  11.536  71.500  0.00  0.00     0.036 H 
ATOM     28  H4  non d ame      -5.039  11.235  70.028  0.00  0.00     0.036 H 
ENDBRANCH  21  25
ENDBRANCH  16  19
ENDBRANCH  13  15
BRANCH  13  29
ATOM     29  C8  non d ame      -9.370   3.928  68.876  0.00  0.00    -0.049 C 
ATOM     30  H7  non d ame      -9.462   3.541  69.891  0.00  0.00     0.030 H 
ATOM     31  H8  non d ame     -10.003   4.808  68.764  0.00  0.00     0.030 H 
ATOM     32  H9  non d ame      -9.681   3.163  68.166  0.00  0.00     0.030 H 
ENDBRANCH  13  29
ENDBRANCH  10  13
ENDBRANCH   7   9
BRANCH   7  33
ATOM     33  C11 non d ame      -9.683   4.591  63.972  0.00  0.00    -0.033 C 
ATOM     34  H12 non d ame     -10.274   5.505  64.027  0.00  0.00     0.042 H 
BRANCH  33  35
ATOM     35  C12 non d ame      -9.436   4.282  62.462  0.00  0.00    -0.071 C 
ATOM     36  H13 non d ame      -8.571   4.845  62.112  0.00  0.00     0.028 H 
ATOM     37  H14 non d ame      -9.249   3.215  62.335  0.00  0.00     0.028 H 
ATOM     38  H15 non d ame     -10.314   4.568  61.885  0.00  0.00     0.028 H 
ENDBRANCH  33  35
BRANCH  33  39
ATOM     39  C13 non d ame     -10.496   3.447  64.658  0.00  0.00    -0.071 C 
ATOM     40  H16 non d ame     -11.546   3.528  64.377  0.00  0.00     0.028 H 
ATOM     41  H17 non d ame     -10.107   2.480  64.336  0.00  0.00     0.028 H 
ATOM     42  H18 non d ame     -10.402   3.534  65.741  0.00  0.00     0.028 H 
ENDBRANCH  33  39
ENDBRANCH   7  33
ENDBRANCH   4   7
ENDBRANCH   1   3
BRANCH   1  43
ATOM     43  C15 non d ame      -8.538   9.817  65.060  0.00  0.00     0.240 C 
ATOM     44  O5  non d ame      -7.795  10.657  65.452  0.00  0.00    -0.271 OA
ATOM     45  N6  non d ame      -9.961   9.820  65.502  0.00  0.00    -0.355 N 
ATOM     46  H46 non d ame     -10.603   9.114  65.173  0.00  0.00     0.162 HD
BRANCH  45  47
ATOM     47  C20 non d ame     -10.437  10.868  66.432  0.00  0.00     0.013 C 
ATOM     48  H30 non d ame      -9.605  11.544  66.630  0.00  0.00     0.072 H 
BRANCH  47  49
ATOM     49  C21 non d ame     -10.896  10.222  67.720  0.00  0.00    -0.038 C 
ATOM     50  H31 non d ame     -11.259  11.038  68.345  0.00  0.00     0.036 H 
ATOM     51  H32 non d ame     -11.571   9.420  67.422  0.00  0.00     0.036 H 
BRANCH  49  52
ATOM     52  C22 non d ame      -9.742   9.555  68.500  0.00  0.00     0.018 C 
ATOM     53  H33 non d ame      -8.826   9.867  67.997  0.00  0.00     0.048 H 
ATOM     54  H34 non d ame      -9.905   9.813  69.546  0.00  0.00     0.048 H 
BRANCH  52  55
ATOM     55  C23 non d ame      -9.758   8.002  68.435  0.00  0.00     0.259 C 
ATOM     56  O7  non d ame      -9.529   7.439  67.414  0.00  0.00    -0.265 OA
BRANCH  55  57
ATOM     57  O8  non d ame     -10.062   7.259  69.609  0.00  0.00    -0.317 OA
BRANCH  57  58
ATOM     58  C29 non d ame     -10.139   8.052  70.797  0.00  0.00     0.052 C 
ATOM     59  H47 non d ame      -9.651   7.466  71.575  0.00  0.00     0.082 H 
ATOM     60  H48 non d ame      -9.745   9.031  70.524  0.00  0.00     0.082 H 
BRANCH  58  61
ATOM     61  C35 non d ame     -11.637   8.213  71.169  0.00  0.00    -0.034 A 
ATOM     62  C30 non d ame     -12.485   7.111  71.136  0.00  0.00    -0.075 A 
ATOM     63  C31 non d ame     -13.831   7.256  71.470  0.00  0.00    -0.082 A 
ATOM     64  H49 non d ame     -12.096   6.135  70.849  0.00  0.00     0.084 H 
ATOM     65  C32 non d ame     -14.329   8.509  71.836  0.00  0.00    -0.083 A 
ATOM     66  H50 non d ame     -14.493   6.390  71.445  0.00  0.00     0.083 H 
ATOM     67  C33 non d ame     -13.479   9.607  71.864  0.00  0.00    -0.082 A 
ATOM     68  H51 non d ame     -15.379   8.631  72.099  0.00  0.00     0.083 H 
ATOM     69  C34 non d ame     -12.133   9.467  71.533  0.00  0.00    -0.075 A 
ATOM     70  H52 non d ame     -13.870  10.584  72.148  0.00  0.00     0.083 H 
ATOM     71  H53 non d ame     -11.471  10.333  71.559  0.00  0.00     0.084 H 
ENDBRANCH  58  61
ENDBRANCH  57  58
ENDBRANCH  55  57
ENDBRANCH  52  55
ENDBRANCH  49  52
ENDBRANCH  47  49
BRANCH  47  72
ATOM     72  C24 non d ame     -11.601  11.629  65.801  0.00  0.00    -0.039 C 
ATOM     73  H35 non d ame     -12.080  10.919  65.126  0.00  0.00     0.036 H 
ATOM     74  H36 non d ame     -12.160  12.049  66.637  0.00  0.00     0.036 H 
BRANCH  72  75
ATOM     75  C25 non d ame     -11.090  12.858  64.909  0.00  0.00    -0.001 C 
ATOM     76  C26 non d ame     -11.814  14.249  65.406  0.00  0.00    -0.035 C 
ATOM     77  C27 non d ame     -12.354  14.869  64.330  0.00  0.00     0.085 C 
ATOM     78  H38 non d ame     -12.678  14.019  66.029  0.00  0.00     0.036 H 
ATOM     79  H39 non d ame     -11.062  14.957  65.757  0.00  0.00     0.036 H 
ATOM     80  N5  non d ame     -12.352  13.870  63.198  0.00  0.00    -0.049 N 
ATOM     81  H40 non d ame     -13.386  15.088  64.608  0.00  0.00     0.075 H 
ATOM     82  H41 non d ame     -11.671  15.682  64.088  0.00  0.00     0.075 H 
ATOM     83  C28 non d ame     -11.367  12.677  63.661  0.00  0.00     0.193 C 
ATOM     84  H42 non d ame     -13.291  13.506  63.135  0.00  0.00     0.280 HD
ATOM     85  H43 non d ame     -11.938  14.338  62.404  0.00  0.00     0.280 HD
ATOM     86  H44 non d ame     -10.363  12.595  63.245  0.00  0.00     0.129 H 
ATOM     87  H37 non d ame     -10.005  12.873  64.808  0.00  0.00     0.046 H 
BRANCH  83  88
ATOM     88  O6  non d ame     -11.983  11.410  63.424  0.00  0.00    -0.369 OA
ATOM     89  H45 non d ame     -12.859  11.544  63.055  0.00  0.00     0.212 HD
ENDBRANCH  83  88
ENDBRANCH  72  75
ENDBRANCH  47  72
ENDBRANCH  45  47
ENDBRANCH   1  43
BRANCH   1  90
ATOM     90  C16 non d ame      -8.500   9.032  62.672  0.00  0.00    -0.035 C 
ATOM     91  H21 non d ame      -8.844   8.079  62.268  0.00  0.00     0.037 H 
ATOM     92  H22 non d ame      -9.199   9.861  62.779  0.00  0.00     0.037 H 
BRANCH  90  93
ATOM     93  C17 non d ame      -7.366   9.531  61.720  0.00  0.00    -0.059 C 
ATOM     94  H23 non d ame      -7.414   8.936  60.809  0.00  0.00     0.038 H 
BRANCH  93  95
ATOM     95  C18 non d ame      -7.549  11.030  61.321  0.00  0.00    -0.073 C 
ATOM     96  H24 non d ame      -6.597  11.551  61.422  0.00  0.00     0.028 H 
ATOM     97  H25 non d ame      -7.890  11.092  60.287  0.00  0.00     0.028 H 
ATOM     98  H26 non d ame      -8.288  11.492  61.976  0.00  0.00     0.028 H 
ENDBRANCH  93  95
BRANCH  93  99
ATOM     99  C19 non d ame      -5.988   9.297  62.344  0.00  0.00    -0.073 C 
ATOM    100  H27 non d ame      -5.291   8.967  61.573  0.00  0.00     0.028 H 
ATOM    101  H28 non d ame      -5.627  10.227  62.786  0.00  0.00     0.028 H 
ATOM    102  H29 non d ame      -6.063   8.533  63.117  0.00  0.00     0.028 H 
ENDBRANCH  93  99
ENDBRANCH  90  93
ENDBRANCH   1  90
TORSDOF 26
ENDMDL
MODEL 18
REMARK VINA RESULT:      -6.2      2.858      7.304
REMARK  26 active torsions:
REMARK  status: ('A' for Active; 'I' for Inactive)
REMARK    1  A    between atoms: C2_2  and  C3_3 
REMARK    2  A    between atoms: C4_6  and  C5_7 
REMARK       I    between atoms: C5_7  and  N2_9 
REMARK    3  A    between atoms: N2_9  and  C6_10 
REMARK    4  A    between atoms: C6_10  and  C7_11 
REMARK    5  A    between atoms: C6_10  and  C8_13 
REMARK       I    between atoms: C7_11  and  N3_14 
REMARK    6  A    between atoms: N3_14  and  C9_15 
REMARK    7  A    between atoms: C9_15  and  C10_16 
REMARK    8  A    between atoms: C9_15  and  C11_18 
REMARK       I    between atoms: C10_16  and  N4_21 
REMARK    9  A    between atoms: C11_18  and  C12_19 
REMARK   10  A    between atoms: C11_18  and  C13_20 
REMARK   11  A    between atoms: N4_21  and  C14_22 
REMARK   12  A    between atoms: C14_22  and  C15_23 
REMARK   13  A    between atoms: C14_22  and  C16_25 
REMARK       I    between atoms: C15_23  and  N6_40 
REMARK   14  A    between atoms: C16_25  and  C17_26 
REMARK   15  A    between atoms: C17_26  and  C18_27 
REMARK   16  A    between atoms: C17_26  and  C19_28 
REMARK   17  A    between atoms: C20_29  and  C21_30 
REMARK   18  A    between atoms: C20_29  and  C24_33 
REMARK   19  A    between atoms: C20_29  and  N6_40 
REMARK   20  A    between atoms: C21_30  and  C22_31 
REMARK   21  A    between atoms: C22_31  and  C23_32 
REMARK   22  A    between atoms: C23_32  and  O8_43 
REMARK   23  A    between atoms: C24_33  and  C25_34 
REMARK   24  A    between atoms: C28_38  and  O6_39 
REMARK   25  A    between atoms: C29_42  and  O8_43 
REMARK   26  A    between atoms: C29_42  and  C35_49 
ROOT
ATOM      1  C14 non d ame      -9.114  10.402  66.953  0.00  0.00     0.089 C 
ATOM      2  H20 non d ame      -9.790   9.711  66.450  0.00  0.00     0.087 H 
ENDROOT
BRANCH   1   3
ATOM      3  N4  non d ame      -9.810  11.674  67.089  0.00  0.00    -0.346 N 
ATOM      4  C10 non d ame     -11.292  11.705  67.364  0.00  0.00     0.241 C 
ATOM      5  O4  non d ame     -11.905  10.694  67.468  0.00  0.00    -0.271 OA
ATOM      6  H19 non d ame      -9.271  12.523  66.994  0.00  0.00     0.163 HD
BRANCH   4   7
ATOM      7  C9  non d ame     -11.995  13.030  67.507  0.00  0.00     0.092 C 
ATOM      8  H11 non d ame     -12.925  12.884  68.055  0.00  0.00     0.088 H 
BRANCH   7   9
ATOM      9  N3  non d ame     -11.163  13.941  68.298  0.00  0.00    -0.346 N 
ATOM     10  C7  non d ame     -11.692  14.540  69.499  0.00  0.00     0.240 C 
ATOM     11  O3  non d ame     -12.785  14.300  69.842  0.00  0.00    -0.271 OA
ATOM     12  H10 non d ame     -10.219  14.159  68.014  0.00  0.00     0.163 HD
BRANCH  10  13
ATOM     13  C6  non d ame     -10.803  15.512  70.336  0.00  0.00     0.086 C 
ATOM     14  H6  non d ame      -9.912  15.029  70.736  0.00  0.00     0.086 H 
BRANCH  13  15
ATOM     15  N2  non d ame     -10.342  16.588  69.475  0.00  0.00    -0.343 N 
ATOM     16  C5  non d ame      -9.117  16.412  68.693  0.00  0.00     0.273 C 
ATOM     17  O2  non d ame      -8.508  15.402  68.766  0.00  0.00    -0.266 OA
ATOM     18  H5  non d ame     -10.868  17.449  69.421  0.00  0.00     0.163 HD
BRANCH  16  19
ATOM     19  C4  non d ame      -8.619  17.541  67.777  0.00  0.00     0.154 A 
ATOM     20  C1  non d ame      -7.930  18.733  68.170  0.00  0.00    -0.017 A 
ATOM     21  C2  non d ame      -7.698  19.432  66.964  0.00  0.00     0.077 A 
ATOM     22  H1  non d ame      -7.644  19.042  69.175  0.00  0.00     0.091 H 
ATOM     23  O1  non d ame      -8.196  18.716  65.999  0.00  0.00    -0.218 OA
ATOM     24  N1  non d ame      -8.739  17.608  66.448  0.00  0.00    -0.123 NA
BRANCH  21  25
ATOM     25  C3  non d ame      -6.992  20.774  66.823  0.00  0.00    -0.029 C 
ATOM     26  H2  non d ame      -6.973  21.279  67.789  0.00  0.00     0.036 H 
ATOM     27  H3  non d ame      -5.971  20.613  66.476  0.00  0.00     0.036 H 
ATOM     28  H4  non d ame      -7.527  21.392  66.100  0.00  0.00     0.036 H 
ENDBRANCH  21  25
ENDBRANCH  16  19
ENDBRANCH  13  15
BRANCH  13  29
ATOM     29  C8  non d ame     -11.608  16.074  71.480  0.00  0.00    -0.049 C 
ATOM     30  H7  non d ame     -12.182  16.934  71.133  0.00  0.00     0.030 H 
ATOM     31  H8  non d ame     -12.289  15.310  71.856  0.00  0.00     0.030 H 
ATOM     32  H9  non d ame     -10.935  16.386  72.278  0.00  0.00     0.030 H 
ENDBRANCH  13  29
ENDBRANCH  10  13
ENDBRANCH   7   9
BRANCH   7  33
ATOM     33  C11 non d ame     -12.236  13.644  66.097  0.00  0.00    -0.033 C 
ATOM     34  H12 non d ame     -13.184  14.181  66.130  0.00  0.00     0.042 H 
BRANCH  33  35
ATOM     35  C12 non d ame     -11.124  14.676  65.729  0.00  0.00    -0.071 C 
ATOM     36  H13 non d ame     -10.145  14.209  65.834  0.00  0.00     0.028 H 
ATOM     37  H14 non d ame     -11.261  15.005  64.699  0.00  0.00     0.028 H 
ATOM     38  H15 non d ame     -11.191  15.535  66.397  0.00  0.00     0.028 H 
ENDBRANCH  33  35
BRANCH  33  39
ATOM     39  C13 non d ame     -12.351  12.526  65.012  0.00  0.00    -0.071 C 
ATOM     40  H16 non d ame     -13.376  12.480  64.645  0.00  0.00     0.028 H 
ATOM     41  H17 non d ame     -11.679  12.752  64.184  0.00  0.00     0.028 H 
ATOM     42  H18 non d ame     -12.078  11.566  65.450  0.00  0.00     0.028 H 
ENDBRANCH  33  39
ENDBRANCH   7  33
ENDBRANCH   4   7
ENDBRANCH   1   3
BRANCH   1  43
ATOM     43  C15 non d ame      -8.712   9.904  68.371  0.00  0.00     0.240 C 
ATOM     44  O5  non d ame      -7.677  10.243  68.845  0.00  0.00    -0.271 OA
ATOM     45  N6  non d ame      -9.623   9.010  69.141  0.00  0.00    -0.355 N 
ATOM     46  H46 non d ame     -10.507   8.719  68.751  0.00  0.00     0.162 HD
BRANCH  45  47
ATOM     47  C20 non d ame      -9.227   8.545  70.488  0.00  0.00     0.013 C 
ATOM     48  H30 non d ame      -8.200   8.866  70.665  0.00  0.00     0.072 H 
BRANCH  47  49
ATOM     49  C21 non d ame      -9.314   7.037  70.542  0.00  0.00    -0.038 C 
ATOM     50  H31 non d ame      -8.896   6.752  71.508  0.00  0.00     0.036 H 
ATOM     51  H32 non d ame     -10.349   6.793  70.303  0.00  0.00     0.036 H 
BRANCH  49  52
ATOM     52  C22 non d ame      -8.444   6.347  69.469  0.00  0.00     0.018 C 
ATOM     53  H33 non d ame      -8.079   7.148  68.826  0.00  0.00     0.048 H 
ATOM     54  H34 non d ame      -7.737   5.725  70.018  0.00  0.00     0.048 H 
BRANCH  52  55
ATOM     55  C23 non d ame      -9.237   5.382  68.545  0.00  0.00     0.259 C 
ATOM     56  O7  non d ame      -9.985   4.583  69.007  0.00  0.00    -0.265 OA
BRANCH  55  57
ATOM     57  O8  non d ame      -9.049   5.455  67.137  0.00  0.00    -0.317 OA
BRANCH  57  58
ATOM     58  C29 non d ame      -8.449   6.675  66.691  0.00  0.00     0.052 C 
ATOM     59  H47 non d ame      -9.276   7.313  66.380  0.00  0.00     0.082 H 
ATOM     60  H48 non d ame      -7.790   6.992  67.499  0.00  0.00     0.082 H 
BRANCH  58  61
ATOM     61  C35 non d ame      -7.580   6.355  65.446  0.00  0.00    -0.034 A 
ATOM     62  C30 non d ame      -6.192   6.361  65.545  0.00  0.00    -0.075 A 
ATOM     63  C31 non d ame      -5.412   6.074  64.426  0.00  0.00    -0.082 A 
ATOM     64  H49 non d ame      -5.717   6.591  66.498  0.00  0.00     0.084 H 
ATOM     65  C32 non d ame      -6.024   5.782  63.204  0.00  0.00    -0.083 A 
ATOM     66  H50 non d ame      -4.325   6.077  64.507  0.00  0.00     0.083 H 
ATOM     67  C33 non d ame      -7.409   5.780  63.110  0.00  0.00    -0.082 A 
ATOM     68  H51 non d ame      -5.421   5.556  62.325  0.00  0.00     0.083 H 
ATOM     69  C34 non d ame      -8.193   6.064  64.226  0.00  0.00    -0.075 A 
ATOM     70  H52 non d ame      -7.883   5.554  62.155  0.00  0.00     0.083 H 
ATOM     71  H53 non d ame      -9.280   6.060  64.144  0.00  0.00     0.084 H 
ENDBRANCH  58  61
ENDBRANCH  57  58
ENDBRANCH  55  57
ENDBRANCH  52  55
ENDBRANCH  49  52
ENDBRANCH  47  49
BRANCH  47  72
ATOM     72  C24 non d ame     -10.159   9.148  71.537  0.00  0.00    -0.039 C 
ATOM     73  H35 non d ame     -10.069   8.502  72.411  0.00  0.00     0.036 H 
ATOM     74  H36 non d ame      -9.878  10.199  71.605  0.00  0.00     0.036 H 
BRANCH  72  75
ATOM     75  C25 non d ame     -11.690   9.098  71.068  0.00  0.00    -0.001 C 
ATOM     76  C26 non d ame     -12.298  10.623  70.977  0.00  0.00    -0.035 C 
ATOM     77  C27 non d ame     -13.458  10.673  71.675  0.00  0.00     0.085 C 
ATOM     78  H38 non d ame     -11.649  11.316  71.511  0.00  0.00     0.036 H 
ATOM     79  H39 non d ame     -12.607  10.842  69.955  0.00  0.00     0.036 H 
ATOM     80  N5  non d ame     -13.529   9.413  72.504  0.00  0.00    -0.049 N 
ATOM     81  H40 non d ame     -13.361  11.531  72.341  0.00  0.00     0.075 H 
ATOM     82  H41 non d ame     -14.250  10.650  70.927  0.00  0.00     0.075 H 
ATOM     83  C28 non d ame     -12.411   8.419  71.897  0.00  0.00     0.193 C 
ATOM     84  H42 non d ame     -13.255   9.671  73.441  0.00  0.00     0.280 HD
ATOM     85  H43 non d ame     -14.441   9.011  72.337  0.00  0.00     0.280 HD
ATOM     86  H44 non d ame     -12.701   7.579  71.265  0.00  0.00     0.129 H 
ATOM     87  H37 non d ame     -11.836   8.453  70.201  0.00  0.00     0.046 H 
BRANCH  83  88
ATOM     88  O6  non d ame     -11.631   7.852  72.951  0.00  0.00    -0.369 OA
ATOM     89  H45 non d ame     -11.769   8.354  73.757  0.00  0.00     0.212 HD
ENDBRANCH  83  88
ENDBRANCH  72  75
ENDBRANCH  47  72
ENDBRANCH  45  47
ENDBRANCH   1  43
BRANCH   1  90
ATOM     90  C16 non d ame      -7.866  10.608  66.110  0.00  0.00    -0.035 C 
ATOM     91  H21 non d ame      -7.618  11.664  66.214  0.00  0.00     0.037 H 
ATOM     92  H22 non d ame      -7.161   9.848  66.448  0.00  0.00     0.037 H 
BRANCH  90  93
ATOM     93  C17 non d ame      -8.090  10.354  64.586  0.00  0.00    -0.059 C 
ATOM     94  H23 non d ame      -8.245  11.322  64.109  0.00  0.00     0.038 H 
BRANCH  93  95
ATOM     95  C18 non d ame      -6.851   9.683  63.911  0.00  0.00    -0.073 C 
ATOM     96  H24 non d ame      -7.082   8.644  63.680  0.00  0.00     0.028 H 
ATOM     97  H25 non d ame      -6.606  10.215  62.991  0.00  0.00     0.028 H 
ATOM     98  H26 non d ame      -6.000   9.725  64.591  0.00  0.00     0.028 H 
ENDBRANCH  93  95
BRANCH  93  99
ATOM     99  C19 non d ame      -9.355   9.524  64.350  0.00  0.00    -0.073 C 
ATOM    100  H27 non d ame     -10.089  10.124  63.811  0.00  0.00     0.028 H 
ATOM    101  H28 non d ame      -9.104   8.640  63.761  0.00  0.00     0.028 H 
ATOM    102  H29 non d ame      -9.771   9.215  65.309  0.00  0.00     0.028 H 
ENDBRANCH  93  99
ENDBRANCH  90  93
ENDBRANCH   1  90
TORSDOF 26
ENDMDL
MODEL 19
REMARK VINA RESULT:      -6.2      2.665      7.536
REMARK  26 active torsions:
REMARK  status: ('A' for Active; 'I' for Inactive)
REMARK    1  A    between atoms: C2_2  and  C3_3 
REMARK    2  A    between atoms: C4_6  and  C5_7 
REMARK       I    between atoms: C5_7  and  N2_9 
REMARK    3  A    between atoms: N2_9  and  C6_10 
REMARK    4  A    between atoms: C6_10  and  C7_11 
REMARK    5  A    between atoms: C6_10  and  C8_13 
REMARK       I    between atoms: C7_11  and  N3_14 
REMARK    6  A    between atoms: N3_14  and  C9_15 
REMARK    7  A    between atoms: C9_15  and  C10_16 
REMARK    8  A    between atoms: C9_15  and  C11_18 
REMARK       I    between atoms: C10_16  and  N4_21 
REMARK    9  A    between atoms: C11_18  and  C12_19 
REMARK   10  A    between atoms: C11_18  and  C13_20 
REMARK   11  A    between atoms: N4_21  and  C14_22 
REMARK   12  A    between atoms: C14_22  and  C15_23 
REMARK   13  A    between atoms: C14_22  and  C16_25 
REMARK       I    between atoms: C15_23  and  N6_40 
REMARK   14  A    between atoms: C16_25  and  C17_26 
REMARK   15  A    between atoms: C17_26  and  C18_27 
REMARK   16  A    between atoms: C17_26  and  C19_28 
REMARK   17  A    between atoms: C20_29  and  C21_30 
REMARK   18  A    between atoms: C20_29  and  C24_33 
REMARK   19  A    between atoms: C20_29  and  N6_40 
REMARK   20  A    between atoms: C21_30  and  C22_31 
REMARK   21  A    between atoms: C22_31  and  C23_32 
REMARK   22  A    between atoms: C23_32  and  O8_43 
REMARK   23  A    between atoms: C24_33  and  C25_34 
REMARK   24  A    between atoms: C28_38  and  O6_39 
REMARK   25  A    between atoms: C29_42  and  O8_43 
REMARK   26  A    between atoms: C29_42  and  C35_49 
ROOT
ATOM      1  C14 non d ame      -7.057   9.878  63.346  0.00  0.00     0.089 C 
ATOM      2  H20 non d ame      -6.599  10.617  62.688  0.00  0.00     0.087 H 
ENDROOT
BRANCH   1   3
ATOM      3  N4  non d ame      -6.418   9.995  64.648  0.00  0.00    -0.346 N 
ATOM      4  C10 non d ame      -5.060  10.637  64.776  0.00  0.00     0.241 C 
ATOM      5  O4  non d ame      -4.499  11.050  63.815  0.00  0.00    -0.271 OA
ATOM      6  H19 non d ame      -6.911   9.635  65.453  0.00  0.00     0.163 HD
BRANCH   4   7
ATOM      7  C9  non d ame      -4.416  10.755  66.132  0.00  0.00     0.092 C 
ATOM      8  H11 non d ame      -3.493  11.328  66.043  0.00  0.00     0.088 H 
BRANCH   7   9
ATOM      9  N3  non d ame      -5.303  11.499  67.032  0.00  0.00    -0.346 N 
ATOM     10  C7  non d ame      -4.933  12.821  67.476  0.00  0.00     0.240 C 
ATOM     11  O3  non d ame      -3.926  13.300  67.121  0.00  0.00    -0.271 OA
ATOM     12  H10 non d ame      -6.174  11.099  67.348  0.00  0.00     0.163 HD
BRANCH  10  13
ATOM     13  C6  non d ame      -5.880  13.607  68.436  0.00  0.00     0.086 C 
ATOM     14  H6  non d ame      -5.388  13.905  69.362  0.00  0.00     0.086 H 
BRANCH  13  15
ATOM     15  N2  non d ame      -6.306  14.832  67.778  0.00  0.00    -0.343 N 
ATOM     16  C5  non d ame      -5.673  16.102  68.139  0.00  0.00     0.273 C 
ATOM     17  O2  non d ame      -4.824  16.129  68.961  0.00  0.00    -0.266 OA
ATOM     18  H5  non d ame      -7.034  14.800  67.079  0.00  0.00     0.163 HD
BRANCH  16  19
ATOM     19  C4  non d ame      -6.113  17.404  67.451  0.00  0.00     0.154 A 
ATOM     20  C1  non d ame      -6.043  18.730  67.985  0.00  0.00    -0.017 A 
ATOM     21  C2  non d ame      -6.565  19.559  66.967  0.00  0.00     0.077 A 
ATOM     22  H1  non d ame      -5.671  19.043  68.961  0.00  0.00     0.091 H 
ATOM     23  O1  non d ame      -6.892  18.790  65.970  0.00  0.00    -0.218 OA
ATOM     24  N1  non d ame      -6.638  17.528  66.229  0.00  0.00    -0.123 NA
BRANCH  21  25
ATOM     25  C3  non d ame      -6.717  21.073  67.027  0.00  0.00    -0.029 C 
ATOM     26  H2  non d ame      -5.730  21.536  67.067  0.00  0.00     0.036 H 
ATOM     27  H3  non d ame      -7.245  21.421  66.139  0.00  0.00     0.036 H 
ATOM     28  H4  non d ame      -7.283  21.348  67.917  0.00  0.00     0.036 H 
ENDBRANCH  21  25
ENDBRANCH  16  19
ENDBRANCH  13  15
BRANCH  13  29
ATOM     29  C8  non d ame      -7.079  12.757  68.772  0.00  0.00    -0.049 C 
ATOM     30  H7  non d ame      -6.978  12.371  69.786  0.00  0.00     0.030 H 
ATOM     31  H8  non d ame      -7.984  13.361  68.700  0.00  0.00     0.030 H 
ATOM     32  H9  non d ame      -7.140  11.924  68.072  0.00  0.00     0.030 H 
ENDBRANCH  13  29
ENDBRANCH  10  13
ENDBRANCH   7   9
BRANCH   7  33
ATOM     33  C11 non d ame      -4.168   9.332  66.714  0.00  0.00    -0.033 C 
ATOM     34  H12 non d ame      -5.133   8.827  66.770  0.00  0.00     0.042 H 
BRANCH  33  35
ATOM     35  C12 non d ame      -3.250   8.487  65.777  0.00  0.00    -0.071 C 
ATOM     36  H13 non d ame      -3.779   7.586  65.466  0.00  0.00     0.028 H 
ATOM     37  H14 non d ame      -2.989   9.076  64.897  0.00  0.00     0.028 H 
ATOM     38  H15 non d ame      -2.342   8.210  66.312  0.00  0.00     0.028 H 
ENDBRANCH  33  35
BRANCH  33  39
ATOM     39  C13 non d ame      -3.581   9.413  68.159  0.00  0.00    -0.071 C 
ATOM     40  H16 non d ame      -4.032   8.639  68.779  0.00  0.00     0.028 H 
ATOM     41  H17 non d ame      -2.501   9.265  68.122  0.00  0.00     0.028 H 
ATOM     42  H18 non d ame      -3.798  10.393  68.585  0.00  0.00     0.028 H 
ENDBRANCH  33  39
ENDBRANCH   7  33
ENDBRANCH   4   7
ENDBRANCH   1   3
BRANCH   1  43
ATOM     43  C15 non d ame      -8.585  10.114  63.521  0.00  0.00     0.240 C 
ATOM     44  O5  non d ame      -9.356   9.531  62.829  0.00  0.00    -0.271 OA
ATOM     45  N6  non d ame      -9.087  11.062  64.556  0.00  0.00    -0.355 N 
ATOM     46  H46 non d ame      -8.442  11.559  65.152  0.00  0.00     0.162 HD
BRANCH  45  47
ATOM     47  C20 non d ame     -10.543  11.274  64.710  0.00  0.00     0.013 C 
ATOM     48  H30 non d ame     -11.057  10.482  64.165  0.00  0.00     0.072 H 
BRANCH  47  49
ATOM     49  C21 non d ame     -10.915  12.622  64.136  0.00  0.00    -0.038 C 
ATOM     50  H31 non d ame     -10.057  12.935  63.539  0.00  0.00     0.036 H 
ATOM     51  H32 non d ame     -11.887  12.482  63.662  0.00  0.00     0.036 H 
BRANCH  49  52
ATOM     52  C22 non d ame     -11.109  13.703  65.221  0.00  0.00     0.018 C 
ATOM     53  H33 non d ame     -11.933  13.352  65.844  0.00  0.00     0.048 H 
ATOM     54  H34 non d ame     -10.124  13.862  65.660  0.00  0.00     0.048 H 
BRANCH  52  55
ATOM     55  C23 non d ame     -11.554  15.082  64.659  0.00  0.00     0.259 C 
ATOM     56  O7  non d ame     -12.504  15.166  63.950  0.00  0.00    -0.265 OA
BRANCH  55  57
ATOM     57  O8  non d ame     -10.805  16.244  64.992  0.00  0.00    -0.317 OA
BRANCH  57  58
ATOM     58  C29 non d ame     -10.095  16.145  66.229  0.00  0.00     0.052 C 
ATOM     59  H47 non d ame     -10.678  15.465  66.850  0.00  0.00     0.082 H 
ATOM     60  H48 non d ame      -9.069  15.895  65.962  0.00  0.00     0.082 H 
BRANCH  58  61
ATOM     61  C35 non d ame     -10.099  17.546  66.898  0.00  0.00    -0.034 A 
ATOM     62  C30 non d ame     -10.472  18.667  66.163  0.00  0.00    -0.075 A 
ATOM     63  C31 non d ame     -10.476  19.925  66.763  0.00  0.00    -0.082 A 
ATOM     64  H49 non d ame     -10.762  18.560  65.118  0.00  0.00     0.084 H 
ATOM     65  C32 non d ame     -10.102  20.061  68.103  0.00  0.00    -0.083 A 
ATOM     66  H50 non d ame     -10.771  20.802  66.186  0.00  0.00     0.083 H 
ATOM     67  C33 non d ame      -9.727  18.940  68.831  0.00  0.00    -0.082 A 
ATOM     68  H51 non d ame     -10.103  21.041  68.580  0.00  0.00     0.083 H 
ATOM     69  C34 non d ame      -9.724  17.680  68.236  0.00  0.00    -0.075 A 
ATOM     70  H52 non d ame      -9.434  19.049  69.875  0.00  0.00     0.083 H 
ATOM     71  H53 non d ame      -9.429  16.804  68.814  0.00  0.00     0.084 H 
ENDBRANCH  58  61
ENDBRANCH  57  58
ENDBRANCH  55  57
ENDBRANCH  52  55
ENDBRANCH  49  52
ENDBRANCH  47  49
BRANCH  47  72
ATOM     72  C24 non d ame     -10.917  11.229  66.190  0.00  0.00    -0.039 C 
ATOM     73  H35 non d ame     -10.718  12.232  66.570  0.00  0.00     0.036 H 
ATOM     74  H36 non d ame     -11.929  10.826  66.221  0.00  0.00     0.036 H 
BRANCH  72  75
ATOM     75  C25 non d ame      -9.980  10.219  67.008  0.00  0.00    -0.001 C 
ATOM     76  C26 non d ame     -10.248   8.676  66.507  0.00  0.00    -0.035 C 
ATOM     77  C27 non d ame     -10.488   7.901  67.591  0.00  0.00     0.085 C 
ATOM     78  H38 non d ame     -11.180   8.623  65.943  0.00  0.00     0.036 H 
ATOM     79  H39 non d ame      -9.334   8.255  66.089  0.00  0.00     0.036 H 
ATOM     80  N5  non d ame     -10.733   8.831  68.754  0.00  0.00    -0.049 N 
ATOM     81  H40 non d ame     -11.410   7.363  67.366  0.00  0.00     0.075 H 
ATOM     82  H41 non d ame      -9.565   7.349  67.765  0.00  0.00     0.075 H 
ATOM     83  C28 non d ame     -10.218  10.284  68.276  0.00  0.00     0.193 C 
ATOM     84  H42 non d ame     -11.733   8.871  68.884  0.00  0.00     0.280 HD
ATOM     85  H43 non d ame     -10.138   8.511  69.506  0.00  0.00     0.280 HD
ATOM     86  H44 non d ame      -9.268  10.681  68.635  0.00  0.00     0.129 H 
ATOM     87  H37 non d ame      -8.944  10.556  67.046  0.00  0.00     0.046 H 
BRANCH  83  88
ATOM     88  O6  non d ame     -11.192  11.281  68.591  0.00  0.00    -0.369 OA
ATOM     89  H45 non d ame     -11.141  11.494  69.526  0.00  0.00     0.212 HD
ENDBRANCH  83  88
ENDBRANCH  72  75
ENDBRANCH  47  72
ENDBRANCH  45  47
ENDBRANCH   1  43
BRANCH   1  90
ATOM     90  C16 non d ame      -6.815   8.481  62.798  0.00  0.00    -0.035 C 
ATOM     91  H21 non d ame      -7.759   8.182  62.342  0.00  0.00     0.037 H 
ATOM     92  H22 non d ame      -5.916   8.562  62.187  0.00  0.00     0.037 H 
BRANCH  90  93
ATOM     93  C17 non d ame      -6.503   7.420  63.902  0.00  0.00    -0.059 C 
ATOM     94  H23 non d ame      -6.058   7.945  64.748  0.00  0.00     0.038 H 
BRANCH  93  95
ATOM     95  C18 non d ame      -7.794   6.703  64.411  0.00  0.00    -0.073 C 
ATOM     96  H24 non d ame      -7.704   5.630  64.239  0.00  0.00     0.028 H 
ATOM     97  H25 non d ame      -7.917   6.891  65.478  0.00  0.00     0.028 H 
ATOM     98  H26 non d ame      -8.660   7.087  63.872  0.00  0.00     0.028 H 
ENDBRANCH  93  95
BRANCH  93  99
ATOM     99  C19 non d ame      -5.473   6.402  63.406  0.00  0.00    -0.073 C 
ATOM    100  H27 non d ame      -5.555   5.487  63.994  0.00  0.00     0.028 H 
ATOM    101  H28 non d ame      -5.661   6.178  62.356  0.00  0.00     0.028 H 
ATOM    102  H29 non d ame      -4.471   6.816  63.515  0.00  0.00     0.028 H 
ENDBRANCH  93  99
ENDBRANCH  90  93
ENDBRANCH   1  90
TORSDOF 26
ENDMDL
MODEL 20
REMARK VINA RESULT:      -6.2      1.761      7.080
REMARK  26 active torsions:
REMARK  status: ('A' for Active; 'I' for Inactive)
REMARK    1  A    between atoms: C2_2  and  C3_3 
REMARK    2  A    between atoms: C4_6  and  C5_7 
REMARK       I    between atoms: C5_7  and  N2_9 
REMARK    3  A    between atoms: N2_9  and  C6_10 
REMARK    4  A    between atoms: C6_10  and  C7_11 
REMARK    5  A    between atoms: C6_10  and  C8_13 
REMARK       I    between atoms: C7_11  and  N3_14 
REMARK    6  A    between atoms: N3_14  and  C9_15 
REMARK    7  A    between atoms: C9_15  and  C10_16 
REMARK    8  A    between atoms: C9_15  and  C11_18 
REMARK       I    between atoms: C10_16  and  N4_21 
REMARK    9  A    between atoms: C11_18  and  C12_19 
REMARK   10  A    between atoms: C11_18  and  C13_20 
REMARK   11  A    between atoms: N4_21  and  C14_22 
REMARK   12  A    between atoms: C14_22  and  C15_23 
REMARK   13  A    between atoms: C14_22  and  C16_25 
REMARK       I    between atoms: C15_23  and  N6_40 
REMARK   14  A    between atoms: C16_25  and  C17_26 
REMARK   15  A    between atoms: C17_26  and  C18_27 
REMARK   16  A    between atoms: C17_26  and  C19_28 
REMARK   17  A    between atoms: C20_29  and  C21_30 
REMARK   18  A    between atoms: C20_29  and  C24_33 
REMARK   19  A    between atoms: C20_29  and  N6_40 
REMARK   20  A    between atoms: C21_30  and  C22_31 
REMARK   21  A    between atoms: C22_31  and  C23_32 
REMARK   22  A    between atoms: C23_32  and  O8_43 
REMARK   23  A    between atoms: C24_33  and  C25_34 
REMARK   24  A    between atoms: C28_38  and  O6_39 
REMARK   25  A    between atoms: C29_42  and  O8_43 
REMARK   26  A    between atoms: C29_42  and  C35_49 
ROOT
ATOM      1  C14 non d ame      -6.116  13.633  68.348  0.00  0.00     0.089 C 
ATOM      2  H20 non d ame      -5.156  13.607  67.832  0.00  0.00     0.087 H 
ENDROOT
BRANCH   1   3
ATOM      3  N4  non d ame      -6.583  15.011  68.337  0.00  0.00    -0.346 N 
ATOM      4  C10 non d ame      -5.707  16.107  67.785  0.00  0.00     0.241 C 
ATOM      5  O4  non d ame      -4.629  15.856  67.357  0.00  0.00    -0.271 OA
ATOM      6  H19 non d ame      -7.502  15.204  68.708  0.00  0.00     0.163 HD
BRANCH   4   7
ATOM      7  C9  non d ame      -6.209  17.528  67.776  0.00  0.00     0.092 C 
ATOM      8  H11 non d ame      -5.901  18.011  66.849  0.00  0.00     0.088 H 
BRANCH   7   9
ATOM      9  N3  non d ame      -7.674  17.529  67.800  0.00  0.00    -0.346 N 
ATOM     10  C7  non d ame      -8.414  17.820  66.596  0.00  0.00     0.240 C 
ATOM     11  O3  non d ame      -7.846  18.057  65.601  0.00  0.00    -0.271 OA
ATOM     12  H10 non d ame      -8.178  17.328  68.652  0.00  0.00     0.163 HD
BRANCH  10  13
ATOM     13  C6  non d ame      -9.974  17.823  66.629  0.00  0.00     0.086 C 
ATOM     14  H6  non d ame     -10.411  17.081  65.960  0.00  0.00     0.086 H 
BRANCH  13  15
ATOM     15  N2  non d ame     -10.419  17.485  67.971  0.00  0.00    -0.343 N 
ATOM     16  C5  non d ame     -11.173  16.250  68.191  0.00  0.00     0.273 C 
ATOM     17  O2  non d ame     -11.420  15.536  67.282  0.00  0.00    -0.266 OA
ATOM     18  H5  non d ame     -10.205  18.102  68.741  0.00  0.00     0.163 HD
BRANCH  16  19
ATOM     19  C4  non d ame     -11.648  15.879  69.605  0.00  0.00     0.154 A 
ATOM     20  C1  non d ame     -12.287  14.666  70.012  0.00  0.00    -0.017 A 
ATOM     21  C2  non d ame     -12.516  14.822  71.398  0.00  0.00     0.077 A 
ATOM     22  H1  non d ame     -12.546  13.803  69.397  0.00  0.00     0.091 H 
ATOM     23  O1  non d ame     -12.057  15.992  71.736  0.00  0.00    -0.218 OA
ATOM     24  N1  non d ame     -11.546  16.627  70.707  0.00  0.00    -0.123 NA
BRANCH  21  25
ATOM     25  C3  non d ame     -13.177  13.809  72.323  0.00  0.00    -0.029 C 
ATOM     26  H2  non d ame     -14.200  13.628  71.993  0.00  0.00     0.036 H 
ATOM     27  H3  non d ame     -12.616  12.875  72.297  0.00  0.00     0.036 H 
ATOM     28  H4  non d ame     -13.187  14.199  73.341  0.00  0.00     0.036 H 
ENDBRANCH  21  25
ENDBRANCH  16  19
ENDBRANCH  13  15
BRANCH  13  29
ATOM     29  C8  non d ame     -10.485  19.188  66.243  0.00  0.00    -0.049 C 
ATOM     30  H7  non d ame     -11.412  19.083  65.679  0.00  0.00     0.030 H 
ATOM     31  H8  non d ame     -10.672  19.773  67.144  0.00  0.00     0.030 H 
ATOM     32  H9  non d ame      -9.741  19.693  65.629  0.00  0.00     0.030 H 
ENDBRANCH  13  29
ENDBRANCH  10  13
ENDBRANCH   7   9
BRANCH   7  33
ATOM     33  C11 non d ame      -5.672  18.275  69.032  0.00  0.00    -0.033 C 
ATOM     34  H12 non d ame      -5.491  17.529  69.806  0.00  0.00     0.042 H 
BRANCH  33  35
ATOM     35  C12 non d ame      -4.312  18.981  68.735  0.00  0.00    -0.071 C 
ATOM     36  H13 non d ame      -4.226  19.877  69.351  0.00  0.00     0.028 H 
ATOM     37  H14 non d ame      -3.492  18.302  68.967  0.00  0.00     0.028 H 
ATOM     38  H15 non d ame      -4.269  19.258  67.682  0.00  0.00     0.028 H 
ENDBRANCH  33  35
BRANCH  33  39
ATOM     39  C13 non d ame      -6.730  19.289  69.574  0.00  0.00    -0.071 C 
ATOM     40  H16 non d ame      -7.726  18.856  69.487  0.00  0.00     0.028 H 
ATOM     41  H17 non d ame      -6.520  19.508  70.622  0.00  0.00     0.028 H 
ATOM     42  H18 non d ame      -6.681  20.210  68.994  0.00  0.00     0.028 H 
ENDBRANCH  33  39
ENDBRANCH   7  33
ENDBRANCH   4   7
ENDBRANCH   1   3
BRANCH   1  43
ATOM     43  C15 non d ame      -7.183  12.743  67.649  0.00  0.00     0.240 C 
ATOM     44  O5  non d ame      -6.838  11.832  66.968  0.00  0.00    -0.271 OA
ATOM     45  N6  non d ame      -8.635  13.020  67.836  0.00  0.00    -0.355 N 
ATOM     46  H46 non d ame      -8.940  13.788  68.417  0.00  0.00     0.162 HD
BRANCH  45  47
ATOM     47  C20 non d ame      -9.637  12.164  67.166  0.00  0.00     0.013 C 
ATOM     48  H30 non d ame      -9.135  11.254  66.838  0.00  0.00     0.072 H 
BRANCH  47  49
ATOM     49  C21 non d ame     -10.205  12.899  65.973  0.00  0.00    -0.038 C 
ATOM     50  H31 non d ame     -10.523  13.872  66.350  0.00  0.00     0.036 H 
ATOM     51  H32 non d ame      -9.440  12.838  65.198  0.00  0.00     0.036 H 
BRANCH  49  52
ATOM     52  C22 non d ame     -11.467  12.221  65.396  0.00  0.00     0.018 C 
ATOM     53  H33 non d ame     -11.433  11.189  65.745  0.00  0.00     0.048 H 
ATOM     54  H34 non d ame     -12.302  12.864  65.675  0.00  0.00     0.048 H 
BRANCH  52  55
ATOM     55  C23 non d ame     -11.484  12.148  63.844  0.00  0.00     0.259 C 
ATOM     56  O7  non d ame     -11.998  13.008  63.205  0.00  0.00    -0.265 OA
BRANCH  55  57
ATOM     57  O8  non d ame     -10.888  11.033  63.192  0.00  0.00    -0.317 OA
BRANCH  57  58
ATOM     58  C29 non d ame      -9.492  11.192  62.925  0.00  0.00     0.052 C 
ATOM     59  H47 non d ame      -9.404  11.251  61.840  0.00  0.00     0.082 H 
ATOM     60  H48 non d ame      -9.167  12.028  63.544  0.00  0.00     0.082 H 
BRANCH  58  61
ATOM     61  C35 non d ame      -8.763   9.910  63.409  0.00  0.00    -0.034 A 
ATOM     62  C30 non d ame      -7.877   9.251  62.562  0.00  0.00    -0.075 A 
ATOM     63  C31 non d ame      -7.222   8.100  62.997  0.00  0.00    -0.082 A 
ATOM     64  H49 non d ame      -7.695   9.638  61.559  0.00  0.00     0.084 H 
ATOM     65  C32 non d ame      -7.458   7.605  64.282  0.00  0.00    -0.083 A 
ATOM     66  H50 non d ame      -6.527   7.587  62.332  0.00  0.00     0.083 H 
ATOM     67  C33 non d ame      -8.346   8.264  65.122  0.00  0.00    -0.082 A 
ATOM     68  H51 non d ame      -6.950   6.706  64.630  0.00  0.00     0.083 H 
ATOM     69  C34 non d ame      -9.001   9.417  64.693  0.00  0.00    -0.075 A 
ATOM     70  H52 non d ame      -8.530   7.875  66.124  0.00  0.00     0.083 H 
ATOM     71  H53 non d ame      -9.696   9.929  65.359  0.00  0.00     0.084 H 
ENDBRANCH  58  61
ENDBRANCH  57  58
ENDBRANCH  55  57
ENDBRANCH  52  55
ENDBRANCH  49  52
ENDBRANCH  47  49
BRANCH  47  72
ATOM     72  C24 non d ame     -10.764  11.827  68.141  0.00  0.00    -0.039 C 
ATOM     73  H35 non d ame     -10.950  12.746  68.698  0.00  0.00     0.036 H 
ATOM     74  H36 non d ame     -11.555  11.391  67.530  0.00  0.00     0.036 H 
BRANCH  72  75
ATOM     75  C25 non d ame     -10.316  10.713  69.201  0.00  0.00    -0.001 C 
ATOM     76  C26 non d ame      -9.360   9.594  68.468  0.00  0.00    -0.035 C 
ATOM     77  C27 non d ame      -9.847   8.359  68.740  0.00  0.00     0.085 C 
ATOM     78  H38 non d ame      -9.455   9.673  67.386  0.00  0.00     0.036 H 
ATOM     79  H39 non d ame      -8.373   9.586  68.930  0.00  0.00     0.036 H 
ATOM     80  N5  non d ame     -11.229   8.547  69.315  0.00  0.00    -0.049 N 
ATOM     81  H40 non d ame      -9.928   7.860  67.774  0.00  0.00     0.075 H 
ATOM     82  H41 non d ame      -9.193   7.952  69.510  0.00  0.00     0.075 H 
ATOM     83  C28 non d ame     -11.341  10.109  69.705  0.00  0.00     0.193 C 
ATOM     84  H42 non d ame     -11.880   8.355  68.567  0.00  0.00     0.280 HD
ATOM     85  H43 non d ame     -11.262   8.001  70.165  0.00  0.00     0.280 HD
ATOM     86  H44 non d ame     -11.266  10.427  70.745  0.00  0.00     0.129 H 
ATOM     87  H37 non d ame      -9.946  11.151  70.128  0.00  0.00     0.046 H 
BRANCH  83  88
ATOM     88  O6  non d ame     -12.574  10.650  69.228  0.00  0.00    -0.369 OA
ATOM     89  H45 non d ame     -13.305  10.131  69.571  0.00  0.00     0.212 HD
ENDBRANCH  83  88
ENDBRANCH  72  75
ENDBRANCH  47  72
ENDBRANCH  45  47
ENDBRANCH   1  43
BRANCH   1  90
ATOM     90  C16 non d ame      -5.937  13.181  69.789  0.00  0.00    -0.035 C 
ATOM     91  H21 non d ame      -6.737  13.670  70.346  0.00  0.00     0.037 H 
ATOM     92  H22 non d ame      -5.891  12.092  69.746  0.00  0.00     0.037 H 
BRANCH  90  93
ATOM     93  C17 non d ame      -4.596  13.655  70.433  0.00  0.00    -0.059 C 
ATOM     94  H23 non d ame      -3.967  14.049  69.635  0.00  0.00     0.038 H 
BRANCH  93  95
ATOM     95  C18 non d ame      -4.815  14.799  71.475  0.00  0.00    -0.073 C 
ATOM     96  H24 non d ame      -4.620  14.418  72.478  0.00  0.00     0.028 H 
ATOM     97  H25 non d ame      -4.133  15.622  71.260  0.00  0.00     0.028 H 
ATOM     98  H26 non d ame      -5.844  15.153  71.414  0.00  0.00     0.028 H 
ENDBRANCH  93  95
BRANCH  93  99
ATOM     99  C19 non d ame      -3.846  12.479  71.064  0.00  0.00    -0.073 C 
ATOM    100  H27 non d ame      -4.007  12.482  72.143  0.00  0.00     0.028 H 
ATOM    101  H28 non d ame      -4.218  11.544  70.644  0.00  0.00     0.028 H 
ATOM    102  H29 non d ame      -2.781  12.573  70.855  0.00  0.00     0.028 H 
ENDBRANCH  93  99
ENDBRANCH  90  93
ENDBRANCH   1  90
TORSDOF 26
ENDMDL
