MODEL 1
REMARK VINA RESULT:      -7.2      0.000      0.000
REMARK  26 active torsions:
REMARK  status: ('A' for Active; 'I' for Inactive)
REMARK    1  A    between atoms: C2_2  and  C3_3 
REMARK    2  A    between atoms: C4_6  and  C5_7 
REMARK       I    between atoms: C5_7  and  N2_9 
REMARK    3  A    between atoms: N2_9  and  C6_10 
REMARK    4  A    between atoms: C6_10  and  C7_11 
REMARK    5  A    between atoms: C6_10  and  C8_13 
REMARK       I    between atoms: C7_11  and  N3_14 
REMARK    6  A    between atoms: N3_14  and  C9_15 
REMARK    7  A    between atoms: C9_15  and  C10_16 
REMARK    8  A    between atoms: C9_15  and  C11_18 
REMARK       I    between atoms: C10_16  and  N4_21 
REMARK    9  A    between atoms: C11_18  and  C12_19 
REMARK   10  A    between atoms: C11_18  and  C13_20 
REMARK   11  A    between atoms: N4_21  and  C14_22 
REMARK   12  A    between atoms: C14_22  and  C15_23 
REMARK   13  A    between atoms: C14_22  and  C16_25 
REMARK       I    between atoms: C15_23  and  N6_40 
REMARK   14  A    between atoms: C16_25  and  C17_26 
REMARK   15  A    between atoms: C17_26  and  C18_27 
REMARK   16  A    between atoms: C17_26  and  C19_28 
REMARK   17  A    between atoms: C20_29  and  C21_30 
REMARK   18  A    between atoms: C20_29  and  C24_33 
REMARK   19  A    between atoms: C20_29  and  N6_40 
REMARK   20  A    between atoms: C21_30  and  C22_31 
REMARK   21  A    between atoms: C22_31  and  C23_32 
REMARK   22  A    between atoms: C23_32  and  O8_43 
REMARK   23  A    between atoms: C24_33  and  C25_34 
REMARK   24  A    between atoms: C28_38  and  O6_39 
REMARK   25  A    between atoms: C29_42  and  O8_43 
REMARK   26  A    between atoms: C29_42  and  C35_49 
ROOT
ATOM      1  C14 non d ame      -6.639  16.005  67.812  0.00  0.00     0.089 C 
ATOM      2  H20 non d ame      -6.040  16.530  67.067  0.00  0.00     0.087 H 
ENDROOT
BRANCH   1   3
ATOM      3  N4  non d ame      -8.039  16.212  67.474  0.00  0.00    -0.346 N 
ATOM      4  C10 non d ame      -8.426  17.206  66.408  0.00  0.00     0.241 C 
ATOM      5  O4  non d ame      -7.593  17.831  65.838  0.00  0.00    -0.271 OA
ATOM      6  H19 non d ame      -8.733  15.673  67.972  0.00  0.00     0.163 HD
BRANCH   4   7
ATOM      7  C9  non d ame      -9.880  17.404  66.067  0.00  0.00     0.092 C 
ATOM      8  H11 non d ame      -9.956  17.930  65.115  0.00  0.00     0.088 H 
BRANCH   7   9
ATOM      9  N3  non d ame     -10.523  16.098  65.893  0.00  0.00    -0.346 N 
ATOM     10  C7  non d ame     -11.312  15.835  64.714  0.00  0.00     0.240 C 
ATOM     11  O3  non d ame     -11.440  16.662  63.897  0.00  0.00    -0.271 OA
ATOM     12  H10 non d ame     -10.423  15.375  66.591  0.00  0.00     0.163 HD
BRANCH  10  13
ATOM     13  C6  non d ame     -11.997  14.444  64.537  0.00  0.00     0.086 C 
ATOM     14  H6  non d ame     -12.645  14.402  63.662  0.00  0.00     0.086 H 
BRANCH  13  15
ATOM     15  N2  non d ame     -10.970  13.434  64.342  0.00  0.00    -0.343 N 
ATOM     16  C5  non d ame     -11.308  12.184  63.658  0.00  0.00     0.273 C 
ATOM     17  O2  non d ame     -12.409  12.000  63.270  0.00  0.00    -0.266 OA
ATOM     18  H5  non d ame     -10.032  13.599  64.679  0.00  0.00     0.163 HD
BRANCH  16  19
ATOM     19  C4  non d ame     -10.231  11.108  63.444  0.00  0.00     0.154 A 
ATOM     20  C1  non d ame      -9.869  10.057  64.344  0.00  0.00    -0.017 A 
ATOM     21  C2  non d ame      -8.840   9.351  63.683  0.00  0.00     0.077 A 
ATOM     22  H1  non d ame     -10.288   9.839  65.327  0.00  0.00     0.091 H 
ATOM     23  O1  non d ame      -8.643   9.935  62.537  0.00  0.00    -0.218 OA
ATOM     24  N1  non d ame      -9.443  10.964  62.375  0.00  0.00    -0.123 NA
BRANCH  21  25
ATOM     25  C3  non d ame      -8.099   8.130  64.213  0.00  0.00    -0.029 C 
ATOM     26  H2  non d ame      -8.817   7.412  64.609  0.00  0.00     0.036 H 
ATOM     27  H3  non d ame      -7.533   7.669  63.404  0.00  0.00     0.036 H 
ATOM     28  H4  non d ame      -7.416   8.435  65.006  0.00  0.00     0.036 H 
ENDBRANCH  21  25
ENDBRANCH  16  19
ENDBRANCH  13  15
BRANCH  13  29
ATOM     29  C8  non d ame     -12.812  14.122  65.763  0.00  0.00    -0.049 C 
ATOM     30  H7  non d ame     -12.461  13.186  66.198  0.00  0.00     0.030 H 
ATOM     31  H8  non d ame     -12.704  14.925  66.493  0.00  0.00     0.030 H 
ATOM     32  H9  non d ame     -13.861  14.021  65.485  0.00  0.00     0.030 H 
ENDBRANCH  13  29
ENDBRANCH  10  13
ENDBRANCH   7   9
BRANCH   7  33
ATOM     33  C11 non d ame     -10.583  18.176  67.221  0.00  0.00    -0.033 C 
ATOM     34  H12 non d ame     -11.639  18.262  66.964  0.00  0.00     0.042 H 
BRANCH  33  35
ATOM     35  C12 non d ame     -10.491  17.393  68.568  0.00  0.00    -0.071 C 
ATOM     36  H13 non d ame      -9.566  17.659  69.080  0.00  0.00     0.028 H 
ATOM     37  H14 non d ame     -11.341  17.653  69.198  0.00  0.00     0.028 H 
ATOM     38  H15 non d ame     -10.501  16.323  68.366  0.00  0.00     0.028 H 
ENDBRANCH  33  35
BRANCH  33  39
ATOM     39  C13 non d ame     -10.002  19.620  67.364  0.00  0.00    -0.071 C 
ATOM     40  H16 non d ame      -8.967  19.563  67.699  0.00  0.00     0.028 H 
ATOM     41  H17 non d ame     -10.044  20.126  66.399  0.00  0.00     0.028 H 
ATOM     42  H18 non d ame     -10.590  20.177  68.093  0.00  0.00     0.028 H 
ENDBRANCH  33  39
ENDBRANCH   7  33
ENDBRANCH   4   7
ENDBRANCH   1   3
BRANCH   1  43
ATOM     43  C15 non d ame      -6.353  14.476  67.823  0.00  0.00     0.240 C 
ATOM     44  O5  non d ame      -5.324  14.064  67.395  0.00  0.00    -0.271 OA
ATOM     45  N6  non d ame      -7.360  13.525  68.376  0.00  0.00    -0.355 N 
ATOM     46  H46 non d ame      -8.235  13.864  68.747  0.00  0.00     0.162 HD
BRANCH  45  47
ATOM     47  C20 non d ame      -7.072  12.074  68.381  0.00  0.00     0.013 C 
ATOM     48  H30 non d ame      -6.255  11.892  67.683  0.00  0.00     0.072 H 
BRANCH  47  49
ATOM     49  C21 non d ame      -8.306  11.319  67.940  0.00  0.00    -0.038 C 
ATOM     50  H31 non d ame      -8.010  10.765  67.049  0.00  0.00     0.036 H 
ATOM     51  H32 non d ame      -8.654  10.785  68.824  0.00  0.00     0.036 H 
BRANCH  49  52
ATOM     52  C22 non d ame      -9.459  12.253  67.511  0.00  0.00     0.018 C 
ATOM     53  H33 non d ame      -9.278  13.199  68.022  0.00  0.00     0.048 H 
ATOM     54  H34 non d ame      -9.478  12.216  66.422  0.00  0.00     0.048 H 
BRANCH  52  55
ATOM     55  C23 non d ame     -10.860  11.773  67.981  0.00  0.00     0.259 C 
ATOM     56  O7  non d ame     -11.479  10.992  67.333  0.00  0.00    -0.265 OA
BRANCH  55  57
ATOM     57  O8  non d ame     -11.404  12.288  69.190  0.00  0.00    -0.317 OA
BRANCH  57  58
ATOM     58  C29 non d ame     -11.470  13.716  69.237  0.00  0.00     0.052 C 
ATOM     59  H47 non d ame     -10.440  14.062  69.149  0.00  0.00     0.082 H 
ATOM     60  H48 non d ame     -12.207  14.002  68.486  0.00  0.00     0.082 H 
BRANCH  58  61
ATOM     61  C35 non d ame     -12.009  14.125  70.634  0.00  0.00    -0.034 A 
ATOM     62  C30 non d ame     -11.500  15.250  71.275  0.00  0.00    -0.075 A 
ATOM     63  C31 non d ame     -11.984  15.618  72.529  0.00  0.00    -0.082 A 
ATOM     64  H49 non d ame     -10.723  15.845  70.794  0.00  0.00     0.084 H 
ATOM     65  C32 non d ame     -12.979  14.853  73.145  0.00  0.00    -0.083 A 
ATOM     66  H50 non d ame     -11.585  16.501  73.028  0.00  0.00     0.083 H 
ATOM     67  C33 non d ame     -13.481  13.730  72.503  0.00  0.00    -0.082 A 
ATOM     68  H51 non d ame     -13.363  15.134  74.126  0.00  0.00     0.083 H 
ATOM     69  C34 non d ame     -13.002  13.360  71.248  0.00  0.00    -0.075 A 
ATOM     70  H52 non d ame     -14.255  13.134  72.987  0.00  0.00     0.083 H 
ATOM     71  H53 non d ame     -13.402  12.477  70.750  0.00  0.00     0.084 H 
ENDBRANCH  58  61
ENDBRANCH  57  58
ENDBRANCH  55  57
ENDBRANCH  52  55
ENDBRANCH  49  52
ENDBRANCH  47  49
BRANCH  47  72
ATOM     72  C24 non d ame      -6.678  11.631  69.788  0.00  0.00    -0.039 C 
ATOM     73  H35 non d ame      -7.195  12.313  70.463  0.00  0.00     0.036 H 
ATOM     74  H36 non d ame      -6.890  10.562  69.825  0.00  0.00     0.036 H 
BRANCH  72  75
ATOM     75  C25 non d ame      -5.107  11.810  70.047  0.00  0.00    -0.001 C 
ATOM     76  C26 non d ame      -4.472  10.410  70.630  0.00  0.00    -0.035 C 
ATOM     77  C27 non d ame      -3.769  10.684  71.755  0.00  0.00     0.085 C 
ATOM     78  H38 non d ame      -5.270   9.755  70.981  0.00  0.00     0.036 H 
ATOM     79  H39 non d ame      -3.716  10.028  69.944  0.00  0.00     0.036 H 
ATOM     80  N5  non d ame      -4.137  12.087  72.174  0.00  0.00    -0.049 N 
ATOM     81  H40 non d ame      -4.134   9.982  72.505  0.00  0.00     0.075 H 
ATOM     82  H41 non d ame      -2.722  10.666  71.455  0.00  0.00     0.075 H 
ATOM     83  C28 non d ame      -4.879  12.750  70.903  0.00  0.00     0.193 C 
ATOM     84  H42 non d ame      -4.806  11.995  72.925  0.00  0.00     0.280 HD
ATOM     85  H43 non d ame      -3.267  12.576  72.329  0.00  0.00     0.280 HD
ATOM     86  H44 non d ame      -4.359  13.471  70.272  0.00  0.00     0.129 H 
ATOM     87  H37 non d ame      -4.599  12.271  69.200  0.00  0.00     0.046 H 
BRANCH  83  88
ATOM     88  O6  non d ame      -6.080  13.403  71.319  0.00  0.00    -0.369 OA
ATOM     89  H45 non d ame      -6.038  13.579  72.262  0.00  0.00     0.212 HD
ENDBRANCH  83  88
ENDBRANCH  72  75
ENDBRANCH  47  72
ENDBRANCH  45  47
ENDBRANCH   1  43
BRANCH   1  90
ATOM     90  C16 non d ame      -6.371  16.585  69.191  0.00  0.00    -0.035 C 
ATOM     91  H21 non d ame      -7.353  16.712  69.647  0.00  0.00     0.037 H 
ATOM     92  H22 non d ame      -5.640  15.917  69.648  0.00  0.00     0.037 H 
BRANCH  90  93
ATOM     93  C17 non d ame      -5.713  18.001  69.158  0.00  0.00    -0.059 C 
ATOM     94  H23 non d ame      -5.118  18.111  70.065  0.00  0.00     0.038 H 
BRANCH  93  95
ATOM     95  C18 non d ame      -4.756  18.179  67.936  0.00  0.00    -0.073 C 
ATOM     96  H24 non d ame      -4.901  17.353  67.239  0.00  0.00     0.028 H 
ATOM     97  H25 non d ame      -4.979  19.121  67.434  0.00  0.00     0.028 H 
ATOM     98  H26 non d ame      -3.723  18.186  68.282  0.00  0.00     0.028 H 
ENDBRANCH  93  95
BRANCH  93  99
ATOM     99  C19 non d ame      -6.780  19.100  69.179  0.00  0.00    -0.073 C 
ATOM    100  H27 non d ame      -6.820  19.586  68.203  0.00  0.00     0.028 H 
ATOM    101  H28 non d ame      -7.751  18.659  69.406  0.00  0.00     0.028 H 
ATOM    102  H29 non d ame      -6.528  19.836  69.942  0.00  0.00     0.028 H 
ENDBRANCH  93  99
ENDBRANCH  90  93
ENDBRANCH   1  90
TORSDOF 26
ENDMDL
MODEL 2
REMARK VINA RESULT:      -7.0      1.981      4.377
REMARK  26 active torsions:
REMARK  status: ('A' for Active; 'I' for Inactive)
REMARK    1  A    between atoms: C2_2  and  C3_3 
REMARK    2  A    between atoms: C4_6  and  C5_7 
REMARK       I    between atoms: C5_7  and  N2_9 
REMARK    3  A    between atoms: N2_9  and  C6_10 
REMARK    4  A    between atoms: C6_10  and  C7_11 
REMARK    5  A    between atoms: C6_10  and  C8_13 
REMARK       I    between atoms: C7_11  and  N3_14 
REMARK    6  A    between atoms: N3_14  and  C9_15 
REMARK    7  A    between atoms: C9_15  and  C10_16 
REMARK    8  A    between atoms: C9_15  and  C11_18 
REMARK       I    between atoms: C10_16  and  N4_21 
REMARK    9  A    between atoms: C11_18  and  C12_19 
REMARK   10  A    between atoms: C11_18  and  C13_20 
REMARK   11  A    between atoms: N4_21  and  C14_22 
REMARK   12  A    between atoms: C14_22  and  C15_23 
REMARK   13  A    between atoms: C14_22  and  C16_25 
REMARK       I    between atoms: C15_23  and  N6_40 
REMARK   14  A    between atoms: C16_25  and  C17_26 
REMARK   15  A    between atoms: C17_26  and  C18_27 
REMARK   16  A    between atoms: C17_26  and  C19_28 
REMARK   17  A    between atoms: C20_29  and  C21_30 
REMARK   18  A    between atoms: C20_29  and  C24_33 
REMARK   19  A    between atoms: C20_29  and  N6_40 
REMARK   20  A    between atoms: C21_30  and  C22_31 
REMARK   21  A    between atoms: C22_31  and  C23_32 
REMARK   22  A    between atoms: C23_32  and  O8_43 
REMARK   23  A    between atoms: C24_33  and  C25_34 
REMARK   24  A    between atoms: C28_38  and  O6_39 
REMARK   25  A    between atoms: C29_42  and  O8_43 
REMARK   26  A    between atoms: C29_42  and  C35_49 
ROOT
ATOM      1  C14 non d ame      -5.546  13.794  68.943  0.00  0.00     0.089 C 
ATOM      2  H20 non d ame      -4.535  13.831  68.537  0.00  0.00     0.087 H 
ENDROOT
BRANCH   1   3
ATOM      3  N4  non d ame      -6.102  15.137  68.856  0.00  0.00    -0.346 N 
ATOM      4  C10 non d ame      -5.612  16.097  67.802  0.00  0.00     0.241 C 
ATOM      5  O4  non d ame      -4.767  15.768  67.036  0.00  0.00    -0.271 OA
ATOM      6  H19 non d ame      -6.818  15.398  69.519  0.00  0.00     0.163 HD
BRANCH   4   7
ATOM      7  C9  non d ame      -6.202  17.481  67.723  0.00  0.00     0.092 C 
ATOM      8  H11 non d ame      -5.805  17.990  66.845  0.00  0.00     0.088 H 
BRANCH   7   9
ATOM      9  N3  non d ame      -7.654  17.383  67.548  0.00  0.00    -0.346 N 
ATOM     10  C7  non d ame      -8.297  18.077  66.458  0.00  0.00     0.240 C 
ATOM     11  O3  non d ame      -7.660  18.718  65.714  0.00  0.00    -0.271 OA
ATOM     12  H10 non d ame      -8.217  16.835  68.182  0.00  0.00     0.163 HD
BRANCH  10  13
ATOM     13  C6  non d ame      -9.843  17.972  66.279  0.00  0.00     0.086 C 
ATOM     14  H6  non d ame     -10.196  18.459  65.370  0.00  0.00     0.086 H 
BRANCH  13  15
ATOM     15  N2  non d ame     -10.211  16.570  66.170  0.00  0.00    -0.343 N 
ATOM     16  C5  non d ame     -11.000  16.119  65.022  0.00  0.00     0.273 C 
ATOM     17  O2  non d ame     -11.337  16.892  64.193  0.00  0.00    -0.266 OA
ATOM     18  H5  non d ame      -9.922  15.917  66.884  0.00  0.00     0.163 HD
BRANCH  16  19
ATOM     19  C4  non d ame     -11.395  14.640  64.893  0.00  0.00     0.154 A 
ATOM     20  C1  non d ame     -10.604  13.577  64.352  0.00  0.00    -0.017 A 
ATOM     21  C2  non d ame     -11.416  12.426  64.462  0.00  0.00     0.077 A 
ATOM     22  H1  non d ame      -9.595  13.633  63.942  0.00  0.00     0.091 H 
ATOM     23  O1  non d ame     -12.539  12.795  65.006  0.00  0.00    -0.218 OA
ATOM     24  N1  non d ame     -12.551  14.082  65.266  0.00  0.00    -0.123 NA
BRANCH  21  25
ATOM     25  C3  non d ame     -11.043  11.015  64.027  0.00  0.00    -0.029 C 
ATOM     26  H2  non d ame     -10.622  11.044  63.022  0.00  0.00     0.036 H 
ATOM     27  H3  non d ame     -10.308  10.604  64.718  0.00  0.00     0.036 H 
ATOM     28  H4  non d ame     -11.934  10.387  64.029  0.00  0.00     0.036 H 
ENDBRANCH  21  25
ENDBRANCH  16  19
ENDBRANCH  13  15
BRANCH  13  29
ATOM     29  C8  non d ame     -10.533  18.597  67.465  0.00  0.00    -0.049 C 
ATOM     30  H7  non d ame     -11.366  17.966  67.775  0.00  0.00     0.030 H 
ATOM     31  H8  non d ame      -9.824  18.693  68.288  0.00  0.00     0.030 H 
ATOM     32  H9  non d ame     -10.907  19.582  67.190  0.00  0.00     0.030 H 
ENDBRANCH  13  29
ENDBRANCH  10  13
ENDBRANCH   7   9
BRANCH   7  33
ATOM     33  C11 non d ame      -5.892  18.253  69.038  0.00  0.00    -0.033 C 
ATOM     34  H12 non d ame      -6.065  17.569  69.869  0.00  0.00     0.042 H 
BRANCH  33  35
ATOM     35  C12 non d ame      -4.396  18.695  69.098  0.00  0.00    -0.071 C 
ATOM     36  H13 non d ame      -3.765  17.896  68.710  0.00  0.00     0.028 H 
ATOM     37  H14 non d ame      -4.258  19.592  68.495  0.00  0.00     0.028 H 
ATOM     38  H15 non d ame      -4.121  18.906  70.131  0.00  0.00     0.028 H 
ENDBRANCH  33  35
BRANCH  33  39
ATOM     39  C13 non d ame      -6.851  19.474  69.210  0.00  0.00    -0.071 C 
ATOM     40  H16 non d ame      -7.454  19.340  70.108  0.00  0.00     0.028 H 
ATOM     41  H17 non d ame      -6.263  20.388  69.301  0.00  0.00     0.028 H 
ATOM     42  H18 non d ame      -7.504  19.547  68.341  0.00  0.00     0.028 H 
ENDBRANCH  33  39
ENDBRANCH   7  33
ENDBRANCH   4   7
ENDBRANCH   1   3
BRANCH   1  43
ATOM     43  C15 non d ame      -6.464  12.826  68.144  0.00  0.00     0.240 C 
ATOM     44  O5  non d ame      -6.296  12.680  66.976  0.00  0.00    -0.271 OA
ATOM     45  N6  non d ame      -7.549  12.073  68.837  0.00  0.00    -0.355 N 
ATOM     46  H46 non d ame      -7.698  12.185  69.829  0.00  0.00     0.162 HD
BRANCH  45  47
ATOM     47  C20 non d ame      -8.412  11.154  68.063  0.00  0.00     0.013 C 
ATOM     48  H30 non d ame      -7.789  10.649  67.326  0.00  0.00     0.072 H 
BRANCH  47  49
ATOM     49  C21 non d ame      -9.492  11.951  67.367  0.00  0.00    -0.038 C 
ATOM     50  H31 non d ame      -8.969  12.635  66.698  0.00  0.00     0.036 H 
ATOM     51  H32 non d ame     -10.186  11.215  66.961  0.00  0.00     0.036 H 
BRANCH  49  52
ATOM     52  C22 non d ame     -10.308  12.831  68.339  0.00  0.00     0.018 C 
ATOM     53  H33 non d ame     -11.338  12.788  67.982  0.00  0.00     0.048 H 
ATOM     54  H34 non d ame     -10.063  12.473  69.339  0.00  0.00     0.048 H 
BRANCH  52  55
ATOM     55  C23 non d ame      -9.907  14.332  68.312  0.00  0.00     0.259 C 
ATOM     56  O7  non d ame      -8.908  14.680  67.771  0.00  0.00    -0.265 OA
BRANCH  55  57
ATOM     57  O8  non d ame     -10.744  15.288  68.952  0.00  0.00    -0.317 OA
BRANCH  57  58
ATOM     58  C29 non d ame     -12.081  14.833  69.179  0.00  0.00     0.052 C 
ATOM     59  H47 non d ame     -12.726  15.550  68.670  0.00  0.00     0.082 H 
ATOM     60  H48 non d ame     -12.090  13.785  68.881  0.00  0.00     0.082 H 
BRANCH  58  61
ATOM     61  C35 non d ame     -12.362  14.914  70.703  0.00  0.00    -0.034 A 
ATOM     62  C30 non d ame     -13.074  13.899  71.334  0.00  0.00    -0.075 A 
ATOM     63  C31 non d ame     -13.327  13.972  72.703  0.00  0.00    -0.082 A 
ATOM     64  H49 non d ame     -13.433  13.047  70.757  0.00  0.00     0.084 H 
ATOM     65  C32 non d ame     -12.868  15.066  73.441  0.00  0.00    -0.083 A 
ATOM     66  H50 non d ame     -13.883  13.174  73.196  0.00  0.00     0.083 H 
ATOM     67  C33 non d ame     -12.160  16.078  72.806  0.00  0.00    -0.082 A 
ATOM     68  H51 non d ame     -13.061  15.130  74.512  0.00  0.00     0.083 H 
ATOM     69  C34 non d ame     -11.903  16.008  71.438  0.00  0.00    -0.075 A 
ATOM     70  H52 non d ame     -11.805  16.931  73.384  0.00  0.00     0.083 H 
ATOM     71  H53 non d ame     -11.346  16.807  70.947  0.00  0.00     0.084 H 
ENDBRANCH  58  61
ENDBRANCH  57  58
ENDBRANCH  55  57
ENDBRANCH  52  55
ENDBRANCH  49  52
ENDBRANCH  47  49
BRANCH  47  72
ATOM     72  C24 non d ame      -9.055  10.136  69.003  0.00  0.00    -0.039 C 
ATOM     73  H35 non d ame      -8.416  10.113  69.886  0.00  0.00     0.036 H 
ATOM     74  H36 non d ame     -10.097  10.442  69.092  0.00  0.00     0.036 H 
BRANCH  72  75
ATOM     75  C25 non d ame      -9.046   8.662  68.375  0.00  0.00    -0.001 C 
ATOM     76  C26 non d ame      -8.326   8.688  66.896  0.00  0.00    -0.035 C 
ATOM     77  C27 non d ame      -9.145   8.083  66.002  0.00  0.00     0.085 C 
ATOM     78  H38 non d ame      -8.261   9.712  66.530  0.00  0.00     0.036 H 
ATOM     79  H39 non d ame      -7.440   8.052  66.901  0.00  0.00     0.036 H 
ATOM     80  N5  non d ame     -10.494   7.940  66.664  0.00  0.00    -0.049 N 
ATOM     81  H40 non d ame      -9.230   8.781  65.168  0.00  0.00     0.075 H 
ATOM     82  H41 non d ame      -8.721   7.093  65.843  0.00  0.00     0.075 H 
ATOM     83  C28 non d ame     -10.246   8.206  68.237  0.00  0.00     0.193 C 
ATOM     84  H42 non d ame     -11.072   8.684  66.300  0.00  0.00     0.280 HD
ATOM     85  H43 non d ame     -10.772   6.977  66.541  0.00  0.00     0.280 HD
ATOM     86  H44 non d ame     -10.224   7.374  68.942  0.00  0.00     0.129 H 
ATOM     87  H37 non d ame      -8.696   7.913  69.084  0.00  0.00     0.046 H 
BRANCH  83  88
ATOM     88  O6  non d ame     -11.229   9.110  68.745  0.00  0.00    -0.369 OA
ATOM     89  H45 non d ame     -10.998  10.007  68.492  0.00  0.00     0.212 HD
ENDBRANCH  83  88
ENDBRANCH  72  75
ENDBRANCH  47  72
ENDBRANCH  45  47
ENDBRANCH   1  43
BRANCH   1  90
ATOM     90  C16 non d ame      -5.501  13.370  70.402  0.00  0.00    -0.035 C 
ATOM     91  H21 non d ame      -5.926  14.205  70.959  0.00  0.00     0.037 H 
ATOM     92  H22 non d ame      -5.984  12.393  70.433  0.00  0.00     0.037 H 
BRANCH  90  93
ATOM     93  C17 non d ame      -4.053  13.164  70.950  0.00  0.00    -0.059 C 
ATOM     94  H23 non d ame      -4.090  12.365  71.691  0.00  0.00     0.038 H 
BRANCH  93  95
ATOM     95  C18 non d ame      -3.055  12.728  69.830  0.00  0.00    -0.073 C 
ATOM     96  H24 non d ame      -3.039  11.641  69.761  0.00  0.00     0.028 H 
ATOM     97  H25 non d ame      -3.375  13.147  68.875  0.00  0.00     0.028 H 
ATOM     98  H26 non d ame      -2.057  13.093  70.071  0.00  0.00     0.028 H 
ENDBRANCH  93  95
BRANCH  93  99
ATOM     99  C19 non d ame      -3.555  14.423  71.664  0.00  0.00    -0.073 C 
ATOM    100  H27 non d ame      -3.103  14.146  72.617  0.00  0.00     0.028 H 
ATOM    101  H28 non d ame      -2.812  14.923  71.041  0.00  0.00     0.028 H 
ATOM    102  H29 non d ame      -4.393  15.097  71.840  0.00  0.00     0.028 H 
ENDBRANCH  93  99
ENDBRANCH  90  93
ENDBRANCH   1  90
TORSDOF 26
ENDMDL
MODEL 3
REMARK VINA RESULT:      -6.8      3.713      8.358
REMARK  26 active torsions:
REMARK  status: ('A' for Active; 'I' for Inactive)
REMARK    1  A    between atoms: C2_2  and  C3_3 
REMARK    2  A    between atoms: C4_6  and  C5_7 
REMARK       I    between atoms: C5_7  and  N2_9 
REMARK    3  A    between atoms: N2_9  and  C6_10 
REMARK    4  A    between atoms: C6_10  and  C7_11 
REMARK    5  A    between atoms: C6_10  and  C8_13 
REMARK       I    between atoms: C7_11  and  N3_14 
REMARK    6  A    between atoms: N3_14  and  C9_15 
REMARK    7  A    between atoms: C9_15  and  C10_16 
REMARK    8  A    between atoms: C9_15  and  C11_18 
REMARK       I    between atoms: C10_16  and  N4_21 
REMARK    9  A    between atoms: C11_18  and  C12_19 
REMARK   10  A    between atoms: C11_18  and  C13_20 
REMARK   11  A    between atoms: N4_21  and  C14_22 
REMARK   12  A    between atoms: C14_22  and  C15_23 
REMARK   13  A    between atoms: C14_22  and  C16_25 
REMARK       I    between atoms: C15_23  and  N6_40 
REMARK   14  A    between atoms: C16_25  and  C17_26 
REMARK   15  A    between atoms: C17_26  and  C18_27 
REMARK   16  A    between atoms: C17_26  and  C19_28 
REMARK   17  A    between atoms: C20_29  and  C21_30 
REMARK   18  A    between atoms: C20_29  and  C24_33 
REMARK   19  A    between atoms: C20_29  and  N6_40 
REMARK   20  A    between atoms: C21_30  and  C22_31 
REMARK   21  A    between atoms: C22_31  and  C23_32 
REMARK   22  A    between atoms: C23_32  and  O8_43 
REMARK   23  A    between atoms: C24_33  and  C25_34 
REMARK   24  A    between atoms: C28_38  and  O6_39 
REMARK   25  A    between atoms: C29_42  and  O8_43 
REMARK   26  A    between atoms: C29_42  and  C35_49 
ROOT
ATOM      1  C14 non d ame      -9.895  10.774  68.040  0.00  0.00     0.089 C 
ATOM      2  H20 non d ame      -9.113  10.840  68.798  0.00  0.00     0.087 H 
ENDROOT
BRANCH   1   3
ATOM      3  N4  non d ame     -10.495   9.452  68.142  0.00  0.00    -0.346 N 
ATOM      4  C10 non d ame      -9.975   8.455  69.147  0.00  0.00     0.241 C 
ATOM      5  O4  non d ame      -9.070   8.739  69.861  0.00  0.00    -0.271 OA
ATOM      6  H19 non d ame     -11.263   9.230  67.524  0.00  0.00     0.163 HD
BRANCH   4   7
ATOM      7  C9  non d ame     -10.612   7.094  69.243  0.00  0.00     0.092 C 
ATOM      8  H11 non d ame     -11.651   7.160  68.920  0.00  0.00     0.088 H 
BRANCH   7   9
ATOM      9  N3  non d ame      -9.932   6.170  68.330  0.00  0.00    -0.346 N 
ATOM     10  C7  non d ame     -10.371   6.057  66.961  0.00  0.00     0.240 C 
ATOM     11  O3  non d ame     -11.270   6.701  66.578  0.00  0.00    -0.271 OA
ATOM     12  H10 non d ame      -9.156   5.607  68.647  0.00  0.00     0.163 HD
BRANCH  10  13
ATOM     13  C6  non d ame      -9.645   5.070  65.995  0.00  0.00     0.086 C 
ATOM     14  H6  non d ame     -10.236   4.835  65.110  0.00  0.00     0.086 H 
BRANCH  13  15
ATOM     15  N2  non d ame      -8.418   5.690  65.522  0.00  0.00    -0.343 N 
ATOM     16  C5  non d ame      -8.047   5.570  64.111  0.00  0.00     0.273 C 
ATOM     17  O2  non d ame      -8.741   4.971  63.364  0.00  0.00    -0.266 OA
ATOM     18  H5  non d ame      -7.830   6.197  66.168  0.00  0.00     0.163 HD
BRANCH  16  19
ATOM     19  C4  non d ame      -6.754   6.222  63.597  0.00  0.00     0.154 A 
ATOM     20  C1  non d ame      -6.437   7.617  63.577  0.00  0.00    -0.017 A 
ATOM     21  C2  non d ame      -5.143   7.688  63.014  0.00  0.00     0.077 A 
ATOM     22  H1  non d ame      -7.052   8.450  63.919  0.00  0.00     0.091 H 
ATOM     23  O1  non d ame      -4.770   6.471  62.747  0.00  0.00    -0.218 OA
ATOM     24  N1  non d ame      -5.693   5.598  63.078  0.00  0.00    -0.123 NA
BRANCH  21  25
ATOM     25  C3  non d ame      -4.336   8.956  62.767  0.00  0.00    -0.029 C 
ATOM     26  H2  non d ame      -4.982   9.720  62.333  0.00  0.00     0.036 H 
ATOM     27  H3  non d ame      -3.929   9.317  63.711  0.00  0.00     0.036 H 
ATOM     28  H4  non d ame      -3.518   8.738  62.079  0.00  0.00     0.036 H 
ENDBRANCH  21  25
ENDBRANCH  16  19
ENDBRANCH  13  15
BRANCH  13  29
ATOM     29  C8  non d ame      -9.329   3.789  66.725  0.00  0.00    -0.049 C 
ATOM     30  H7  non d ame      -9.081   3.011  66.003  0.00  0.00     0.030 H 
ATOM     31  H8  non d ame      -8.481   3.951  67.391  0.00  0.00     0.030 H 
ATOM     32  H9  non d ame     -10.196   3.480  67.308  0.00  0.00     0.030 H 
ENDBRANCH  13  29
ENDBRANCH  10  13
ENDBRANCH   7   9
BRANCH   7  33
ATOM     33  C11 non d ame     -10.486   6.564  70.702  0.00  0.00    -0.033 C 
ATOM     34  H12 non d ame      -9.702   7.140  71.194  0.00  0.00     0.042 H 
BRANCH  33  35
ATOM     35  C12 non d ame     -11.806   6.787  71.504  0.00  0.00    -0.071 C 
ATOM     36  H13 non d ame     -12.489   5.958  71.316  0.00  0.00     0.028 H 
ATOM     37  H14 non d ame     -11.580   6.837  72.569  0.00  0.00     0.028 H 
ATOM     38  H15 non d ame     -12.271   7.720  71.186  0.00  0.00     0.028 H 
ENDBRANCH  33  35
BRANCH  33  39
ATOM     39  C13 non d ame     -10.061   5.061  70.716  0.00  0.00    -0.071 C 
ATOM     40  H16 non d ame      -9.641   4.792  69.747  0.00  0.00     0.028 H 
ATOM     41  H17 non d ame      -9.313   4.902  71.493  0.00  0.00     0.028 H 
ATOM     42  H18 non d ame     -10.933   4.439  70.919  0.00  0.00     0.028 H 
ENDBRANCH  33  39
ENDBRANCH   7  33
ENDBRANCH   4   7
ENDBRANCH   1   3
BRANCH   1  43
ATOM     43  C15 non d ame     -11.007  11.841  68.251  0.00  0.00     0.240 C 
ATOM     44  O5  non d ame     -12.099  11.649  67.822  0.00  0.00    -0.271 OA
ATOM     45  N6  non d ame     -10.713  13.099  68.994  0.00  0.00    -0.355 N 
ATOM     46  H46 non d ame      -9.791  13.271  69.367  0.00  0.00     0.162 HD
BRANCH  45  47
ATOM     47  C20 non d ame     -11.782  14.103  69.187  0.00  0.00     0.013 C 
ATOM     48  H30 non d ame     -12.558  13.914  68.445  0.00  0.00     0.072 H 
BRANCH  47  49
ATOM     49  C21 non d ame     -11.208  15.488  68.994  0.00  0.00    -0.038 C 
ATOM     50  H31 non d ame     -12.064  16.143  68.832  0.00  0.00     0.036 H 
ATOM     51  H32 non d ame     -10.547  15.654  69.845  0.00  0.00     0.036 H 
BRANCH  49  52
ATOM     52  C22 non d ame     -10.327  15.601  67.730  0.00  0.00     0.018 C 
ATOM     53  H33 non d ame      -9.299  15.648  68.089  0.00  0.00     0.048 H 
ATOM     54  H34 non d ame     -10.640  14.784  67.079  0.00  0.00     0.048 H 
BRANCH  52  55
ATOM     55  C23 non d ame     -10.559  16.906  66.920  0.00  0.00     0.259 C 
ATOM     56  O7  non d ame     -10.420  16.917  65.740  0.00  0.00    -0.265 OA
BRANCH  55  57
ATOM     57  O8  non d ame     -10.927  18.096  67.607  0.00  0.00    -0.317 OA
BRANCH  57  58
ATOM     58  C29 non d ame     -10.449  19.296  66.991  0.00  0.00     0.052 C 
ATOM     59  H47 non d ame     -10.511  19.121  65.917  0.00  0.00     0.082 H 
ATOM     60  H48 non d ame     -11.017  20.107  67.445  0.00  0.00     0.082 H 
BRANCH  58  61
ATOM     61  C35 non d ame      -8.955  19.468  67.375  0.00  0.00    -0.034 A 
ATOM     62  C30 non d ame      -8.561  19.366  68.706  0.00  0.00    -0.075 A 
ATOM     63  C31 non d ame      -7.220  19.520  69.051  0.00  0.00    -0.082 A 
ATOM     64  H49 non d ame      -9.304  19.164  69.478  0.00  0.00     0.084 H 
ATOM     65  C32 non d ame      -6.269  19.781  68.059  0.00  0.00    -0.083 A 
ATOM     66  H50 non d ame      -6.914  19.438  70.094  0.00  0.00     0.083 H 
ATOM     67  C33 non d ame      -6.667  19.885  66.734  0.00  0.00    -0.082 A 
ATOM     68  H51 non d ame      -5.218  19.902  68.321  0.00  0.00     0.083 H 
ATOM     69  C34 non d ame      -8.007  19.729  66.384  0.00  0.00    -0.075 A 
ATOM     70  H52 non d ame      -5.924  20.090  65.963  0.00  0.00     0.083 H 
ATOM     71  H53 non d ame      -8.311  19.811  65.340  0.00  0.00     0.084 H 
ENDBRANCH  58  61
ENDBRANCH  57  58
ENDBRANCH  55  57
ENDBRANCH  52  55
ENDBRANCH  49  52
ENDBRANCH  47  49
BRANCH  47  72
ATOM     72  C24 non d ame     -12.356  13.982  70.597  0.00  0.00    -0.039 C 
ATOM     73  H35 non d ame     -13.343  13.535  70.471  0.00  0.00     0.036 H 
ATOM     74  H36 non d ame     -11.594  13.462  71.177  0.00  0.00     0.036 H 
BRANCH  72  75
ATOM     75  C25 non d ame     -12.570  15.417  71.276  0.00  0.00    -0.001 C 
ATOM     76  C26 non d ame     -11.708  15.509  72.674  0.00  0.00    -0.035 C 
ATOM     77  C27 non d ame     -12.531  15.924  73.667  0.00  0.00     0.085 C 
ATOM     78  H38 non d ame     -11.406  14.512  72.993  0.00  0.00     0.036 H 
ATOM     79  H39 non d ame     -10.969  16.307  72.605  0.00  0.00     0.036 H 
ATOM     80  N5  non d ame     -13.943  15.809  73.147  0.00  0.00    -0.049 N 
ATOM     81  H40 non d ame     -12.391  15.209  74.479  0.00  0.00     0.075 H 
ATOM     82  H41 non d ame     -12.294  16.976  73.820  0.00  0.00     0.075 H 
ATOM     83  C28 non d ame     -13.815  15.625  71.548  0.00  0.00     0.193 C 
ATOM     84  H42 non d ame     -14.324  14.960  73.539  0.00  0.00     0.280 HD
ATOM     85  H43 non d ame     -14.390  16.696  73.333  0.00  0.00     0.280 HD
ATOM     86  H44 non d ame     -14.029  16.456  70.876  0.00  0.00     0.129 H 
ATOM     87  H37 non d ame     -12.448  16.233  70.563  0.00  0.00     0.046 H 
BRANCH  83  88
ATOM     88  O6  non d ame     -14.649  14.552  71.107  0.00  0.00    -0.369 OA
ATOM     89  H45 non d ame     -14.813  14.641  70.166  0.00  0.00     0.212 HD
ENDBRANCH  83  88
ENDBRANCH  72  75
ENDBRANCH  47  72
ENDBRANCH  45  47
ENDBRANCH   1  43
BRANCH   1  90
ATOM     90  C16 non d ame      -9.286  10.937  66.657  0.00  0.00    -0.035 C 
ATOM     91  H21 non d ame      -9.345  12.003  66.438  0.00  0.00     0.037 H 
ATOM     92  H22 non d ame      -8.314  10.445  66.709  0.00  0.00     0.037 H 
BRANCH  90  93
ATOM     93  C17 non d ame     -10.088  10.211  65.530  0.00  0.00    -0.059 C 
ATOM     94  H23 non d ame     -10.905   9.666  66.003  0.00  0.00     0.038 H 
BRANCH  93  95
ATOM     95  C18 non d ame     -10.713  11.216  64.510  0.00  0.00    -0.073 C 
ATOM     96  H24 non d ame     -11.167  10.664  63.688  0.00  0.00     0.028 H 
ATOM     97  H25 non d ame     -11.475  11.814  65.011  0.00  0.00     0.028 H 
ATOM     98  H26 non d ame      -9.934  11.872  64.122  0.00  0.00     0.028 H 
ENDBRANCH  93  95
BRANCH  93  99
ATOM     99  C19 non d ame      -9.212   9.181  64.812  0.00  0.00    -0.073 C 
ATOM    100  H27 non d ame      -9.579   8.178  65.027  0.00  0.00     0.028 H 
ATOM    101  H28 non d ame      -9.249   9.359  63.737  0.00  0.00     0.028 H 
ATOM    102  H29 non d ame      -8.183   9.274  65.159  0.00  0.00     0.028 H 
ENDBRANCH  93  99
ENDBRANCH  90  93
ENDBRANCH   1  90
TORSDOF 26
ENDMDL
MODEL 4
REMARK VINA RESULT:      -6.7      3.652      7.669
REMARK  26 active torsions:
REMARK  status: ('A' for Active; 'I' for Inactive)
REMARK    1  A    between atoms: C2_2  and  C3_3 
REMARK    2  A    between atoms: C4_6  and  C5_7 
REMARK       I    between atoms: C5_7  and  N2_9 
REMARK    3  A    between atoms: N2_9  and  C6_10 
REMARK    4  A    between atoms: C6_10  and  C7_11 
REMARK    5  A    between atoms: C6_10  and  C8_13 
REMARK       I    between atoms: C7_11  and  N3_14 
REMARK    6  A    between atoms: N3_14  and  C9_15 
REMARK    7  A    between atoms: C9_15  and  C10_16 
REMARK    8  A    between atoms: C9_15  and  C11_18 
REMARK       I    between atoms: C10_16  and  N4_21 
REMARK    9  A    between atoms: C11_18  and  C12_19 
REMARK   10  A    between atoms: C11_18  and  C13_20 
REMARK   11  A    between atoms: N4_21  and  C14_22 
REMARK   12  A    between atoms: C14_22  and  C15_23 
REMARK   13  A    between atoms: C14_22  and  C16_25 
REMARK       I    between atoms: C15_23  and  N6_40 
REMARK   14  A    between atoms: C16_25  and  C17_26 
REMARK   15  A    between atoms: C17_26  and  C18_27 
REMARK   16  A    between atoms: C17_26  and  C19_28 
REMARK   17  A    between atoms: C20_29  and  C21_30 
REMARK   18  A    between atoms: C20_29  and  C24_33 
REMARK   19  A    between atoms: C20_29  and  N6_40 
REMARK   20  A    between atoms: C21_30  and  C22_31 
REMARK   21  A    between atoms: C22_31  and  C23_32 
REMARK   22  A    between atoms: C23_32  and  O8_43 
REMARK   23  A    between atoms: C24_33  and  C25_34 
REMARK   24  A    between atoms: C28_38  and  O6_39 
REMARK   25  A    between atoms: C29_42  and  O8_43 
REMARK   26  A    between atoms: C29_42  and  C35_49 
ROOT
ATOM      1  C14 non d ame      -8.204   8.311  62.907  0.00  0.00     0.089 C 
ATOM      2  H20 non d ame      -8.694   8.315  61.933  0.00  0.00     0.087 H 
ENDROOT
BRANCH   1   3
ATOM      3  N4  non d ame      -9.044   9.068  63.823  0.00  0.00    -0.346 N 
ATOM      4  C10 non d ame      -9.547  10.437  63.441  0.00  0.00     0.241 C 
ATOM      5  O4  non d ame      -9.260  10.911  62.392  0.00  0.00    -0.271 OA
ATOM      6  H19 non d ame      -9.274   8.648  64.713  0.00  0.00     0.163 HD
BRANCH   4   7
ATOM      7  C9  non d ame     -10.420  11.203  64.400  0.00  0.00     0.092 C 
ATOM      8  H11 non d ame     -11.106  10.513  64.890  0.00  0.00     0.088 H 
BRANCH   7   9
ATOM      9  N3  non d ame      -9.588  11.804  65.447  0.00  0.00    -0.346 N 
ATOM     10  C7  non d ame      -9.642  11.290  66.794  0.00  0.00     0.240 C 
ATOM     11  O3  non d ame     -10.352  10.396  67.053  0.00  0.00    -0.271 OA
ATOM     12  H10 non d ame      -8.972  12.577  65.239  0.00  0.00     0.163 HD
BRANCH  10  13
ATOM     13  C6  non d ame      -8.756  11.936  67.904  0.00  0.00     0.086 C 
ATOM     14  H6  non d ame      -8.071  12.687  67.513  0.00  0.00     0.086 H 
BRANCH  13  15
ATOM     15  N2  non d ame      -9.617  12.614  68.859  0.00  0.00    -0.343 N 
ATOM     16  C5  non d ame     -10.143  13.942  68.538  0.00  0.00     0.273 C 
ATOM     17  O2  non d ame      -9.867  14.458  67.511  0.00  0.00    -0.266 OA
ATOM     18  H5  non d ame      -9.846  12.167  69.736  0.00  0.00     0.163 HD
BRANCH  16  19
ATOM     19  C4  non d ame     -11.055  14.671  69.538  0.00  0.00     0.154 A 
ATOM     20  C1  non d ame     -12.290  14.198  70.085  0.00  0.00    -0.017 A 
ATOM     21  C2  non d ame     -12.727  15.231  70.943  0.00  0.00     0.077 A 
ATOM     22  H1  non d ame     -12.792  13.250  69.890  0.00  0.00     0.091 H 
ATOM     23  O1  non d ame     -11.840  16.181  70.889  0.00  0.00    -0.218 OA
ATOM     24  N1  non d ame     -10.855  15.877  70.075  0.00  0.00    -0.123 NA
BRANCH  21  25
ATOM     25  C3  non d ame     -14.001  15.232  71.778  0.00  0.00    -0.029 C 
ATOM     26  H2  non d ame     -14.729  14.553  71.332  0.00  0.00     0.036 H 
ATOM     27  H3  non d ame     -13.771  14.904  72.791  0.00  0.00     0.036 H 
ATOM     28  H4  non d ame     -14.416  16.240  71.807  0.00  0.00     0.036 H 
ENDBRANCH  21  25
ENDBRANCH  16  19
ENDBRANCH  13  15
BRANCH  13  29
ATOM     29  C8  non d ame      -7.957  10.863  68.600  0.00  0.00    -0.049 C 
ATOM     30  H7  non d ame      -7.630  11.227  69.574  0.00  0.00     0.030 H 
ATOM     31  H8  non d ame      -8.578   9.976  68.733  0.00  0.00     0.030 H 
ATOM     32  H9  non d ame      -7.086  10.610  67.996  0.00  0.00     0.030 H 
ENDBRANCH  13  29
ENDBRANCH  10  13
ENDBRANCH   7   9
BRANCH   7  33
ATOM     33  C11 non d ame     -11.172  12.328  63.630  0.00  0.00    -0.033 C 
ATOM     34  H12 non d ame     -10.635  12.505  62.699  0.00  0.00     0.042 H 
BRANCH  33  35
ATOM     35  C12 non d ame     -12.623  11.890  63.258  0.00  0.00    -0.071 C 
ATOM     36  H13 non d ame     -12.890  12.304  62.285  0.00  0.00     0.028 H 
ATOM     37  H14 non d ame     -12.675  10.802  63.217  0.00  0.00     0.028 H 
ATOM     38  H15 non d ame     -13.318  12.259  64.012  0.00  0.00     0.028 H 
ENDBRANCH  33  35
BRANCH  33  39
ATOM     39  C13 non d ame     -11.175  13.660  64.448  0.00  0.00    -0.071 C 
ATOM     40  H16 non d ame     -11.027  13.438  65.504  0.00  0.00     0.028 H 
ATOM     41  H17 non d ame     -10.368  14.304  64.096  0.00  0.00     0.028 H 
ATOM     42  H18 non d ame     -12.130  14.167  64.313  0.00  0.00     0.028 H 
ENDBRANCH  33  39
ENDBRANCH   7  33
ENDBRANCH   4   7
ENDBRANCH   1   3
BRANCH   1  43
ATOM     43  C15 non d ame      -8.027   6.872  63.470  0.00  0.00     0.240 C 
ATOM     44  O5  non d ame      -7.405   6.068  62.853  0.00  0.00    -0.271 OA
ATOM     45  N6  non d ame      -8.626   6.498  64.783  0.00  0.00    -0.355 N 
ATOM     46  H46 non d ame      -9.152   7.174  65.318  0.00  0.00     0.162 HD
BRANCH  45  47
ATOM     47  C20 non d ame      -8.448   5.126  65.305  0.00  0.00     0.013 C 
ATOM     48  H30 non d ame      -8.095   4.499  64.486  0.00  0.00     0.072 H 
BRANCH  47  49
ATOM     49  C21 non d ame      -9.774   4.610  65.817  0.00  0.00    -0.038 C 
ATOM     50  H31 non d ame     -10.535   5.212  65.321  0.00  0.00     0.036 H 
ATOM     51  H32 non d ame      -9.747   3.531  65.666  0.00  0.00     0.036 H 
BRANCH  49  52
ATOM     52  C22 non d ame      -9.959   4.835  67.333  0.00  0.00     0.018 C 
ATOM     53  H33 non d ame     -10.724   4.124  67.646  0.00  0.00     0.048 H 
ATOM     54  H34 non d ame      -8.959   4.784  67.764  0.00  0.00     0.048 H 
BRANCH  52  55
ATOM     55  C23 non d ame     -10.509   6.242  67.695  0.00  0.00     0.259 C 
ATOM     56  O7  non d ame     -11.177   6.847  66.920  0.00  0.00    -0.265 OA
BRANCH  55  57
ATOM     57  O8  non d ame     -10.196   6.809  68.962  0.00  0.00    -0.317 OA
BRANCH  57  58
ATOM     58  C29 non d ame     -11.139   6.494  69.990  0.00  0.00     0.052 C 
ATOM     59  H47 non d ame     -11.954   5.969  69.492  0.00  0.00     0.082 H 
ATOM     60  H48 non d ame     -10.567   5.994  70.772  0.00  0.00     0.082 H 
BRANCH  58  61
ATOM     61  C35 non d ame     -11.689   7.828  70.560  0.00  0.00    -0.034 A 
ATOM     62  C30 non d ame     -11.123   9.038  70.172  0.00  0.00    -0.075 A 
ATOM     63  C31 non d ame     -11.616  10.237  70.684  0.00  0.00    -0.082 A 
ATOM     64  H49 non d ame     -10.293   9.047  69.465  0.00  0.00     0.084 H 
ATOM     65  C32 non d ame     -12.679  10.223  71.591  0.00  0.00    -0.083 A 
ATOM     66  H50 non d ame     -11.172  11.183  70.375  0.00  0.00     0.083 H 
ATOM     67  C33 non d ame     -13.238   9.013  71.979  0.00  0.00    -0.082 A 
ATOM     68  H51 non d ame     -13.071  11.155  71.997  0.00  0.00     0.083 H 
ATOM     69  C34 non d ame     -12.750   7.812  71.468  0.00  0.00    -0.075 A 
ATOM     70  H52 non d ame     -14.066   9.005  72.689  0.00  0.00     0.083 H 
ATOM     71  H53 non d ame     -13.195   6.866  71.776  0.00  0.00     0.084 H 
ENDBRANCH  58  61
ENDBRANCH  57  58
ENDBRANCH  55  57
ENDBRANCH  52  55
ENDBRANCH  49  52
ENDBRANCH  47  49
BRANCH  47  72
ATOM     72  C24 non d ame      -7.430   5.135  66.444  0.00  0.00    -0.039 C 
ATOM     73  H35 non d ame      -7.407   6.163  66.804  0.00  0.00     0.036 H 
ATOM     74  H36 non d ame      -7.736   4.330  67.112  0.00  0.00     0.036 H 
BRANCH  72  75
ATOM     75  C25 non d ame      -5.956   4.783  65.924  0.00  0.00    -0.001 C 
ATOM     76  C26 non d ame      -5.457   3.358  66.576  0.00  0.00    -0.035 C 
ATOM     77  C27 non d ame      -4.236   3.538  67.135  0.00  0.00     0.085 C 
ATOM     78  H38 non d ame      -6.089   3.094  67.423  0.00  0.00     0.036 H 
ATOM     79  H39 non d ame      -5.271   2.630  65.786  0.00  0.00     0.036 H 
ATOM     80  N5  non d ame      -4.001   5.027  67.212  0.00  0.00    -0.049 N 
ATOM     81  H40 non d ame      -4.317   3.138  68.146  0.00  0.00     0.075 H 
ATOM     82  H41 non d ame      -3.527   3.103  66.432  0.00  0.00     0.075 H 
ATOM     83  C28 non d ame      -5.112   5.703  66.255  0.00  0.00     0.193 C 
ATOM     84  H42 non d ame      -4.191   5.298  68.166  0.00  0.00     0.280 HD
ATOM     85  H43 non d ame      -3.088   5.194  66.812  0.00  0.00     0.280 HD
ATOM     86  H44 non d ame      -4.837   6.083  65.271  0.00  0.00     0.129 H 
ATOM     87  H37 non d ame      -5.862   4.894  64.843  0.00  0.00     0.046 H 
BRANCH  83  88
ATOM     88  O6  non d ame      -5.741   6.796  66.925  0.00  0.00    -0.369 OA
ATOM     89  H45 non d ame      -5.734   6.637  67.872  0.00  0.00     0.212 HD
ENDBRANCH  83  88
ENDBRANCH  72  75
ENDBRANCH  47  72
ENDBRANCH  45  47
ENDBRANCH   1  43
BRANCH   1  90
ATOM     90  C16 non d ame      -6.847   8.990  62.803  0.00  0.00    -0.035 C 
ATOM     91  H21 non d ame      -6.307   8.439  62.032  0.00  0.00     0.037 H 
ATOM     92  H22 non d ame      -7.064  10.049  62.664  0.00  0.00     0.037 H 
BRANCH  90  93
ATOM     93  C17 non d ame      -5.991   8.881  64.104  0.00  0.00    -0.059 C 
ATOM     94  H23 non d ame      -6.470   8.150  64.755  0.00  0.00     0.038 H 
BRANCH  93  95
ATOM     95  C18 non d ame      -4.539   8.381  63.814  0.00  0.00    -0.073 C 
ATOM     96  H24 non d ame      -4.581   7.423  63.297  0.00  0.00     0.028 H 
ATOM     97  H25 non d ame      -4.022   9.110  63.189  0.00  0.00     0.028 H 
ATOM     98  H26 non d ame      -4.001   8.263  64.755  0.00  0.00     0.028 H 
ENDBRANCH  93  95
BRANCH  93  99
ATOM     99  C19 non d ame      -5.968  10.214  64.857  0.00  0.00    -0.073 C 
ATOM    100  H27 non d ame      -6.042  11.035  64.143  0.00  0.00     0.028 H 
ATOM    101  H28 non d ame      -6.810  10.255  65.547  0.00  0.00     0.028 H 
ATOM    102  H29 non d ame      -5.036  10.300  65.415  0.00  0.00     0.028 H 
ENDBRANCH  93  99
ENDBRANCH  90  93
ENDBRANCH   1  90
TORSDOF 26
ENDMDL
MODEL 5
REMARK VINA RESULT:      -6.7      3.799      7.766
REMARK  26 active torsions:
REMARK  status: ('A' for Active; 'I' for Inactive)
REMARK    1  A    between atoms: C2_2  and  C3_3 
REMARK    2  A    between atoms: C4_6  and  C5_7 
REMARK       I    between atoms: C5_7  and  N2_9 
REMARK    3  A    between atoms: N2_9  and  C6_10 
REMARK    4  A    between atoms: C6_10  and  C7_11 
REMARK    5  A    between atoms: C6_10  and  C8_13 
REMARK       I    between atoms: C7_11  and  N3_14 
REMARK    6  A    between atoms: N3_14  and  C9_15 
REMARK    7  A    between atoms: C9_15  and  C10_16 
REMARK    8  A    between atoms: C9_15  and  C11_18 
REMARK       I    between atoms: C10_16  and  N4_21 
REMARK    9  A    between atoms: C11_18  and  C12_19 
REMARK   10  A    between atoms: C11_18  and  C13_20 
REMARK   11  A    between atoms: N4_21  and  C14_22 
REMARK   12  A    between atoms: C14_22  and  C15_23 
REMARK   13  A    between atoms: C14_22  and  C16_25 
REMARK       I    between atoms: C15_23  and  N6_40 
REMARK   14  A    between atoms: C16_25  and  C17_26 
REMARK   15  A    between atoms: C17_26  and  C18_27 
REMARK   16  A    between atoms: C17_26  and  C19_28 
REMARK   17  A    between atoms: C20_29  and  C21_30 
REMARK   18  A    between atoms: C20_29  and  C24_33 
REMARK   19  A    between atoms: C20_29  and  N6_40 
REMARK   20  A    between atoms: C21_30  and  C22_31 
REMARK   21  A    between atoms: C22_31  and  C23_32 
REMARK   22  A    between atoms: C23_32  and  O8_43 
REMARK   23  A    between atoms: C24_33  and  C25_34 
REMARK   24  A    between atoms: C28_38  and  O6_39 
REMARK   25  A    between atoms: C29_42  and  O8_43 
REMARK   26  A    between atoms: C29_42  and  C35_49 
ROOT
ATOM      1  C14 non d ame      -8.258   8.686  63.267  0.00  0.00     0.089 C 
ATOM      2  H20 non d ame      -9.148   9.002  62.722  0.00  0.00     0.087 H 
ENDROOT
BRANCH   1   3
ATOM      3  N4  non d ame      -8.245   9.399  64.536  0.00  0.00    -0.346 N 
ATOM      4  C10 non d ame      -9.368  10.340  64.893  0.00  0.00     0.241 C 
ATOM      5  O4  non d ame     -10.270  10.509  64.141  0.00  0.00    -0.271 OA
ATOM      6  H19 non d ame      -7.466   9.242  65.161  0.00  0.00     0.163 HD
BRANCH   4   7
ATOM      7  C9  non d ame      -9.341  11.065  66.213  0.00  0.00     0.092 C 
ATOM      8  H11 non d ame      -8.355  11.507  66.358  0.00  0.00     0.088 H 
BRANCH   7   9
ATOM      9  N3  non d ame     -10.310  12.164  66.187  0.00  0.00    -0.346 N 
ATOM     10  C7  non d ame      -9.877  13.513  66.454  0.00  0.00     0.240 C 
ATOM     11  O3  non d ame      -8.752  13.732  66.693  0.00  0.00    -0.271 OA
ATOM     12  H10 non d ame     -11.284  11.990  65.984  0.00  0.00     0.163 HD
BRANCH  10  13
ATOM     13  C6  non d ame     -10.914  14.679  66.428  0.00  0.00     0.086 C 
ATOM     14  H6  non d ame     -11.916  14.345  66.160  0.00  0.00     0.086 H 
BRANCH  13  15
ATOM     15  N2  non d ame     -11.010  15.254  67.759  0.00  0.00    -0.343 N 
ATOM     16  C5  non d ame     -11.722  14.525  68.811  0.00  0.00     0.273 C 
ATOM     17  O2  non d ame     -12.217  13.477  68.575  0.00  0.00    -0.266 OA
ATOM     18  H5  non d ame     -10.586  16.151  67.952  0.00  0.00     0.163 HD
BRANCH  16  19
ATOM     19  C4  non d ame     -11.830  15.120  70.223  0.00  0.00     0.154 A 
ATOM     20  C1  non d ame     -12.192  14.434  71.426  0.00  0.00    -0.017 A 
ATOM     21  C2  non d ame     -12.142  15.420  72.436  0.00  0.00     0.077 A 
ATOM     22  H1  non d ame     -12.452  13.382  71.547  0.00  0.00     0.091 H 
ATOM     23  O1  non d ame     -11.789  16.537  71.870  0.00  0.00    -0.218 OA
ATOM     24  N1  non d ame     -11.602  16.388  70.579  0.00  0.00    -0.123 NA
BRANCH  21  25
ATOM     25  C3  non d ame     -12.443  15.213  73.914  0.00  0.00    -0.029 C 
ATOM     26  H2  non d ame     -11.799  15.858  74.512  0.00  0.00     0.036 H 
ATOM     27  H3  non d ame     -13.487  15.459  74.110  0.00  0.00     0.036 H 
ATOM     28  H4  non d ame     -12.261  14.171  74.180  0.00  0.00     0.036 H 
ENDBRANCH  21  25
ENDBRANCH  16  19
ENDBRANCH  13  15
BRANCH  13  29
ATOM     29  C8  non d ame     -10.469  15.729  65.442  0.00  0.00    -0.049 C 
ATOM     30  H7  non d ame     -10.867  16.699  65.741  0.00  0.00     0.030 H 
ATOM     31  H8  non d ame      -9.380  15.773  65.424  0.00  0.00     0.030 H 
ATOM     32  H9  non d ame     -10.840  15.475  64.450  0.00  0.00     0.030 H 
ENDBRANCH  13  29
ENDBRANCH  10  13
ENDBRANCH   7   9
BRANCH   7  33
ATOM     33  C11 non d ame      -9.713  10.075  67.356  0.00  0.00    -0.033 C 
ATOM     34  H12 non d ame      -9.574   9.064  66.973  0.00  0.00     0.042 H 
BRANCH  33  35
ATOM     35  C12 non d ame      -8.767  10.245  68.585  0.00  0.00    -0.071 C 
ATOM     36  H13 non d ame      -8.852   9.372  69.232  0.00  0.00     0.028 H 
ATOM     37  H14 non d ame      -7.738  10.342  68.240  0.00  0.00     0.028 H 
ATOM     38  H15 non d ame      -9.051  11.138  69.140  0.00  0.00     0.028 H 
ENDBRANCH  33  35
BRANCH  33  39
ATOM     39  C13 non d ame     -11.212  10.235  67.768  0.00  0.00    -0.071 C 
ATOM     40  H16 non d ame     -11.480   9.450  68.474  0.00  0.00     0.028 H 
ATOM     41  H17 non d ame     -11.358  11.209  68.234  0.00  0.00     0.028 H 
ATOM     42  H18 non d ame     -11.842  10.158  66.882  0.00  0.00     0.028 H 
ENDBRANCH  33  39
ENDBRANCH   7  33
ENDBRANCH   4   7
ENDBRANCH   1   3
BRANCH   1  43
ATOM     43  C15 non d ame      -8.258   7.158  63.557  0.00  0.00     0.240 C 
ATOM     44  O5  non d ame      -8.025   6.389  62.681  0.00  0.00    -0.271 OA
ATOM     45  N6  non d ame      -8.541   6.652  64.931  0.00  0.00    -0.355 N 
ATOM     46  H46 non d ame      -8.736   7.295  65.685  0.00  0.00     0.162 HD
BRANCH  45  47
ATOM     47  C20 non d ame      -8.537   5.196  65.191  0.00  0.00     0.013 C 
ATOM     48  H30 non d ame      -8.532   4.683  64.229  0.00  0.00     0.072 H 
BRANCH  47  49
ATOM     49  C21 non d ame      -9.778   4.823  65.969  0.00  0.00    -0.038 C 
ATOM     50  H31 non d ame     -10.492   4.460  65.230  0.00  0.00     0.036 H 
ATOM     51  H32 non d ame      -9.438   4.165  66.769  0.00  0.00     0.036 H 
BRANCH  49  52
ATOM     52  C22 non d ame     -10.442   6.037  66.656  0.00  0.00     0.018 C 
ATOM     53  H33 non d ame      -9.917   6.914  66.277  0.00  0.00     0.048 H 
ATOM     54  H34 non d ame     -11.512   5.925  66.484  0.00  0.00     0.048 H 
BRANCH  52  55
ATOM     55  C23 non d ame     -10.257   6.062  68.199  0.00  0.00     0.259 C 
ATOM     56  O7  non d ame      -9.169   6.098  68.676  0.00  0.00    -0.265 OA
BRANCH  55  57
ATOM     57  O8  non d ame     -11.404   6.028  69.039  0.00  0.00    -0.317 OA
BRANCH  57  58
ATOM     58  C29 non d ame     -11.111   6.171  70.432  0.00  0.00     0.052 C 
ATOM     59  H47 non d ame     -11.540   5.294  70.915  0.00  0.00     0.082 H 
ATOM     60  H48 non d ame     -10.039   6.356  70.490  0.00  0.00     0.082 H 
BRANCH  58  61
ATOM     61  C35 non d ame     -11.855   7.431  70.950  0.00  0.00    -0.034 A 
ATOM     62  C30 non d ame     -11.211   8.664  70.964  0.00  0.00    -0.075 A 
ATOM     63  C31 non d ame     -11.879   9.795  71.430  0.00  0.00    -0.082 A 
ATOM     64  H49 non d ame     -10.183   8.744  70.609  0.00  0.00     0.084 H 
ATOM     65  C32 non d ame     -13.196   9.690  71.886  0.00  0.00    -0.083 A 
ATOM     66  H50 non d ame     -11.372  10.761  71.437  0.00  0.00     0.083 H 
ATOM     67  C33 non d ame     -13.833   8.457  71.873  0.00  0.00    -0.082 A 
ATOM     68  H51 non d ame     -13.725  10.570  72.251  0.00  0.00     0.083 H 
ATOM     69  C34 non d ame     -13.170   7.324  71.406  0.00  0.00    -0.075 A 
ATOM     70  H52 non d ame     -14.860   8.377  72.232  0.00  0.00     0.083 H 
ATOM     71  H53 non d ame     -13.678   6.359  71.399  0.00  0.00     0.084 H 
ENDBRANCH  58  61
ENDBRANCH  57  58
ENDBRANCH  55  57
ENDBRANCH  52  55
ENDBRANCH  49  52
ENDBRANCH  47  49
BRANCH  47  72
ATOM     72  C24 non d ame      -7.296   4.819  65.999  0.00  0.00    -0.039 C 
ATOM     73  H35 non d ame      -7.575   4.965  67.043  0.00  0.00     0.036 H 
ATOM     74  H36 non d ame      -7.009   3.829  65.645  0.00  0.00     0.036 H 
BRANCH  72  75
ATOM     75  C25 non d ame      -6.070   5.805  65.695  0.00  0.00    -0.001 C 
ATOM     76  C26 non d ame      -4.905   5.006  64.852  0.00  0.00    -0.035 C 
ATOM     77  C27 non d ame      -3.716   5.184  65.476  0.00  0.00     0.085 C 
ATOM     78  H38 non d ame      -5.068   3.931  64.917  0.00  0.00     0.036 H 
ATOM     79  H39 non d ame      -4.757   5.477  63.881  0.00  0.00     0.036 H 
ATOM     80  N5  non d ame      -4.014   5.756  66.841  0.00  0.00    -0.049 N 
ATOM     81  H40 non d ame      -3.295   4.185  65.593  0.00  0.00     0.075 H 
ATOM     82  H41 non d ame      -3.188   5.932  64.885  0.00  0.00     0.075 H 
ATOM     83  C28 non d ame      -5.549   6.253  66.789  0.00  0.00     0.193 C 
ATOM     84  H42 non d ame      -3.947   4.988  67.493  0.00  0.00     0.280 HD
ATOM     85  H43 non d ame      -3.418   6.564  66.949  0.00  0.00     0.280 HD
ATOM     86  H44 non d ame      -5.785   7.314  66.700  0.00  0.00     0.129 H 
ATOM     87  H37 non d ame      -6.400   6.764  65.298  0.00  0.00     0.046 H 
BRANCH  83  88
ATOM     88  O6  non d ame      -6.253   5.801  67.946  0.00  0.00    -0.369 OA
ATOM     89  H45 non d ame      -7.194   5.773  67.758  0.00  0.00     0.212 HD
ENDBRANCH  83  88
ENDBRANCH  72  75
ENDBRANCH  47  72
ENDBRANCH  45  47
ENDBRANCH   1  43
BRANCH   1  90
ATOM     90  C16 non d ame      -7.013   9.056  62.477  0.00  0.00    -0.035 C 
ATOM     91  H21 non d ame      -6.861   8.235  61.776  0.00  0.00     0.037 H 
ATOM     92  H22 non d ame      -7.196  10.064  62.105  0.00  0.00     0.037 H 
BRANCH  90  93
ATOM     93  C17 non d ame      -5.719   9.136  63.349  0.00  0.00    -0.059 C 
ATOM     94  H23 non d ame      -6.000   8.920  64.379  0.00  0.00     0.038 H 
BRANCH  93  95
ATOM     95  C18 non d ame      -4.651   8.081  62.916  0.00  0.00    -0.073 C 
ATOM     96  H24 non d ame      -5.038   7.493  62.084  0.00  0.00     0.028 H 
ATOM     97  H25 non d ame      -3.739   8.593  62.606  0.00  0.00     0.028 H 
ATOM     98  H26 non d ame      -4.430   7.422  63.755  0.00  0.00     0.028 H 
ENDBRANCH  93  95
BRANCH  93  99
ATOM     99  C19 non d ame      -5.130  10.548  63.325  0.00  0.00    -0.073 C 
ATOM    100  H27 non d ame      -5.812  11.218  62.800  0.00  0.00     0.028 H 
ATOM    101  H28 non d ame      -4.990  10.901  64.347  0.00  0.00     0.028 H 
ATOM    102  H29 non d ame      -4.169  10.533  62.812  0.00  0.00     0.028 H 
ENDBRANCH  93  99
ENDBRANCH  90  93
ENDBRANCH   1  90
TORSDOF 26
ENDMDL
MODEL 6
REMARK VINA RESULT:      -6.7      3.271      8.119
REMARK  26 active torsions:
REMARK  status: ('A' for Active; 'I' for Inactive)
REMARK    1  A    between atoms: C2_2  and  C3_3 
REMARK    2  A    between atoms: C4_6  and  C5_7 
REMARK       I    between atoms: C5_7  and  N2_9 
REMARK    3  A    between atoms: N2_9  and  C6_10 
REMARK    4  A    between atoms: C6_10  and  C7_11 
REMARK    5  A    between atoms: C6_10  and  C8_13 
REMARK       I    between atoms: C7_11  and  N3_14 
REMARK    6  A    between atoms: N3_14  and  C9_15 
REMARK    7  A    between atoms: C9_15  and  C10_16 
REMARK    8  A    between atoms: C9_15  and  C11_18 
REMARK       I    between atoms: C10_16  and  N4_21 
REMARK    9  A    between atoms: C11_18  and  C12_19 
REMARK   10  A    between atoms: C11_18  and  C13_20 
REMARK   11  A    between atoms: N4_21  and  C14_22 
REMARK   12  A    between atoms: C14_22  and  C15_23 
REMARK   13  A    between atoms: C14_22  and  C16_25 
REMARK       I    between atoms: C15_23  and  N6_40 
REMARK   14  A    between atoms: C16_25  and  C17_26 
REMARK   15  A    between atoms: C17_26  and  C18_27 
REMARK   16  A    between atoms: C17_26  and  C19_28 
REMARK   17  A    between atoms: C20_29  and  C21_30 
REMARK   18  A    between atoms: C20_29  and  C24_33 
REMARK   19  A    between atoms: C20_29  and  N6_40 
REMARK   20  A    between atoms: C21_30  and  C22_31 
REMARK   21  A    between atoms: C22_31  and  C23_32 
REMARK   22  A    between atoms: C23_32  and  O8_43 
REMARK   23  A    between atoms: C24_33  and  C25_34 
REMARK   24  A    between atoms: C28_38  and  O6_39 
REMARK   25  A    between atoms: C29_42  and  O8_43 
REMARK   26  A    between atoms: C29_42  and  C35_49 
ROOT
ATOM      1  C14 non d ame     -10.907   9.061  69.756  0.00  0.00     0.089 C 
ATOM      2  H20 non d ame     -11.648   8.261  69.785  0.00  0.00     0.087 H 
ENDROOT
BRANCH   1   3
ATOM      3  N4  non d ame      -9.949   8.733  68.711  0.00  0.00    -0.346 N 
ATOM      4  C10 non d ame      -9.476   7.312  68.530  0.00  0.00     0.241 C 
ATOM      5  O4  non d ame      -9.878   6.451  69.240  0.00  0.00    -0.271 OA
ATOM      6  H19 non d ame      -9.616   9.481  68.119  0.00  0.00     0.163 HD
BRANCH   4   7
ATOM      7  C9  non d ame      -8.488   6.990  67.440  0.00  0.00     0.092 C 
ATOM      8  H11 non d ame      -8.991   6.424  66.656  0.00  0.00     0.088 H 
BRANCH   7   9
ATOM      9  N3  non d ame      -8.004   8.234  66.834  0.00  0.00    -0.346 N 
ATOM     10  C7  non d ame      -7.857   8.328  65.402  0.00  0.00     0.240 C 
ATOM     11  O3  non d ame      -8.122   7.412  64.723  0.00  0.00    -0.271 OA
ATOM     12  H10 non d ame      -7.771   9.032  67.407  0.00  0.00     0.163 HD
BRANCH  10  13
ATOM     13  C6  non d ame      -7.339   9.654  64.763  0.00  0.00     0.086 C 
ATOM     14  H6  non d ame      -7.062   9.537  63.716  0.00  0.00     0.086 H 
BRANCH  13  15
ATOM     15  N2  non d ame      -8.403  10.644  64.804  0.00  0.00    -0.343 N 
ATOM     16  C5  non d ame      -9.410  10.665  63.741  0.00  0.00     0.273 C 
ATOM     17  O2  non d ame      -9.354   9.883  62.856  0.00  0.00    -0.266 OA
ATOM     18  H5  non d ame      -8.442  11.310  65.563  0.00  0.00     0.163 HD
BRANCH  16  19
ATOM     19  C4  non d ame     -10.541  11.705  63.772  0.00  0.00     0.154 A 
ATOM     20  C1  non d ame     -10.495  13.015  64.345  0.00  0.00    -0.017 A 
ATOM     21  C2  non d ame     -11.778  13.560  64.111  0.00  0.00     0.077 A 
ATOM     22  H1  non d ame      -9.659  13.497  64.853  0.00  0.00     0.091 H 
ATOM     23  O1  non d ame     -12.470  12.660  63.476  0.00  0.00    -0.218 OA
ATOM     24  N1  non d ame     -11.770  11.569  63.267  0.00  0.00    -0.123 NA
BRANCH  21  25
ATOM     25  C3  non d ame     -12.259  14.944  64.524  0.00  0.00    -0.029 C 
ATOM     26  H2  non d ame     -12.472  14.951  65.593  0.00  0.00     0.036 H 
ATOM     27  H3  non d ame     -11.484  15.679  64.303  0.00  0.00     0.036 H 
ATOM     28  H4  non d ame     -13.165  15.195  63.971  0.00  0.00     0.036 H 
ENDBRANCH  21  25
ENDBRANCH  16  19
ENDBRANCH  13  15
BRANCH  13  29
ATOM     29  C8  non d ame      -6.141  10.151  65.532  0.00  0.00    -0.049 C 
ATOM     30  H7  non d ame      -6.262  11.213  65.745  0.00  0.00     0.030 H 
ATOM     31  H8  non d ame      -6.056   9.600  66.468  0.00  0.00     0.030 H 
ATOM     32  H9  non d ame      -5.241  10.001  64.937  0.00  0.00     0.030 H 
ENDBRANCH  13  29
ENDBRANCH  10  13
ENDBRANCH   7   9
BRANCH   7  33
ATOM     33  C11 non d ame      -7.284   6.209  68.045  0.00  0.00    -0.033 C 
ATOM     34  H12 non d ame      -7.642   5.692  68.935  0.00  0.00     0.042 H 
BRANCH  33  35
ATOM     35  C12 non d ame      -6.754   5.126  67.055  0.00  0.00    -0.071 C 
ATOM     36  H13 non d ame      -6.087   5.593  66.329  0.00  0.00     0.028 H 
ATOM     37  H14 non d ame      -6.209   4.363  67.609  0.00  0.00     0.028 H 
ATOM     38  H15 non d ame      -7.594   4.668  66.534  0.00  0.00     0.028 H 
ENDBRANCH  33  35
BRANCH  33  39
ATOM     39  C13 non d ame      -6.145   7.187  68.479  0.00  0.00    -0.071 C 
ATOM     40  H16 non d ame      -6.198   8.095  67.880  0.00  0.00     0.028 H 
ATOM     41  H17 non d ame      -6.265   7.439  69.533  0.00  0.00     0.028 H 
ATOM     42  H18 non d ame      -5.178   6.707  68.328  0.00  0.00     0.028 H 
ENDBRANCH  33  39
ENDBRANCH   7  33
ENDBRANCH   4   7
ENDBRANCH   1   3
BRANCH   1  43
ATOM     43  C15 non d ame     -11.545  10.441  69.427  0.00  0.00     0.240 C 
ATOM     44  O5  non d ame     -11.924  10.669  68.324  0.00  0.00    -0.271 OA
ATOM     45  N6  non d ame     -11.692  11.475  70.490  0.00  0.00    -0.355 N 
ATOM     46  H46 non d ame     -11.379  11.291  71.432  0.00  0.00     0.162 HD
BRANCH  45  47
ATOM     47  C20 non d ame     -12.302  12.782  70.162  0.00  0.00     0.013 C 
ATOM     48  H30 non d ame     -12.960  12.639  69.305  0.00  0.00     0.072 H 
BRANCH  47  49
ATOM     49  C21 non d ame     -11.211  13.770  69.817  0.00  0.00    -0.038 C 
ATOM     50  H31 non d ame     -11.473  14.692  70.338  0.00  0.00     0.036 H 
ATOM     51  H32 non d ame     -10.273  13.263  70.043  0.00  0.00     0.036 H 
BRANCH  49  52
ATOM     52  C22 non d ame     -11.170  14.117  68.313  0.00  0.00     0.018 C 
ATOM     53  H33 non d ame     -10.933  13.183  67.801  0.00  0.00     0.048 H 
ATOM     54  H34 non d ame     -12.108  14.631  68.102  0.00  0.00     0.048 H 
BRANCH  52  55
ATOM     55  C23 non d ame     -10.040  15.113  67.931  0.00  0.00     0.259 C 
ATOM     56  O7  non d ame      -9.576  15.107  66.837  0.00  0.00    -0.265 OA
BRANCH  55  57
ATOM     57  O8  non d ame      -9.556  16.026  68.908  0.00  0.00    -0.317 OA
BRANCH  57  58
ATOM     58  C29 non d ame     -10.352  17.207  69.046  0.00  0.00     0.052 C 
ATOM     59  H47 non d ame     -11.255  17.024  68.463  0.00  0.00     0.082 H 
ATOM     60  H48 non d ame     -10.423  17.391  70.118  0.00  0.00     0.082 H 
BRANCH  58  61
ATOM     61  C35 non d ame      -9.578  18.385  68.396  0.00  0.00    -0.034 A 
ATOM     62  C30 non d ame      -8.188  18.410  68.434  0.00  0.00    -0.075 A 
ATOM     63  C31 non d ame      -7.492  19.468  67.851  0.00  0.00    -0.082 A 
ATOM     64  H49 non d ame      -7.643  17.601  68.921  0.00  0.00     0.084 H 
ATOM     65  C32 non d ame      -8.193  20.505  67.229  0.00  0.00    -0.083 A 
ATOM     66  H50 non d ame      -6.403  19.484  67.880  0.00  0.00     0.083 H 
ATOM     67  C33 non d ame      -9.581  20.477  67.196  0.00  0.00    -0.082 A 
ATOM     68  H51 non d ame      -7.657  21.336  66.770  0.00  0.00     0.083 H 
ATOM     69  C34 non d ame     -10.280  19.421  67.776  0.00  0.00    -0.075 A 
ATOM     70  H52 non d ame     -10.125  21.289  66.713  0.00  0.00     0.083 H 
ATOM     71  H53 non d ame     -11.369  19.405  67.746  0.00  0.00     0.084 H 
ENDBRANCH  58  61
ENDBRANCH  57  58
ENDBRANCH  55  57
ENDBRANCH  52  55
ENDBRANCH  49  52
ENDBRANCH  47  49
BRANCH  47  72
ATOM     72  C24 non d ame     -13.097  13.297  71.360  0.00  0.00    -0.039 C 
ATOM     73  H35 non d ame     -14.142  13.258  71.054  0.00  0.00     0.036 H 
ATOM     74  H36 non d ame     -12.756  12.705  72.210  0.00  0.00     0.036 H 
BRANCH  72  75
ATOM     75  C25 non d ame     -12.756  14.829  71.684  0.00  0.00    -0.001 C 
ATOM     76  C26 non d ame     -12.065  14.947  73.171  0.00  0.00    -0.035 C 
ATOM     77  C27 non d ame     -12.728  15.887  73.887  0.00  0.00     0.085 C 
ATOM     78  H38 non d ame     -12.235  14.030  73.736  0.00  0.00     0.036 H 
ATOM     79  H39 non d ame     -11.058  15.355  73.085  0.00  0.00     0.036 H 
ATOM     80  N5  non d ame     -14.007  16.187  73.143  0.00  0.00    -0.049 N 
ATOM     81  H40 non d ame     -12.972  15.411  74.837  0.00  0.00     0.075 H 
ATOM     82  H41 non d ame     -12.091  16.770  73.867  0.00  0.00     0.075 H 
ATOM     83  C28 non d ame     -13.822  15.558  71.668  0.00  0.00     0.193 C 
ATOM     84  H42 non d ame     -14.740  15.680  73.619  0.00  0.00     0.280 HD
ATOM     85  H43 non d ame     -14.060  17.192  73.059  0.00  0.00     0.280 HD
ATOM     86  H44 non d ame     -13.609  16.202  70.814  0.00  0.00     0.129 H 
ATOM     87  H37 non d ame     -12.242  15.320  70.858  0.00  0.00     0.046 H 
BRANCH  83  88
ATOM     88  O6  non d ame     -14.982  14.809  71.302  0.00  0.00    -0.369 OA
ATOM     89  H45 non d ame     -14.835  13.879  71.490  0.00  0.00     0.212 HD
ENDBRANCH  83  88
ENDBRANCH  72  75
ENDBRANCH  47  72
ENDBRANCH  45  47
ENDBRANCH   1  43
BRANCH   1  90
ATOM     90  C16 non d ame     -10.180   9.138  71.089  0.00  0.00    -0.035 C 
ATOM     91  H21 non d ame      -9.240   8.609  70.936  0.00  0.00     0.037 H 
ATOM     92  H22 non d ame     -10.173  10.196  71.353  0.00  0.00     0.037 H 
BRANCH  90  93
ATOM     93  C17 non d ame     -10.920   8.399  72.249  0.00  0.00    -0.059 C 
ATOM     94  H23 non d ame     -11.284   9.156  72.944  0.00  0.00     0.038 H 
BRANCH  93  95
ATOM     95  C18 non d ame     -12.154   7.588  71.740  0.00  0.00    -0.073 C 
ATOM     96  H24 non d ame     -12.856   8.263  71.252  0.00  0.00     0.028 H 
ATOM     97  H25 non d ame     -11.822   6.832  71.027  0.00  0.00     0.028 H 
ATOM     98  H26 non d ame     -12.643   7.102  72.584  0.00  0.00     0.028 H 
ENDBRANCH  93  95
BRANCH  93  99
ATOM     99  C19 non d ame      -9.956   7.496  73.024  0.00  0.00    -0.073 C 
ATOM    100  H27 non d ame      -8.929   7.772  72.785  0.00  0.00     0.028 H 
ATOM    101  H28 non d ame     -10.126   7.618  74.094  0.00  0.00     0.028 H 
ATOM    102  H29 non d ame     -10.128   6.457  72.745  0.00  0.00     0.028 H 
ENDBRANCH  93  99
ENDBRANCH  90  93
ENDBRANCH   1  90
TORSDOF 26
ENDMDL
MODEL 7
REMARK VINA RESULT:      -6.6      4.300      8.338
REMARK  26 active torsions:
REMARK  status: ('A' for Active; 'I' for Inactive)
REMARK    1  A    between atoms: C2_2  and  C3_3 
REMARK    2  A    between atoms: C4_6  and  C5_7 
REMARK       I    between atoms: C5_7  and  N2_9 
REMARK    3  A    between atoms: N2_9  and  C6_10 
REMARK    4  A    between atoms: C6_10  and  C7_11 
REMARK    5  A    between atoms: C6_10  and  C8_13 
REMARK       I    between atoms: C7_11  and  N3_14 
REMARK    6  A    between atoms: N3_14  and  C9_15 
REMARK    7  A    between atoms: C9_15  and  C10_16 
REMARK    8  A    between atoms: C9_15  and  C11_18 
REMARK       I    between atoms: C10_16  and  N4_21 
REMARK    9  A    between atoms: C11_18  and  C12_19 
REMARK   10  A    between atoms: C11_18  and  C13_20 
REMARK   11  A    between atoms: N4_21  and  C14_22 
REMARK   12  A    between atoms: C14_22  and  C15_23 
REMARK   13  A    between atoms: C14_22  and  C16_25 
REMARK       I    between atoms: C15_23  and  N6_40 
REMARK   14  A    between atoms: C16_25  and  C17_26 
REMARK   15  A    between atoms: C17_26  and  C18_27 
REMARK   16  A    between atoms: C17_26  and  C19_28 
REMARK   17  A    between atoms: C20_29  and  C21_30 
REMARK   18  A    between atoms: C20_29  and  C24_33 
REMARK   19  A    between atoms: C20_29  and  N6_40 
REMARK   20  A    between atoms: C21_30  and  C22_31 
REMARK   21  A    between atoms: C22_31  and  C23_32 
REMARK   22  A    between atoms: C23_32  and  O8_43 
REMARK   23  A    between atoms: C24_33  and  C25_34 
REMARK   24  A    between atoms: C28_38  and  O6_39 
REMARK   25  A    between atoms: C29_42  and  O8_43 
REMARK   26  A    between atoms: C29_42  and  C35_49 
ROOT
ATOM      1  C14 non d ame      -7.902   6.249  63.101  0.00  0.00     0.089 C 
ATOM      2  H20 non d ame      -8.257   6.481  62.097  0.00  0.00     0.087 H 
ENDROOT
BRANCH   1   3
ATOM      3  N4  non d ame      -7.768   7.508  63.820  0.00  0.00    -0.346 N 
ATOM      4  C10 non d ame      -8.021   8.817  63.117  0.00  0.00     0.241 C 
ATOM      5  O4  non d ame      -8.328   8.833  61.970  0.00  0.00    -0.271 OA
ATOM      6  H19 non d ame      -7.503   7.472  64.794  0.00  0.00     0.163 HD
BRANCH   4   7
ATOM      7  C9  non d ame      -7.884  10.110  63.877  0.00  0.00     0.092 C 
ATOM      8  H11 non d ame      -7.662  10.916  63.178  0.00  0.00     0.088 H 
BRANCH   7   9
ATOM      9  N3  non d ame      -9.159  10.435  64.524  0.00  0.00    -0.346 N 
ATOM     10  C7  non d ame     -10.043  11.405  63.926  0.00  0.00     0.240 C 
ATOM     11  O3  non d ame      -9.743  11.934  62.926  0.00  0.00    -0.271 OA
ATOM     12  H10 non d ame      -9.430   9.987  65.388  0.00  0.00     0.163 HD
BRANCH  10  13
ATOM     13  C6  non d ame     -11.397  11.749  64.620  0.00  0.00     0.086 C 
ATOM     14  H6  non d ame     -11.844  10.891  65.122  0.00  0.00     0.086 H 
BRANCH  13  15
ATOM     15  N2  non d ame     -11.161  12.753  65.644  0.00  0.00    -0.343 N 
ATOM     16  C5  non d ame     -11.467  12.444  67.042  0.00  0.00     0.273 C 
ATOM     17  O2  non d ame     -11.907  11.385  67.332  0.00  0.00    -0.266 OA
ATOM     18  H5  non d ame     -10.788  13.656  65.386  0.00  0.00     0.163 HD
BRANCH  16  19
ATOM     19  C4  non d ame     -11.221  13.495  68.135  0.00  0.00     0.154 A 
ATOM     20  C1  non d ame     -11.979  13.692  69.333  0.00  0.00    -0.017 A 
ATOM     21  C2  non d ame     -11.348  14.771  69.990  0.00  0.00     0.077 A 
ATOM     22  H1  non d ame     -12.853  13.136  69.673  0.00  0.00     0.091 H 
ATOM     23  O1  non d ame     -10.345  15.143  69.249  0.00  0.00    -0.218 OA
ATOM     24  N1  non d ame     -10.251  14.413  68.161  0.00  0.00    -0.123 NA
BRANCH  21  25
ATOM     25  C3  non d ame     -11.764  15.385  71.320  0.00  0.00    -0.029 C 
ATOM     26  H2  non d ame     -11.454  14.731  72.135  0.00  0.00     0.036 H 
ATOM     27  H3  non d ame     -11.289  16.360  71.434  0.00  0.00     0.036 H 
ATOM     28  H4  non d ame     -12.848  15.505  71.342  0.00  0.00     0.036 H 
ENDBRANCH  21  25
ENDBRANCH  16  19
ENDBRANCH  13  15
BRANCH  13  29
ATOM     29  C8  non d ame     -12.371  12.275  63.596  0.00  0.00    -0.049 C 
ATOM     30  H7  non d ame     -12.831  13.190  63.968  0.00  0.00     0.030 H 
ATOM     31  H8  non d ame     -11.842  12.486  62.667  0.00  0.00     0.030 H 
ATOM     32  H9  non d ame     -13.144  11.529  63.413  0.00  0.00     0.030 H 
ENDBRANCH  13  29
ENDBRANCH  10  13
ENDBRANCH   7   9
BRANCH   7  33
ATOM     33  C11 non d ame      -6.779   9.957  64.964  0.00  0.00    -0.033 C 
ATOM     34  H12 non d ame      -6.691   8.896  65.197  0.00  0.00     0.042 H 
BRANCH  33  35
ATOM     35  C12 non d ame      -5.392  10.437  64.435  0.00  0.00    -0.071 C 
ATOM     36  H13 non d ame      -5.536  11.244  63.716  0.00  0.00     0.028 H 
ATOM     37  H14 non d ame      -4.790  10.798  65.269  0.00  0.00     0.028 H 
ATOM     38  H15 non d ame      -4.880   9.606  63.950  0.00  0.00     0.028 H 
ENDBRANCH  33  35
BRANCH  33  39
ATOM     39  C13 non d ame      -7.176  10.709  66.275  0.00  0.00    -0.071 C 
ATOM     40  H16 non d ame      -6.394  11.420  66.537  0.00  0.00     0.028 H 
ATOM     41  H17 non d ame      -8.114  11.242  66.118  0.00  0.00     0.028 H 
ATOM     42  H18 non d ame      -7.299   9.988  67.083  0.00  0.00     0.028 H 
ENDBRANCH  33  39
ENDBRANCH   7  33
ENDBRANCH   4   7
ENDBRANCH   1   3
BRANCH   1  43
ATOM     43  C15 non d ame      -8.893   5.337  63.879  0.00  0.00     0.240 C 
ATOM     44  O5  non d ame      -9.407   4.418  63.328  0.00  0.00    -0.271 OA
ATOM     45  N6  non d ame      -9.196   5.605  65.314  0.00  0.00    -0.355 N 
ATOM     46  H46 non d ame      -8.762   6.380  65.794  0.00  0.00     0.162 HD
BRANCH  45  47
ATOM     47  C20 non d ame     -10.140   4.728  66.040  0.00  0.00     0.013 C 
ATOM     48  H30 non d ame     -10.930   4.439  65.347  0.00  0.00     0.072 H 
BRANCH  47  49
ATOM     49  C21 non d ame     -10.728   5.486  67.208  0.00  0.00    -0.038 C 
ATOM     50  H31 non d ame     -11.767   5.163  67.275  0.00  0.00     0.036 H 
ATOM     51  H32 non d ame     -10.048   5.314  68.043  0.00  0.00     0.036 H 
BRANCH  49  52
ATOM     52  C22 non d ame     -10.760   7.012  66.977  0.00  0.00     0.018 C 
ATOM     53  H33 non d ame     -10.516   7.157  65.925  0.00  0.00     0.048 H 
ATOM     54  H34 non d ame     -11.722   7.350  67.365  0.00  0.00     0.048 H 
BRANCH  52  55
ATOM     55  C23 non d ame      -9.679   7.789  67.779  0.00  0.00     0.259 C 
ATOM     56  O7  non d ame      -8.525   7.635  67.541  0.00  0.00    -0.265 OA
BRANCH  55  57
ATOM     57  O8  non d ame     -10.083   8.680  68.811  0.00  0.00    -0.317 OA
BRANCH  57  58
ATOM     58  C29 non d ame     -10.044   8.109  70.122  0.00  0.00     0.052 C 
ATOM     59  H47 non d ame      -9.890   7.040  69.973  0.00  0.00     0.082 H 
ATOM     60  H48 non d ame      -9.311   8.693  70.677  0.00  0.00     0.082 H 
BRANCH  58  61
ATOM     61  C35 non d ame     -11.436   8.318  70.777  0.00  0.00    -0.034 A 
ATOM     62  C30 non d ame     -11.851   9.596  71.138  0.00  0.00    -0.075 A 
ATOM     63  C31 non d ame     -13.100   9.784  71.727  0.00  0.00    -0.082 A 
ATOM     64  H49 non d ame     -11.197  10.450  70.959  0.00  0.00     0.084 H 
ATOM     65  C32 non d ame     -13.936   8.687  71.956  0.00  0.00    -0.083 A 
ATOM     66  H50 non d ame     -13.424  10.787  72.006  0.00  0.00     0.083 H 
ATOM     67  C33 non d ame     -13.516   7.414  71.597  0.00  0.00    -0.082 A 
ATOM     68  H51 non d ame     -14.914   8.825  72.416  0.00  0.00     0.083 H 
ATOM     69  C34 non d ame     -12.269   7.221  71.007  0.00  0.00    -0.075 A 
ATOM     70  H52 non d ame     -14.169   6.560  71.780  0.00  0.00     0.083 H 
ATOM     71  H53 non d ame     -11.946   6.218  70.727  0.00  0.00     0.084 H 
ENDBRANCH  58  61
ENDBRANCH  57  58
ENDBRANCH  55  57
ENDBRANCH  52  55
ENDBRANCH  49  52
ENDBRANCH  47  49
BRANCH  47  72
ATOM     72  C24 non d ame      -9.405   3.491  66.552  0.00  0.00    -0.039 C 
ATOM     73  H35 non d ame     -10.097   2.661  66.404  0.00  0.00     0.036 H 
ATOM     74  H36 non d ame      -8.441   3.494  66.043  0.00  0.00     0.036 H 
BRANCH  72  75
ATOM     75  C25 non d ame      -9.111   3.585  68.124  0.00  0.00    -0.001 C 
ATOM     76  C26 non d ame      -7.534   3.980  68.375  0.00  0.00    -0.035 C 
ATOM     77  C27 non d ame      -6.997   3.093  69.247  0.00  0.00     0.085 C 
ATOM     78  H38 non d ame      -6.959   3.821  67.464  0.00  0.00     0.036 H 
ATOM     79  H39 non d ame      -7.466   4.931  68.904  0.00  0.00     0.036 H 
ATOM     80  N5  non d ame      -7.966   1.942  69.361  0.00  0.00    -0.049 N 
ATOM     81  H40 non d ame      -6.079   2.740  68.776  0.00  0.00     0.075 H 
ATOM     82  H41 non d ame      -6.952   3.615  70.203  0.00  0.00     0.075 H 
ATOM     83  C28 non d ame      -9.350   2.461  68.713  0.00  0.00     0.193 C 
ATOM     84  H42 non d ame      -7.598   1.200  68.782  0.00  0.00     0.280 HD
ATOM     85  H43 non d ame      -8.112   1.786  70.348  0.00  0.00     0.280 HD
ATOM     86  H44 non d ame     -10.187   2.746  69.351  0.00  0.00     0.129 H 
ATOM     87  H37 non d ame      -9.860   4.177  68.650  0.00  0.00     0.046 H 
BRANCH  83  88
ATOM     88  O6  non d ame      -9.872   1.482  67.813  0.00  0.00    -0.369 OA
ATOM     89  H45 non d ame     -10.229   0.745  68.314  0.00  0.00     0.212 HD
ENDBRANCH  83  88
ENDBRANCH  72  75
ENDBRANCH  47  72
ENDBRANCH  45  47
ENDBRANCH   1  43
BRANCH   1  90
ATOM     90  C16 non d ame      -6.541   5.576  63.023  0.00  0.00    -0.035 C 
ATOM     91  H21 non d ame      -6.723   4.528  63.267  0.00  0.00     0.037 H 
ATOM     92  H22 non d ame      -6.141   5.846  62.046  0.00  0.00     0.037 H 
BRANCH  90  93
ATOM     93  C17 non d ame      -5.519   6.103  64.080  0.00  0.00    -0.059 C 
ATOM     94  H23 non d ame      -6.072   6.698  64.807  0.00  0.00     0.038 H 
BRANCH  93  95
ATOM     95  C18 non d ame      -4.817   4.941  64.853  0.00  0.00    -0.073 C 
ATOM     96  H24 non d ame      -5.570   4.247  65.226  0.00  0.00     0.028 H 
ATOM     97  H25 non d ame      -4.140   4.414  64.179  0.00  0.00     0.028 H 
ATOM     98  H26 non d ame      -4.252   5.350  65.690  0.00  0.00     0.028 H 
ENDBRANCH  93  95
BRANCH  93  99
ATOM     99  C19 non d ame      -4.486   7.026  63.429  0.00  0.00    -0.073 C 
ATOM    100  H27 non d ame      -4.107   7.729  64.171  0.00  0.00     0.028 H 
ATOM    101  H28 non d ame      -3.661   6.429  63.038  0.00  0.00     0.028 H 
ATOM    102  H29 non d ame      -4.954   7.576  62.613  0.00  0.00     0.028 H 
ENDBRANCH  93  99
ENDBRANCH  90  93
ENDBRANCH   1  90
TORSDOF 26
ENDMDL
MODEL 8
REMARK VINA RESULT:      -6.6      3.425      8.333
REMARK  26 active torsions:
REMARK  status: ('A' for Active; 'I' for Inactive)
REMARK    1  A    between atoms: C2_2  and  C3_3 
REMARK    2  A    between atoms: C4_6  and  C5_7 
REMARK       I    between atoms: C5_7  and  N2_9 
REMARK    3  A    between atoms: N2_9  and  C6_10 
REMARK    4  A    between atoms: C6_10  and  C7_11 
REMARK    5  A    between atoms: C6_10  and  C8_13 
REMARK       I    between atoms: C7_11  and  N3_14 
REMARK    6  A    between atoms: N3_14  and  C9_15 
REMARK    7  A    between atoms: C9_15  and  C10_16 
REMARK    8  A    between atoms: C9_15  and  C11_18 
REMARK       I    between atoms: C10_16  and  N4_21 
REMARK    9  A    between atoms: C11_18  and  C12_19 
REMARK   10  A    between atoms: C11_18  and  C13_20 
REMARK   11  A    between atoms: N4_21  and  C14_22 
REMARK   12  A    between atoms: C14_22  and  C15_23 
REMARK   13  A    between atoms: C14_22  and  C16_25 
REMARK       I    between atoms: C15_23  and  N6_40 
REMARK   14  A    between atoms: C16_25  and  C17_26 
REMARK   15  A    between atoms: C17_26  and  C18_27 
REMARK   16  A    between atoms: C17_26  and  C19_28 
REMARK   17  A    between atoms: C20_29  and  C21_30 
REMARK   18  A    between atoms: C20_29  and  C24_33 
REMARK   19  A    between atoms: C20_29  and  N6_40 
REMARK   20  A    between atoms: C21_30  and  C22_31 
REMARK   21  A    between atoms: C22_31  and  C23_32 
REMARK   22  A    between atoms: C23_32  and  O8_43 
REMARK   23  A    between atoms: C24_33  and  C25_34 
REMARK   24  A    between atoms: C28_38  and  O6_39 
REMARK   25  A    between atoms: C29_42  and  O8_43 
REMARK   26  A    between atoms: C29_42  and  C35_49 
ROOT
ATOM      1  C14 non d ame     -11.073   9.077  69.476  0.00  0.00     0.089 C 
ATOM      2  H20 non d ame     -12.038   8.570  69.508  0.00  0.00     0.087 H 
ENDROOT
BRANCH   1   3
ATOM      3  N4  non d ame     -10.110   8.150  68.899  0.00  0.00    -0.346 N 
ATOM      4  C10 non d ame     -10.421   6.676  68.826  0.00  0.00     0.241 C 
ATOM      5  O4  non d ame     -11.452   6.259  69.240  0.00  0.00    -0.271 OA
ATOM      6  H19 non d ame      -9.237   8.525  68.555  0.00  0.00     0.163 HD
BRANCH   4   7
ATOM      7  C9  non d ame      -9.415   5.732  68.221  0.00  0.00     0.092 C 
ATOM      8  H11 non d ame      -9.935   5.008  67.595  0.00  0.00     0.088 H 
BRANCH   7   9
ATOM      9  N3  non d ame      -8.503   6.481  67.351  0.00  0.00    -0.346 N 
ATOM     10  C7  non d ame      -7.917   5.841  66.199  0.00  0.00     0.240 C 
ATOM     11  O3  non d ame      -8.168   4.723  65.958  0.00  0.00    -0.271 OA
ATOM     12  H10 non d ame      -8.276   7.446  67.547  0.00  0.00     0.163 HD
BRANCH  10  13
ATOM     13  C6  non d ame      -6.945   6.642  65.279  0.00  0.00     0.086 C 
ATOM     14  H6  non d ame      -6.785   6.161  64.314  0.00  0.00     0.086 H 
BRANCH  13  15
ATOM     15  N2  non d ame      -7.524   7.946  65.003  0.00  0.00    -0.343 N 
ATOM     16  C5  non d ame      -8.216   8.174  63.732  0.00  0.00     0.273 C 
ATOM     17  O2  non d ame      -8.297   7.302  62.937  0.00  0.00    -0.266 OA
ATOM     18  H5  non d ame      -7.448   8.686  65.686  0.00  0.00     0.163 HD
BRANCH  16  19
ATOM     19  C4  non d ame      -8.834   9.547  63.427  0.00  0.00     0.154 A 
ATOM     20  C1  non d ame      -9.727  10.296  64.257  0.00  0.00    -0.017 A 
ATOM     21  C2  non d ame      -9.998  11.476  63.528  0.00  0.00     0.077 A 
ATOM     22  H1  non d ame     -10.119  10.026  65.238  0.00  0.00     0.091 H 
ATOM     23  O1  non d ame      -9.332  11.403  62.413  0.00  0.00    -0.218 OA
ATOM     24  N1  non d ame      -8.646  10.286  62.331  0.00  0.00    -0.123 NA
BRANCH  21  25
ATOM     25  C3  non d ame     -10.900  12.621  63.968  0.00  0.00    -0.029 C 
ATOM     26  H2  non d ame     -11.939  12.367  63.756  0.00  0.00     0.036 H 
ATOM     27  H3  non d ame     -10.779  12.788  65.039  0.00  0.00     0.036 H 
ATOM     28  H4  non d ame     -10.629  13.527  63.426  0.00  0.00     0.036 H 
ENDBRANCH  21  25
ENDBRANCH  16  19
ENDBRANCH  13  15
BRANCH  13  29
ATOM     29  C8  non d ame      -5.614   6.804  65.969  0.00  0.00    -0.049 C 
ATOM     30  H7  non d ame      -5.717   7.506  66.796  0.00  0.00     0.030 H 
ATOM     31  H8  non d ame      -5.283   5.838  66.350  0.00  0.00     0.030 H 
ATOM     32  H9  non d ame      -4.881   7.185  65.258  0.00  0.00     0.030 H 
ENDBRANCH  13  29
ENDBRANCH  10  13
ENDBRANCH   7   9
BRANCH   7  33
ATOM     33  C11 non d ame      -8.599   5.047  69.356  0.00  0.00    -0.033 C 
ATOM     34  H12 non d ame      -7.607   4.827  68.961  0.00  0.00     0.042 H 
BRANCH  33  35
ATOM     35  C12 non d ame      -8.415   5.999  70.578  0.00  0.00    -0.071 C 
ATOM     36  H13 non d ame      -9.221   6.734  70.591  0.00  0.00     0.028 H 
ATOM     37  H14 non d ame      -8.441   5.417  71.499  0.00  0.00     0.028 H 
ATOM     38  H15 non d ame      -7.457   6.512  70.498  0.00  0.00     0.028 H 
ENDBRANCH  33  35
BRANCH  33  39
ATOM     39  C13 non d ame      -9.260   3.698  69.783  0.00  0.00    -0.071 C 
ATOM     40  H16 non d ame      -9.441   3.706  70.858  0.00  0.00     0.028 H 
ATOM     41  H17 non d ame     -10.206   3.573  69.256  0.00  0.00     0.028 H 
ATOM     42  H18 non d ame      -8.594   2.872  69.533  0.00  0.00     0.028 H 
ENDBRANCH  33  39
ENDBRANCH   7  33
ENDBRANCH   4   7
ENDBRANCH   1   3
BRANCH   1  43
ATOM     43  C15 non d ame     -11.113  10.360  68.597  0.00  0.00     0.240 C 
ATOM     44  O5  non d ame     -11.416  10.282  67.451  0.00  0.00    -0.271 OA
ATOM     45  N6  non d ame     -10.780  11.688  69.188  0.00  0.00    -0.355 N 
ATOM     46  H46 non d ame     -10.525  11.767  70.162  0.00  0.00     0.162 HD
BRANCH  45  47
ATOM     47  C20 non d ame     -10.824  12.898  68.340  0.00  0.00     0.013 C 
ATOM     48  H30 non d ame     -10.956  12.579  67.306  0.00  0.00     0.072 H 
BRANCH  47  49
ATOM     49  C21 non d ame      -9.525  13.657  68.485  0.00  0.00    -0.038 C 
ATOM     50  H31 non d ame      -9.807  14.684  68.720  0.00  0.00     0.036 H 
ATOM     51  H32 non d ame      -8.925  13.081  69.190  0.00  0.00     0.036 H 
BRANCH  49  52
ATOM     52  C22 non d ame      -8.716  13.718  67.171  0.00  0.00     0.018 C 
ATOM     53  H33 non d ame      -8.438  12.688  66.947  0.00  0.00     0.048 H 
ATOM     54  H34 non d ame      -9.334  14.280  66.470  0.00  0.00     0.048 H 
BRANCH  52  55
ATOM     55  C23 non d ame      -7.382  14.505  67.292  0.00  0.00     0.259 C 
ATOM     56  O7  non d ame      -6.344  13.928  67.344  0.00  0.00    -0.265 OA
BRANCH  55  57
ATOM     57  O8  non d ame      -7.414  15.926  67.353  0.00  0.00    -0.317 OA
BRANCH  57  58
ATOM     58  C29 non d ame      -8.212  16.535  66.334  0.00  0.00     0.052 C 
ATOM     59  H47 non d ame      -7.510  16.870  65.571  0.00  0.00     0.082 H 
ATOM     60  H48 non d ame      -8.981  15.803  66.085  0.00  0.00     0.082 H 
BRANCH  58  61
ATOM     61  C35 non d ame      -8.903  17.782  66.948  0.00  0.00    -0.034 A 
ATOM     62  C30 non d ame      -8.566  18.204  68.230  0.00  0.00    -0.075 A 
ATOM     63  C31 non d ame      -9.186  19.324  68.781  0.00  0.00    -0.082 A 
ATOM     64  H49 non d ame      -7.816  17.658  68.802  0.00  0.00     0.084 H 
ATOM     65  C32 non d ame     -10.149  20.022  68.047  0.00  0.00    -0.083 A 
ATOM     66  H50 non d ame      -8.918  19.654  69.785  0.00  0.00     0.083 H 
ATOM     67  C33 non d ame     -10.484  19.594  66.769  0.00  0.00    -0.082 A 
ATOM     68  H51 non d ame     -10.638  20.899  68.470  0.00  0.00     0.083 H 
ATOM     69  C34 non d ame      -9.865  18.477  66.213  0.00  0.00    -0.075 A 
ATOM     70  H52 non d ame     -11.237  20.139  66.199  0.00  0.00     0.083 H 
ATOM     71  H53 non d ame     -10.133  18.148  65.209  0.00  0.00     0.084 H 
ENDBRANCH  58  61
ENDBRANCH  57  58
ENDBRANCH  55  57
ENDBRANCH  52  55
ENDBRANCH  49  52
ENDBRANCH  47  49
BRANCH  47  72
ATOM     72  C24 non d ame     -11.986  13.790  68.772  0.00  0.00    -0.039 C 
ATOM     73  H35 non d ame     -11.907  14.688  68.159  0.00  0.00     0.036 H 
ATOM     74  H36 non d ame     -12.875  13.162  68.705  0.00  0.00     0.036 H 
BRANCH  72  75
ATOM     75  C25 non d ame     -11.845  14.248  70.301  0.00  0.00    -0.001 C 
ATOM     76  C26 non d ame     -12.897  13.400  71.239  0.00  0.00    -0.035 C 
ATOM     77  C27 non d ame     -13.612  14.272  71.989  0.00  0.00     0.085 C 
ATOM     78  H38 non d ame     -13.651  12.921  70.615  0.00  0.00     0.036 H 
ATOM     79  H39 non d ame     -12.350  12.816  71.979  0.00  0.00     0.036 H 
ATOM     80  N5  non d ame     -13.377  15.647  71.414  0.00  0.00    -0.049 N 
ATOM     81  H40 non d ame     -14.657  13.997  71.838  0.00  0.00     0.075 H 
ATOM     82  H41 non d ame     -13.175  14.224  72.986  0.00  0.00     0.075 H 
ATOM     83  C28 non d ame     -12.099  15.507  70.437  0.00  0.00     0.193 C 
ATOM     84  H42 non d ame     -14.188  15.866  70.853  0.00  0.00     0.280 HD
ATOM     85  H43 non d ame     -13.124  16.243  72.189  0.00  0.00     0.280 HD
ATOM     86  H44 non d ame     -11.121  15.873  70.749  0.00  0.00     0.129 H 
ATOM     87  H37 non d ame     -10.806  14.282  70.627  0.00  0.00     0.046 H 
BRANCH  83  88
ATOM     88  O6  non d ame     -12.363  16.142  69.185  0.00  0.00    -0.369 OA
ATOM     89  H45 non d ame     -13.228  16.558  69.214  0.00  0.00     0.212 HD
ENDBRANCH  83  88
ENDBRANCH  72  75
ENDBRANCH  47  72
ENDBRANCH  45  47
ENDBRANCH   1  43
BRANCH   1  90
ATOM     90  C16 non d ame     -10.633   9.436  70.886  0.00  0.00    -0.035 C 
ATOM     91  H21 non d ame      -9.778   8.792  71.095  0.00  0.00     0.037 H 
ATOM     92  H22 non d ame     -10.510  10.519  70.883  0.00  0.00     0.037 H 
BRANCH  90  93
ATOM     93  C17 non d ame     -11.704   9.116  71.977  0.00  0.00    -0.059 C 
ATOM     94  H23 non d ame     -11.488   9.740  72.845  0.00  0.00     0.038 H 
BRANCH  93  95
ATOM     95  C18 non d ame     -13.152   9.451  71.497  0.00  0.00    -0.073 C 
ATOM     96  H24 non d ame     -13.843   8.698  71.876  0.00  0.00     0.028 H 
ATOM     97  H25 non d ame     -13.442  10.432  71.873  0.00  0.00     0.028 H 
ATOM     98  H26 non d ame     -13.181   9.456  70.407  0.00  0.00     0.028 H 
ENDBRANCH  93  95
BRANCH  93  99
ATOM     99  C19 non d ame     -11.603   7.657  72.431  0.00  0.00    -0.073 C 
ATOM    100  H27 non d ame     -10.668   7.508  72.970  0.00  0.00     0.028 H 
ATOM    101  H28 non d ame     -12.443   7.422  73.086  0.00  0.00     0.028 H 
ATOM    102  H29 non d ame     -11.629   7.004  71.559  0.00  0.00     0.028 H 
ENDBRANCH  93  99
ENDBRANCH  90  93
ENDBRANCH   1  90
TORSDOF 26
ENDMDL
MODEL 9
REMARK VINA RESULT:      -6.5      2.911      7.374
REMARK  26 active torsions:
REMARK  status: ('A' for Active; 'I' for Inactive)
REMARK    1  A    between atoms: C2_2  and  C3_3 
REMARK    2  A    between atoms: C4_6  and  C5_7 
REMARK       I    between atoms: C5_7  and  N2_9 
REMARK    3  A    between atoms: N2_9  and  C6_10 
REMARK    4  A    between atoms: C6_10  and  C7_11 
REMARK    5  A    between atoms: C6_10  and  C8_13 
REMARK       I    between atoms: C7_11  and  N3_14 
REMARK    6  A    between atoms: N3_14  and  C9_15 
REMARK    7  A    between atoms: C9_15  and  C10_16 
REMARK    8  A    between atoms: C9_15  and  C11_18 
REMARK       I    between atoms: C10_16  and  N4_21 
REMARK    9  A    between atoms: C11_18  and  C12_19 
REMARK   10  A    between atoms: C11_18  and  C13_20 
REMARK   11  A    between atoms: N4_21  and  C14_22 
REMARK   12  A    between atoms: C14_22  and  C15_23 
REMARK   13  A    between atoms: C14_22  and  C16_25 
REMARK       I    between atoms: C15_23  and  N6_40 
REMARK   14  A    between atoms: C16_25  and  C17_26 
REMARK   15  A    between atoms: C17_26  and  C18_27 
REMARK   16  A    between atoms: C17_26  and  C19_28 
REMARK   17  A    between atoms: C20_29  and  C21_30 
REMARK   18  A    between atoms: C20_29  and  C24_33 
REMARK   19  A    between atoms: C20_29  and  N6_40 
REMARK   20  A    between atoms: C21_30  and  C22_31 
REMARK   21  A    between atoms: C22_31  and  C23_32 
REMARK   22  A    between atoms: C23_32  and  O8_43 
REMARK   23  A    between atoms: C24_33  and  C25_34 
REMARK   24  A    between atoms: C28_38  and  O6_39 
REMARK   25  A    between atoms: C29_42  and  O8_43 
REMARK   26  A    between atoms: C29_42  and  C35_49 
ROOT
ATOM      1  C14 non d ame     -10.982  13.518  64.613  0.00  0.00     0.089 C 
ATOM      2  H20 non d ame     -11.427  13.468  63.619  0.00  0.00     0.087 H 
ENDROOT
BRANCH   1   3
ATOM      3  N4  non d ame      -9.901  12.544  64.659  0.00  0.00    -0.346 N 
ATOM      4  C10 non d ame      -9.998  11.261  63.872  0.00  0.00     0.241 C 
ATOM      5  O4  non d ame     -10.958  11.032  63.213  0.00  0.00    -0.271 OA
ATOM      6  H19 non d ame      -9.094  12.756  65.228  0.00  0.00     0.163 HD
BRANCH   4   7
ATOM      7  C9  non d ame      -8.868  10.267  63.927  0.00  0.00     0.092 C 
ATOM      8  H11 non d ame      -7.984  10.751  64.343  0.00  0.00     0.088 H 
BRANCH   7   9
ATOM      9  N3  non d ame      -9.225   9.168  64.829  0.00  0.00    -0.346 N 
ATOM     10  C7  non d ame      -8.524   9.006  66.079  0.00  0.00     0.240 C 
ATOM     11  O3  non d ame      -7.669   9.749  66.374  0.00  0.00    -0.271 OA
ATOM     12  H10 non d ame      -9.959   8.518  64.588  0.00  0.00     0.163 HD
BRANCH  10  13
ATOM     13  C6  non d ame      -8.907   7.833  67.034  0.00  0.00     0.086 C 
ATOM     14  H6  non d ame      -8.091   7.545  67.697  0.00  0.00     0.086 H 
BRANCH  13  15
ATOM     15  N2  non d ame     -10.004   8.258  67.887  0.00  0.00    -0.343 N 
ATOM     16  C5  non d ame      -9.744   8.577  69.293  0.00  0.00     0.273 C 
ATOM     17  O2  non d ame      -8.649   8.485  69.728  0.00  0.00    -0.266 OA
ATOM     18  H5  non d ame     -10.937   8.332  67.507  0.00  0.00     0.163 HD
BRANCH  16  19
ATOM     19  C4  non d ame     -10.894   9.029  70.205  0.00  0.00     0.154 A 
ATOM     20  C1  non d ame     -11.827   8.195  70.899  0.00  0.00    -0.017 A 
ATOM     21  C2  non d ame     -12.671   9.091  71.592  0.00  0.00     0.077 A 
ATOM     22  H1  non d ame     -11.882   7.106  70.901  0.00  0.00     0.091 H 
ATOM     23  O1  non d ame     -12.262  10.296  71.321  0.00  0.00    -0.218 OA
ATOM     24  N1  non d ame     -11.227  10.286  70.514  0.00  0.00    -0.123 NA
BRANCH  21  25
ATOM     25  C3  non d ame     -13.843   8.715  72.489  0.00  0.00    -0.029 C 
ATOM     26  H2  non d ame     -13.780   7.657  72.745  0.00  0.00     0.036 H 
ATOM     27  H3  non d ame     -13.808   9.312  73.401  0.00  0.00     0.036 H 
ATOM     28  H4  non d ame     -14.779   8.907  71.965  0.00  0.00     0.036 H 
ENDBRANCH  21  25
ENDBRANCH  16  19
ENDBRANCH  13  15
BRANCH  13  29
ATOM     29  C8  non d ame      -9.320   6.633  66.220  0.00  0.00    -0.049 C 
ATOM     30  H7  non d ame      -8.556   6.419  65.474  0.00  0.00     0.030 H 
ATOM     31  H8  non d ame      -9.438   5.771  66.877  0.00  0.00     0.030 H 
ATOM     32  H9  non d ame     -10.266   6.842  65.721  0.00  0.00     0.030 H 
ENDBRANCH  13  29
ENDBRANCH  10  13
ENDBRANCH   7   9
BRANCH   7  33
ATOM     33  C11 non d ame      -8.608   9.699  62.501  0.00  0.00    -0.033 C 
ATOM     34  H12 non d ame      -9.577   9.513  62.039  0.00  0.00     0.042 H 
BRANCH  33  35
ATOM     35  C12 non d ame      -7.853  10.732  61.606  0.00  0.00    -0.071 C 
ATOM     36  H13 non d ame      -7.810  10.362  60.582  0.00  0.00     0.028 H 
ATOM     37  H14 non d ame      -8.383  11.684  61.626  0.00  0.00     0.028 H 
ATOM     38  H15 non d ame      -6.842  10.870  61.986  0.00  0.00     0.028 H 
ENDBRANCH  33  35
BRANCH  33  39
ATOM     39  C13 non d ame      -7.837   8.342  62.571  0.00  0.00    -0.071 C 
ATOM     40  H16 non d ame      -6.829   8.475  62.179  0.00  0.00     0.028 H 
ATOM     41  H17 non d ame      -7.783   8.008  63.608  0.00  0.00     0.028 H 
ATOM     42  H18 non d ame      -8.363   7.595  61.976  0.00  0.00     0.028 H 
ENDBRANCH  33  39
ENDBRANCH   7  33
ENDBRANCH   4   7
ENDBRANCH   1   3
BRANCH   1  43
ATOM     43  C15 non d ame     -10.395  14.924  64.923  0.00  0.00     0.240 C 
ATOM     44  O5  non d ame     -10.882  15.890  64.431  0.00  0.00    -0.271 OA
ATOM     45  N6  non d ame      -9.229  15.068  65.841  0.00  0.00    -0.355 N 
ATOM     46  H46 non d ame      -8.809  14.256  66.269  0.00  0.00     0.162 HD
BRANCH  45  47
ATOM     47  C20 non d ame      -8.683  16.413  66.127  0.00  0.00     0.013 C 
ATOM     48  H30 non d ame      -8.232  16.793  65.211  0.00  0.00     0.072 H 
BRANCH  47  49
ATOM     49  C21 non d ame      -7.637  16.307  67.213  0.00  0.00    -0.038 C 
ATOM     50  H31 non d ame      -7.251  15.289  67.153  0.00  0.00     0.036 H 
ATOM     51  H32 non d ame      -6.967  17.154  67.061  0.00  0.00     0.036 H 
BRANCH  49  52
ATOM     52  C22 non d ame      -8.227  16.467  68.632  0.00  0.00     0.018 C 
ATOM     53  H33 non d ame      -7.383  16.714  69.276  0.00  0.00     0.048 H 
ATOM     54  H34 non d ame      -9.057  17.165  68.529  0.00  0.00     0.048 H 
BRANCH  52  55
ATOM     55  C23 non d ame      -8.836  15.158  69.207  0.00  0.00     0.259 C 
ATOM     56  O7  non d ame      -8.521  14.101  68.766  0.00  0.00    -0.265 OA
BRANCH  55  57
ATOM     57  O8  non d ame      -9.788  15.238  70.261  0.00  0.00    -0.317 OA
BRANCH  57  58
ATOM     58  C29 non d ame     -10.854  16.160  70.015  0.00  0.00     0.052 C 
ATOM     59  H47 non d ame     -10.435  17.150  70.193  0.00  0.00     0.082 H 
ATOM     60  H48 non d ame     -11.245  15.903  69.030  0.00  0.00     0.082 H 
BRANCH  58  61
ATOM     61  C35 non d ame     -11.965  15.899  71.067  0.00  0.00    -0.034 A 
ATOM     62  C30 non d ame     -11.734  16.182  72.409  0.00  0.00    -0.075 A 
ATOM     63  C31 non d ame     -12.732  15.948  73.354  0.00  0.00    -0.082 A 
ATOM     64  H49 non d ame     -10.771  16.588  72.720  0.00  0.00     0.084 H 
ATOM     65  C32 non d ame     -13.964  15.426  72.953  0.00  0.00    -0.083 A 
ATOM     66  H50 non d ame     -12.548  16.174  74.405  0.00  0.00     0.083 H 
ATOM     67  C33 non d ame     -14.189  15.142  71.613  0.00  0.00    -0.082 A 
ATOM     68  H51 non d ame     -14.750  15.241  73.685  0.00  0.00     0.083 H 
ATOM     69  C34 non d ame     -13.196  15.376  70.664  0.00  0.00    -0.075 A 
ATOM     70  H52 non d ame     -15.151  14.732  71.303  0.00  0.00     0.083 H 
ATOM     71  H53 non d ame     -13.380  15.151  69.614  0.00  0.00     0.084 H 
ENDBRANCH  58  61
ENDBRANCH  57  58
ENDBRANCH  55  57
ENDBRANCH  52  55
ENDBRANCH  49  52
ENDBRANCH  47  49
BRANCH  47  72
ATOM     72  C24 non d ame      -9.806  17.339  66.590  0.00  0.00    -0.039 C 
ATOM     73  H35 non d ame     -10.710  16.959  66.112  0.00  0.00     0.036 H 
ATOM     74  H36 non d ame      -9.734  17.362  67.677  0.00  0.00     0.036 H 
BRANCH  72  75
ATOM     75  C25 non d ame      -9.591  18.838  66.069  0.00  0.00    -0.001 C 
ATOM     76  C26 non d ame      -8.010  19.263  66.226  0.00  0.00    -0.035 C 
ATOM     77  C27 non d ame      -7.939  20.445  66.884  0.00  0.00     0.085 C 
ATOM     78  H38 non d ame      -7.500  18.569  66.894  0.00  0.00     0.036 H 
ATOM     79  H39 non d ame      -7.585  19.490  65.248  0.00  0.00     0.036 H 
ATOM     80  N5  non d ame      -9.303  20.703  67.477  0.00  0.00    -0.049 N 
ATOM     81  H40 non d ame      -7.224  20.286  67.692  0.00  0.00     0.075 H 
ATOM     82  H41 non d ame      -7.738  21.193  66.118  0.00  0.00     0.075 H 
ATOM     83  C28 non d ame     -10.308  19.675  66.743  0.00  0.00     0.193 C 
ATOM     84  H42 non d ame      -9.242  20.452  68.454  0.00  0.00     0.280 HD
ATOM     85  H43 non d ame      -9.557  21.644  67.213  0.00  0.00     0.280 HD
ATOM     86  H44 non d ame     -10.987  20.024  65.965  0.00  0.00     0.129 H 
ATOM     87  H37 non d ame     -10.056  19.010  65.099  0.00  0.00     0.046 H 
BRANCH  83  88
ATOM     88  O6  non d ame     -11.135  19.021  67.707  0.00  0.00    -0.369 OA
ATOM     89  H45 non d ame     -11.230  18.095  67.472  0.00  0.00     0.212 HD
ENDBRANCH  83  88
ENDBRANCH  72  75
ENDBRANCH  47  72
ENDBRANCH  45  47
ENDBRANCH   1  43
BRANCH   1  90
ATOM     90  C16 non d ame     -12.021  13.155  65.662  0.00  0.00    -0.035 C 
ATOM     91  H21 non d ame     -12.521  14.091  65.909  0.00  0.00     0.037 H 
ATOM     92  H22 non d ame     -12.590  12.331  65.231  0.00  0.00     0.037 H 
BRANCH  90  93
ATOM     93  C17 non d ame     -11.406  12.618  66.994  0.00  0.00    -0.059 C 
ATOM     94  H23 non d ame     -10.331  12.797  66.958  0.00  0.00     0.038 H 
BRANCH  93  95
ATOM     95  C18 non d ame     -11.971  13.362  68.246  0.00  0.00    -0.073 C 
ATOM     96  H24 non d ame     -11.207  14.024  68.651  0.00  0.00     0.028 H 
ATOM     97  H25 non d ame     -12.844  13.948  67.957  0.00  0.00     0.028 H 
ATOM     98  H26 non d ame     -12.259  12.632  69.003  0.00  0.00     0.028 H 
ENDBRANCH  93  95
BRANCH  93  99
ATOM     99  C19 non d ame     -11.610  11.106  67.120  0.00  0.00    -0.073 C 
ATOM    100  H27 non d ame     -10.972  10.592  66.401  0.00  0.00     0.028 H 
ATOM    101  H28 non d ame     -11.350  10.788  68.130  0.00  0.00     0.028 H 
ATOM    102  H29 non d ame     -12.654  10.863  66.920  0.00  0.00     0.028 H 
ENDBRANCH  93  99
ENDBRANCH  90  93
ENDBRANCH   1  90
TORSDOF 26
ENDMDL
MODEL 10
REMARK VINA RESULT:      -6.5      2.775      6.449
REMARK  26 active torsions:
REMARK  status: ('A' for Active; 'I' for Inactive)
REMARK    1  A    between atoms: C2_2  and  C3_3 
REMARK    2  A    between atoms: C4_6  and  C5_7 
REMARK       I    between atoms: C5_7  and  N2_9 
REMARK    3  A    between atoms: N2_9  and  C6_10 
REMARK    4  A    between atoms: C6_10  and  C7_11 
REMARK    5  A    between atoms: C6_10  and  C8_13 
REMARK       I    between atoms: C7_11  and  N3_14 
REMARK    6  A    between atoms: N3_14  and  C9_15 
REMARK    7  A    between atoms: C9_15  and  C10_16 
REMARK    8  A    between atoms: C9_15  and  C11_18 
REMARK       I    between atoms: C10_16  and  N4_21 
REMARK    9  A    between atoms: C11_18  and  C12_19 
REMARK   10  A    between atoms: C11_18  and  C13_20 
REMARK   11  A    between atoms: N4_21  and  C14_22 
REMARK   12  A    between atoms: C14_22  and  C15_23 
REMARK   13  A    between atoms: C14_22  and  C16_25 
REMARK       I    between atoms: C15_23  and  N6_40 
REMARK   14  A    between atoms: C16_25  and  C17_26 
REMARK   15  A    between atoms: C17_26  and  C18_27 
REMARK   16  A    between atoms: C17_26  and  C19_28 
REMARK   17  A    between atoms: C20_29  and  C21_30 
REMARK   18  A    between atoms: C20_29  and  C24_33 
REMARK   19  A    between atoms: C20_29  and  N6_40 
REMARK   20  A    between atoms: C21_30  and  C22_31 
REMARK   21  A    between atoms: C22_31  and  C23_32 
REMARK   22  A    between atoms: C23_32  and  O8_43 
REMARK   23  A    between atoms: C24_33  and  C25_34 
REMARK   24  A    between atoms: C28_38  and  O6_39 
REMARK   25  A    between atoms: C29_42  and  O8_43 
REMARK   26  A    between atoms: C29_42  and  C35_49 
ROOT
ATOM      1  C14 non d ame      -6.458  13.807  68.019  0.00  0.00     0.089 C 
ATOM      2  H20 non d ame      -5.783  13.808  67.163  0.00  0.00     0.087 H 
ENDROOT
BRANCH   1   3
ATOM      3  N4  non d ame      -6.779  15.193  68.325  0.00  0.00    -0.346 N 
ATOM      4  C10 non d ame      -6.085  16.315  67.594  0.00  0.00     0.241 C 
ATOM      5  O4  non d ame      -5.270  16.077  66.764  0.00  0.00    -0.271 OA
ATOM      6  H19 non d ame      -7.473  15.375  69.036  0.00  0.00     0.163 HD
BRANCH   4   7
ATOM      7  C9  non d ame      -6.434  17.744  67.919  0.00  0.00     0.092 C 
ATOM      8  H11 non d ame      -6.039  18.396  67.140  0.00  0.00     0.088 H 
BRANCH   7   9
ATOM      9  N3  non d ame      -7.891  17.904  67.921  0.00  0.00    -0.346 N 
ATOM     10  C7  non d ame      -8.602  18.043  66.674  0.00  0.00     0.240 C 
ATOM     11  O3  non d ame      -8.017  18.030  65.660  0.00  0.00    -0.271 OA
ATOM     12  H10 non d ame      -8.409  17.918  68.788  0.00  0.00     0.163 HD
BRANCH  10  13
ATOM     13  C6  non d ame     -10.152  18.216  66.682  0.00  0.00     0.086 C 
ATOM     14  H6  non d ame     -10.639  17.697  65.857  0.00  0.00     0.086 H 
BRANCH  13  15
ATOM     15  N2  non d ame     -10.684  17.640  67.906  0.00  0.00    -0.343 N 
ATOM     16  C5  non d ame     -11.083  16.231  67.927  0.00  0.00     0.273 C 
ATOM     17  O2  non d ame     -10.975  15.570  66.953  0.00  0.00    -0.266 OA
ATOM     18  H5  non d ame     -10.776  18.213  68.733  0.00  0.00     0.163 HD
BRANCH  16  19
ATOM     19  C4  non d ame     -11.646  15.609  69.215  0.00  0.00     0.154 A 
ATOM     20  C1  non d ame     -11.994  14.239  69.432  0.00  0.00    -0.017 A 
ATOM     21  C2  non d ame     -12.457  14.188  70.766  0.00  0.00     0.077 A 
ATOM     22  H1  non d ame     -11.922  13.408  68.730  0.00  0.00     0.091 H 
ATOM     23  O1  non d ame     -12.378  15.394  71.249  0.00  0.00    -0.218 OA
ATOM     24  N1  non d ame     -11.908  16.240  70.362  0.00  0.00    -0.123 NA
BRANCH  21  25
ATOM     25  C3  non d ame     -12.955  12.951  71.501  0.00  0.00    -0.029 C 
ATOM     26  H2  non d ame     -12.358  12.797  72.400  0.00  0.00     0.036 H 
ATOM     27  H3  non d ame     -14.000  13.090  71.779  0.00  0.00     0.036 H 
ATOM     28  H4  non d ame     -12.865  12.080  70.851  0.00  0.00     0.036 H 
ENDBRANCH  21  25
ENDBRANCH  16  19
ENDBRANCH  13  15
BRANCH  13  29
ATOM     29  C8  non d ame     -10.498  19.682  66.608  0.00  0.00    -0.049 C 
ATOM     30  H7  non d ame     -11.523  19.831  66.947  0.00  0.00     0.030 H 
ATOM     31  H8  non d ame      -9.818  20.248  67.245  0.00  0.00     0.030 H 
ATOM     32  H9  non d ame     -10.403  20.025  65.578  0.00  0.00     0.030 H 
ENDBRANCH  13  29
ENDBRANCH  10  13
ENDBRANCH   7   9
BRANCH   7  33
ATOM     33  C11 non d ame      -5.873  18.107  69.326  0.00  0.00    -0.033 C 
ATOM     34  H12 non d ame      -6.290  17.396  70.039  0.00  0.00     0.042 H 
BRANCH  33  35
ATOM     35  C12 non d ame      -4.320  17.963  69.373  0.00  0.00    -0.071 C 
ATOM     36  H13 non d ame      -3.968  17.512  68.444  0.00  0.00     0.028 H 
ATOM     37  H14 non d ame      -3.868  18.947  69.493  0.00  0.00     0.028 H 
ATOM     38  H15 non d ame      -4.040  17.328  70.213  0.00  0.00     0.028 H 
ENDBRANCH  33  35
BRANCH  33  39
ATOM     39  C13 non d ame      -6.322  19.541  69.754  0.00  0.00    -0.071 C 
ATOM     40  H16 non d ame      -6.055  19.709  70.797  0.00  0.00     0.028 H 
ATOM     41  H17 non d ame      -5.823  20.280  69.127  0.00  0.00     0.028 H 
ATOM     42  H18 non d ame      -7.402  19.633  69.635  0.00  0.00     0.028 H 
ENDBRANCH  33  39
ENDBRANCH   7  33
ENDBRANCH   4   7
ENDBRANCH   1   3
BRANCH   1  43
ATOM     43  C15 non d ame      -7.782  13.046  67.722  0.00  0.00     0.240 C 
ATOM     44  O5  non d ame      -8.777  13.344  68.300  0.00  0.00    -0.271 OA
ATOM     45  N6  non d ame      -7.811  11.952  66.711  0.00  0.00    -0.355 N 
ATOM     46  H46 non d ame      -6.973  11.693  66.210  0.00  0.00     0.162 HD
BRANCH  45  47
ATOM     47  C20 non d ame      -9.078  11.239  66.439  0.00  0.00     0.013 C 
ATOM     48  H30 non d ame      -9.893  11.836  66.847  0.00  0.00     0.072 H 
BRANCH  47  49
ATOM     49  C21 non d ame      -9.043   9.885  67.110  0.00  0.00    -0.038 C 
ATOM     50  H31 non d ame      -7.988   9.620  67.185  0.00  0.00     0.036 H 
ATOM     51  H32 non d ame      -9.646   9.988  68.012  0.00  0.00     0.036 H 
BRANCH  49  52
ATOM     52  C22 non d ame      -9.711   8.779  66.263  0.00  0.00     0.018 C 
ATOM     53  H33 non d ame     -10.780   8.858  66.463  0.00  0.00     0.048 H 
ATOM     54  H34 non d ame      -9.334   8.916  65.249  0.00  0.00     0.048 H 
BRANCH  52  55
ATOM     55  C23 non d ame      -9.303   7.339  66.680  0.00  0.00     0.259 C 
ATOM     56  O7  non d ame      -8.961   6.548  65.861  0.00  0.00    -0.265 OA
BRANCH  55  57
ATOM     57  O8  non d ame      -9.354   6.970  68.053  0.00  0.00    -0.317 OA
BRANCH  57  58
ATOM     58  C29 non d ame     -10.634   6.499  68.482  0.00  0.00     0.052 C 
ATOM     59  H47 non d ame     -11.343   6.844  67.729  0.00  0.00     0.082 H 
ATOM     60  H48 non d ame     -10.510   5.432  68.665  0.00  0.00     0.082 H 
BRANCH  58  61
ATOM     61  C35 non d ame     -10.973   7.192  69.829  0.00  0.00    -0.034 A 
ATOM     62  C30 non d ame     -10.338   8.379  70.180  0.00  0.00    -0.075 A 
ATOM     63  C31 non d ame     -10.642   9.001  71.390  0.00  0.00    -0.082 A 
ATOM     64  H49 non d ame      -9.603   8.821  69.508  0.00  0.00     0.084 H 
ATOM     65  C32 non d ame     -11.583   8.431  72.251  0.00  0.00    -0.083 A 
ATOM     66  H50 non d ame     -10.144   9.932  71.662  0.00  0.00     0.083 H 
ATOM     67  C33 non d ame     -12.212   7.245  71.897  0.00  0.00    -0.082 A 
ATOM     68  H51 non d ame     -11.827   8.911  73.199  0.00  0.00     0.083 H 
ATOM     69  C34 non d ame     -11.913   6.620  70.688  0.00  0.00    -0.075 A 
ATOM     70  H52 non d ame     -12.944   6.801  72.573  0.00  0.00     0.083 H 
ATOM     71  H53 non d ame     -12.412   5.689  70.417  0.00  0.00     0.084 H 
ENDBRANCH  58  61
ENDBRANCH  57  58
ENDBRANCH  55  57
ENDBRANCH  52  55
ENDBRANCH  49  52
ENDBRANCH  47  49
BRANCH  47  72
ATOM     72  C24 non d ame      -9.256  11.058  64.933  0.00  0.00    -0.039 C 
ATOM     73  H35 non d ame      -8.263  11.199  64.504  0.00  0.00     0.036 H 
ATOM     74  H36 non d ame      -9.770  10.104  64.814  0.00  0.00     0.036 H 
BRANCH  72  75
ATOM     75  C25 non d ame     -10.205  12.187  64.308  0.00  0.00    -0.001 C 
ATOM     76  C26 non d ame     -11.485  12.458  65.305  0.00  0.00    -0.035 C 
ATOM     77  C27 non d ame     -12.627  12.377  64.581  0.00  0.00     0.085 C 
ATOM     78  H38 non d ame     -11.579  11.642  66.022  0.00  0.00     0.036 H 
ATOM     79  H39 non d ame     -11.476  13.491  65.653  0.00  0.00     0.036 H 
ATOM     80  N5  non d ame     -12.265  11.755  63.254  0.00  0.00    -0.049 N 
ATOM     81  H40 non d ame     -13.273  11.692  65.131  0.00  0.00     0.075 H 
ATOM     82  H41 non d ame     -12.940  13.408  64.417  0.00  0.00     0.075 H 
ATOM     83  C28 non d ame     -10.656  11.832  63.151  0.00  0.00     0.193 C 
ATOM     84  H42 non d ame     -12.538  10.784  63.310  0.00  0.00     0.280 HD
ATOM     85  H43 non d ame     -12.662  12.351  62.542  0.00  0.00     0.280 HD
ATOM     86  H44 non d ame     -10.177  12.575  62.515  0.00  0.00     0.129 H 
ATOM     87  H37 non d ame      -9.644  13.060  63.973  0.00  0.00     0.046 H 
BRANCH  83  88
ATOM     88  O6  non d ame     -10.129  10.572  62.731  0.00  0.00    -0.369 OA
ATOM     89  H45 non d ame      -9.494  10.259  63.379  0.00  0.00     0.212 HD
ENDBRANCH  83  88
ENDBRANCH  72  75
ENDBRANCH  47  72
ENDBRANCH  45  47
ENDBRANCH   1  43
BRANCH   1  90
ATOM     90  C16 non d ame      -5.767  13.181  69.220  0.00  0.00    -0.035 C 
ATOM     91  H21 non d ame      -6.550  12.647  69.758  0.00  0.00     0.037 H 
ATOM     92  H22 non d ame      -4.917  12.635  68.811  0.00  0.00     0.037 H 
BRANCH  90  93
ATOM     93  C17 non d ame      -5.179  14.227  70.220  0.00  0.00    -0.059 C 
ATOM     94  H23 non d ame      -5.600  15.200  69.967  0.00  0.00     0.038 H 
BRANCH  93  95
ATOM     95  C18 non d ame      -5.568  13.910  71.700  0.00  0.00    -0.073 C 
ATOM     96  H24 non d ame      -6.207  13.028  71.726  0.00  0.00     0.028 H 
ATOM     97  H25 non d ame      -4.664  13.722  72.280  0.00  0.00     0.028 H 
ATOM     98  H26 non d ame      -6.103  14.760  72.124  0.00  0.00     0.028 H 
ENDBRANCH  93  95
BRANCH  93  99
ATOM     99  C19 non d ame      -3.660  14.335  70.067  0.00  0.00    -0.073 C 
ATOM    100  H27 non d ame      -3.409  15.284  69.591  0.00  0.00     0.028 H 
ATOM    101  H28 non d ame      -3.192  14.287  71.051  0.00  0.00     0.028 H 
ATOM    102  H29 non d ame      -3.296  13.512  69.452  0.00  0.00     0.028 H 
ENDBRANCH  93  99
ENDBRANCH  90  93
ENDBRANCH   1  90
TORSDOF 26
ENDMDL
MODEL 11
REMARK VINA RESULT:      -6.5      1.910      2.372
REMARK  26 active torsions:
REMARK  status: ('A' for Active; 'I' for Inactive)
REMARK    1  A    between atoms: C2_2  and  C3_3 
REMARK    2  A    between atoms: C4_6  and  C5_7 
REMARK       I    between atoms: C5_7  and  N2_9 
REMARK    3  A    between atoms: N2_9  and  C6_10 
REMARK    4  A    between atoms: C6_10  and  C7_11 
REMARK    5  A    between atoms: C6_10  and  C8_13 
REMARK       I    between atoms: C7_11  and  N3_14 
REMARK    6  A    between atoms: N3_14  and  C9_15 
REMARK    7  A    between atoms: C9_15  and  C10_16 
REMARK    8  A    between atoms: C9_15  and  C11_18 
REMARK       I    between atoms: C10_16  and  N4_21 
REMARK    9  A    between atoms: C11_18  and  C12_19 
REMARK   10  A    between atoms: C11_18  and  C13_20 
REMARK   11  A    between atoms: N4_21  and  C14_22 
REMARK   12  A    between atoms: C14_22  and  C15_23 
REMARK   13  A    between atoms: C14_22  and  C16_25 
REMARK       I    between atoms: C15_23  and  N6_40 
REMARK   14  A    between atoms: C16_25  and  C17_26 
REMARK   15  A    between atoms: C17_26  and  C18_27 
REMARK   16  A    between atoms: C17_26  and  C19_28 
REMARK   17  A    between atoms: C20_29  and  C21_30 
REMARK   18  A    between atoms: C20_29  and  C24_33 
REMARK   19  A    between atoms: C20_29  and  N6_40 
REMARK   20  A    between atoms: C21_30  and  C22_31 
REMARK   21  A    between atoms: C22_31  and  C23_32 
REMARK   22  A    between atoms: C23_32  and  O8_43 
REMARK   23  A    between atoms: C24_33  and  C25_34 
REMARK   24  A    between atoms: C28_38  and  O6_39 
REMARK   25  A    between atoms: C29_42  and  O8_43 
REMARK   26  A    between atoms: C29_42  and  C35_49 
ROOT
ATOM      1  C14 non d ame      -6.478  16.290  67.611  0.00  0.00     0.089 C 
ATOM      2  H20 non d ame      -5.909  16.793  66.829  0.00  0.00     0.087 H 
ENDROOT
BRANCH   1   3
ATOM      3  N4  non d ame      -7.890  16.428  67.283  0.00  0.00    -0.346 N 
ATOM      4  C10 non d ame      -8.331  17.383  66.204  0.00  0.00     0.241 C 
ATOM      5  O4  non d ame      -7.533  18.033  65.614  0.00  0.00    -0.271 OA
ATOM      6  H19 non d ame      -8.554  15.867  67.798  0.00  0.00     0.163 HD
BRANCH   4   7
ATOM      7  C9  non d ame      -9.796  17.508  65.874  0.00  0.00     0.092 C 
ATOM      8  H11 non d ame      -9.903  17.954  64.885  0.00  0.00     0.088 H 
BRANCH   7   9
ATOM      9  N3  non d ame     -10.400  16.174  65.815  0.00  0.00    -0.346 N 
ATOM     10  C7  non d ame     -11.331  15.850  64.763  0.00  0.00     0.240 C 
ATOM     11  O3  non d ame     -11.606  16.651  63.955  0.00  0.00    -0.271 OA
ATOM     12  H10 non d ame     -10.173  15.473  66.506  0.00  0.00     0.163 HD
BRANCH  10  13
ATOM     13  C6  non d ame     -11.973  14.429  64.708  0.00  0.00     0.086 C 
ATOM     14  H6  non d ame     -12.692  14.322  63.896  0.00  0.00     0.086 H 
BRANCH  13  15
ATOM     15  N2  non d ame     -10.927  13.448  64.469  0.00  0.00    -0.343 N 
ATOM     16  C5  non d ame     -11.225  12.255  63.674  0.00  0.00     0.273 C 
ATOM     17  O2  non d ame     -12.310  12.092  63.233  0.00  0.00    -0.266 OA
ATOM     18  H5  non d ame     -10.004  13.594  64.852  0.00  0.00     0.163 HD
BRANCH  16  19
ATOM     19  C4  non d ame     -10.129  11.210  63.412  0.00  0.00     0.154 A 
ATOM     20  C1  non d ame      -9.732  10.139  64.274  0.00  0.00    -0.017 A 
ATOM     21  C2  non d ame      -8.696   9.477  63.577  0.00  0.00     0.077 A 
ATOM     22  H1  non d ame     -10.134   9.881  65.254  0.00  0.00     0.091 H 
ATOM     23  O1  non d ame      -8.527  10.102  62.449  0.00  0.00    -0.218 OA
ATOM     24  N1  non d ame      -9.351  11.117  62.330  0.00  0.00    -0.123 NA
BRANCH  21  25
ATOM     25  C3  non d ame      -7.922   8.257  64.059  0.00  0.00    -0.029 C 
ATOM     26  H2  non d ame      -8.092   8.117  65.127  0.00  0.00     0.036 H 
ATOM     27  H3  non d ame      -8.263   7.374  63.518  0.00  0.00     0.036 H 
ATOM     28  H4  non d ame      -6.858   8.406  63.877  0.00  0.00     0.036 H 
ENDBRANCH  21  25
ENDBRANCH  16  19
ENDBRANCH  13  15
BRANCH  13  29
ATOM     29  C8  non d ame     -12.666  14.137  66.014  0.00  0.00    -0.049 C 
ATOM     30  H7  non d ame     -12.653  15.029  66.640  0.00  0.00     0.030 H 
ATOM     31  H8  non d ame     -13.698  13.844  65.820  0.00  0.00     0.030 H 
ATOM     32  H9  non d ame     -12.148  13.327  66.527  0.00  0.00     0.030 H 
ENDBRANCH  13  29
ENDBRANCH  10  13
ENDBRANCH   7   9
BRANCH   7  33
ATOM     33  C11 non d ame     -10.506  18.348  66.975  0.00  0.00    -0.033 C 
ATOM     34  H12 non d ame     -11.576  18.319  66.772  0.00  0.00     0.042 H 
BRANCH  33  35
ATOM     35  C12 non d ame     -10.280  17.735  68.392  0.00  0.00    -0.071 C 
ATOM     36  H13 non d ame      -9.277  17.984  68.740  0.00  0.00     0.028 H 
ATOM     37  H14 non d ame     -11.016  18.141  69.085  0.00  0.00     0.028 H 
ATOM     38  H15 non d ame     -10.388  16.652  68.340  0.00  0.00     0.028 H 
ENDBRANCH  33  35
BRANCH  33  39
ATOM     39  C13 non d ame     -10.045  19.841  66.925  0.00  0.00    -0.071 C 
ATOM     40  H16 non d ame      -9.925  20.219  67.939  0.00  0.00     0.028 H 
ATOM     41  H17 non d ame      -9.094  19.910  66.396  0.00  0.00     0.028 H 
ATOM     42  H18 non d ame     -10.795  20.434  66.402  0.00  0.00     0.028 H 
ENDBRANCH  33  39
ENDBRANCH   7  33
ENDBRANCH   4   7
ENDBRANCH   1   3
BRANCH   1  43
ATOM     43  C15 non d ame      -6.137  14.776  67.704  0.00  0.00     0.240 C 
ATOM     44  O5  non d ame      -5.008  14.417  67.600  0.00  0.00    -0.271 OA
ATOM     45  N6  non d ame      -7.216  13.773  67.933  0.00  0.00    -0.355 N 
ATOM     46  H46 non d ame      -8.177  14.066  68.028  0.00  0.00     0.162 HD
BRANCH  45  47
ATOM     47  C20 non d ame      -6.874  12.336  68.021  0.00  0.00     0.013 C 
ATOM     48  H30 non d ame      -5.914  12.189  67.526  0.00  0.00     0.072 H 
BRANCH  47  49
ATOM     49  C21 non d ame      -7.943  11.525  67.325  0.00  0.00    -0.038 C 
ATOM     50  H31 non d ame      -7.551  11.311  66.330  0.00  0.00     0.036 H 
ATOM     51  H32 non d ame      -8.182  10.707  68.005  0.00  0.00     0.036 H 
BRANCH  49  52
ATOM     52  C22 non d ame      -9.254  12.315  67.115  0.00  0.00     0.018 C 
ATOM     53  H33 non d ame      -9.122  13.254  67.654  0.00  0.00     0.048 H 
ATOM     54  H34 non d ame      -9.425  12.324  66.039  0.00  0.00     0.048 H 
BRANCH  52  55
ATOM     55  C23 non d ame     -10.502  11.633  67.741  0.00  0.00     0.259 C 
ATOM     56  O7  non d ame     -11.445  11.368  67.069  0.00  0.00    -0.265 OA
BRANCH  55  57
ATOM     57  O8  non d ame     -10.512  11.341  69.133  0.00  0.00    -0.317 OA
BRANCH  57  58
ATOM     58  C29 non d ame     -11.817  11.345  69.720  0.00  0.00     0.052 C 
ATOM     59  H47 non d ame     -11.892  12.287  70.265  0.00  0.00     0.082 H 
ATOM     60  H48 non d ame     -12.507  11.131  68.905  0.00  0.00     0.082 H 
BRANCH  58  61
ATOM     61  C35 non d ame     -11.886  10.180  70.742  0.00  0.00    -0.034 A 
ATOM     62  C30 non d ame     -10.736   9.466  71.064  0.00  0.00    -0.075 A 
ATOM     63  C31 non d ame     -10.798   8.419  71.982  0.00  0.00    -0.082 A 
ATOM     64  H49 non d ame      -9.786   9.728  70.598  0.00  0.00     0.084 H 
ATOM     65  C32 non d ame     -12.017   8.084  72.577  0.00  0.00    -0.083 A 
ATOM     66  H50 non d ame      -9.895   7.863  72.234  0.00  0.00     0.083 H 
ATOM     67  C33 non d ame     -13.163   8.797  72.250  0.00  0.00    -0.082 A 
ATOM     68  H51 non d ame     -12.075   7.267  73.296  0.00  0.00     0.083 H 
ATOM     69  C34 non d ame     -13.105   9.845  71.335  0.00  0.00    -0.075 A 
ATOM     70  H52 non d ame     -14.113   8.531  72.714  0.00  0.00     0.083 H 
ATOM     71  H53 non d ame     -14.009  10.401  71.084  0.00  0.00     0.084 H 
ENDBRANCH  58  61
ENDBRANCH  57  58
ENDBRANCH  55  57
ENDBRANCH  52  55
ENDBRANCH  49  52
ENDBRANCH  47  49
BRANCH  47  72
ATOM     72  C24 non d ame      -6.787  11.915  69.486  0.00  0.00    -0.039 C 
ATOM     73  H35 non d ame      -6.679  12.842  70.049  0.00  0.00     0.036 H 
ATOM     74  H36 non d ame      -7.651  11.273  69.655  0.00  0.00     0.036 H 
BRANCH  72  75
ATOM     75  C25 non d ame      -5.480  11.034  69.772  0.00  0.00    -0.001 C 
ATOM     76  C26 non d ame      -4.748  10.641  68.353  0.00  0.00    -0.035 C 
ATOM     77  C27 non d ame      -4.538   9.303  68.327  0.00  0.00     0.085 C 
ATOM     78  H38 non d ame      -5.431  10.808  67.521  0.00  0.00     0.036 H 
ATOM     79  H39 non d ame      -3.741  11.057  68.325  0.00  0.00     0.036 H 
ATOM     80  N5  non d ame      -5.352   8.706  69.449  0.00  0.00    -0.049 N 
ATOM     81  H40 non d ame      -4.944   8.963  67.373  0.00  0.00     0.075 H 
ATOM     82  H41 non d ame      -3.479   9.169  68.547  0.00  0.00     0.075 H 
ATOM     83  C28 non d ame      -5.779   9.942  70.394  0.00  0.00     0.193 C 
ATOM     84  H42 non d ame      -6.185   8.322  69.025  0.00  0.00     0.280 HD
ATOM     85  H43 non d ame      -4.727   8.105  69.968  0.00  0.00     0.280 HD
ATOM     86  H44 non d ame      -5.275  10.112  71.346  0.00  0.00     0.129 H 
ATOM     87  H37 non d ame      -4.852  11.467  70.551  0.00  0.00     0.046 H 
BRANCH  83  88
ATOM     88  O6  non d ame      -7.171   9.865  70.709  0.00  0.00    -0.369 OA
ATOM     89  H45 non d ame      -7.686   9.947  69.903  0.00  0.00     0.212 HD
ENDBRANCH  83  88
ENDBRANCH  72  75
ENDBRANCH  47  72
ENDBRANCH  45  47
ENDBRANCH   1  43
BRANCH   1  90
ATOM     90  C16 non d ame      -6.213  16.958  68.951  0.00  0.00    -0.035 C 
ATOM     91  H21 non d ame      -7.178  16.980  69.459  0.00  0.00     0.037 H 
ATOM     92  H22 non d ame      -5.380  16.407  69.388  0.00  0.00     0.037 H 
BRANCH  90  93
ATOM     93  C17 non d ame      -5.744  18.443  68.830  0.00  0.00    -0.059 C 
ATOM     94  H23 non d ame      -5.344  18.582  67.825  0.00  0.00     0.038 H 
BRANCH  93  95
ATOM     95  C18 non d ame      -6.924  19.450  69.017  0.00  0.00    -0.073 C 
ATOM     96  H24 non d ame      -6.889  19.867  70.023  0.00  0.00     0.028 H 
ATOM     97  H25 non d ame      -6.833  20.255  68.287  0.00  0.00     0.028 H 
ATOM     98  H26 non d ame      -7.871  18.932  68.870  0.00  0.00     0.028 H 
ENDBRANCH  93  95
BRANCH  93  99
ATOM     99  C19 non d ame      -4.612  18.741  69.816  0.00  0.00    -0.073 C 
ATOM    100  H27 non d ame      -3.652  18.550  69.335  0.00  0.00     0.028 H 
ATOM    101  H28 non d ame      -4.663  19.786  70.122  0.00  0.00     0.028 H 
ATOM    102  H29 non d ame      -4.714  18.100  70.691  0.00  0.00     0.028 H 
ENDBRANCH  93  99
ENDBRANCH  90  93
ENDBRANCH   1  90
TORSDOF 26
ENDMDL
MODEL 12
REMARK VINA RESULT:      -6.4      2.755      8.074
REMARK  26 active torsions:
REMARK  status: ('A' for Active; 'I' for Inactive)
REMARK    1  A    between atoms: C2_2  and  C3_3 
REMARK    2  A    between atoms: C4_6  and  C5_7 
REMARK       I    between atoms: C5_7  and  N2_9 
REMARK    3  A    between atoms: N2_9  and  C6_10 
REMARK    4  A    between atoms: C6_10  and  C7_11 
REMARK    5  A    between atoms: C6_10  and  C8_13 
REMARK       I    between atoms: C7_11  and  N3_14 
REMARK    6  A    between atoms: N3_14  and  C9_15 
REMARK    7  A    between atoms: C9_15  and  C10_16 
REMARK    8  A    between atoms: C9_15  and  C11_18 
REMARK       I    between atoms: C10_16  and  N4_21 
REMARK    9  A    between atoms: C11_18  and  C12_19 
REMARK   10  A    between atoms: C11_18  and  C13_20 
REMARK   11  A    between atoms: N4_21  and  C14_22 
REMARK   12  A    between atoms: C14_22  and  C15_23 
REMARK   13  A    between atoms: C14_22  and  C16_25 
REMARK       I    between atoms: C15_23  and  N6_40 
REMARK   14  A    between atoms: C16_25  and  C17_26 
REMARK   15  A    between atoms: C17_26  and  C18_27 
REMARK   16  A    between atoms: C17_26  and  C19_28 
REMARK   17  A    between atoms: C20_29  and  C21_30 
REMARK   18  A    between atoms: C20_29  and  C24_33 
REMARK   19  A    between atoms: C20_29  and  N6_40 
REMARK   20  A    between atoms: C21_30  and  C22_31 
REMARK   21  A    between atoms: C22_31  and  C23_32 
REMARK   22  A    between atoms: C23_32  and  O8_43 
REMARK   23  A    between atoms: C24_33  and  C25_34 
REMARK   24  A    between atoms: C28_38  and  O6_39 
REMARK   25  A    between atoms: C29_42  and  O8_43 
REMARK   26  A    between atoms: C29_42  and  C35_49 
ROOT
ATOM      1  C14 non d ame      -9.647  11.171  68.146  0.00  0.00     0.089 C 
ATOM      2  H20 non d ame      -9.406  11.137  67.083  0.00  0.00     0.087 H 
ENDROOT
BRANCH   1   3
ATOM      3  N4  non d ame      -8.539  11.826  68.825  0.00  0.00    -0.346 N 
ATOM      4  C10 non d ame      -7.252  12.105  68.089  0.00  0.00     0.241 C 
ATOM      5  O4  non d ame      -7.131  11.790  66.951  0.00  0.00    -0.271 OA
ATOM      6  H19 non d ame      -8.661  12.084  69.794  0.00  0.00     0.163 HD
BRANCH   4   7
ATOM      7  C9  non d ame      -6.118  12.790  68.805  0.00  0.00     0.092 C 
ATOM      8  H11 non d ame      -5.208  12.688  68.215  0.00  0.00     0.088 H 
BRANCH   7   9
ATOM      9  N3  non d ame      -6.404  14.223  68.918  0.00  0.00    -0.346 N 
ATOM     10  C7  non d ame      -5.673  15.169  68.110  0.00  0.00     0.240 C 
ATOM     11  O3  non d ame      -4.851  14.794  67.367  0.00  0.00    -0.271 OA
ATOM     12  H10 non d ame      -7.110  14.561  69.556  0.00  0.00     0.163 HD
BRANCH  10  13
ATOM     13  C6  non d ame      -5.980  16.694  68.237  0.00  0.00     0.086 C 
ATOM     14  H6  non d ame      -5.195  17.240  68.758  0.00  0.00     0.086 H 
BRANCH  13  15
ATOM     15  N2  non d ame      -6.073  17.268  66.905  0.00  0.00    -0.343 N 
ATOM     16  C5  non d ame      -5.734  18.678  66.702  0.00  0.00     0.273 C 
ATOM     17  O2  non d ame      -5.390  19.342  67.617  0.00  0.00    -0.266 OA
ATOM     18  H5  non d ame      -6.370  16.693  66.129  0.00  0.00     0.163 HD
BRANCH  16  19
ATOM     19  C4  non d ame      -5.826  19.297  65.298  0.00  0.00     0.154 A 
ATOM     20  C1  non d ame      -5.221  18.810  64.096  0.00  0.00    -0.017 A 
ATOM     21  C2  non d ame      -5.608  19.729  63.096  0.00  0.00     0.077 A 
ATOM     22  H1  non d ame      -4.598  17.925  63.970  0.00  0.00     0.091 H 
ATOM     23  O1  non d ame      -6.349  20.634  63.667  0.00  0.00    -0.218 OA
ATOM     24  N1  non d ame      -6.490  20.403  64.952  0.00  0.00    -0.123 NA
BRANCH  21  25
ATOM     25  C3  non d ame      -5.229  19.671  61.622  0.00  0.00    -0.029 C 
ATOM     26  H2  non d ame      -4.258  19.186  61.516  0.00  0.00     0.036 H 
ATOM     27  H3  non d ame      -5.981  19.101  61.076  0.00  0.00     0.036 H 
ATOM     28  H4  non d ame      -5.176  20.683  61.220  0.00  0.00     0.036 H 
ENDBRANCH  21  25
ENDBRANCH  16  19
ENDBRANCH  13  15
BRANCH  13  29
ATOM     29  C8  non d ame      -7.281  16.888  68.974  0.00  0.00    -0.049 C 
ATOM     30  H7  non d ame      -8.082  16.376  68.441  0.00  0.00     0.030 H 
ATOM     31  H8  non d ame      -7.193  16.476  69.980  0.00  0.00     0.030 H 
ATOM     32  H9  non d ame      -7.508  17.952  69.036  0.00  0.00     0.030 H 
ENDBRANCH  13  29
ENDBRANCH  10  13
ENDBRANCH   7   9
BRANCH   7  33
ATOM     33  C11 non d ame      -5.963  12.181  70.230  0.00  0.00    -0.033 C 
ATOM     34  H12 non d ame      -6.955  12.138  70.679  0.00  0.00     0.042 H 
BRANCH  33  35
ATOM     35  C12 non d ame      -5.412  10.722  70.168  0.00  0.00    -0.071 C 
ATOM     36  H13 non d ame      -4.861  10.503  71.083  0.00  0.00     0.028 H 
ATOM     37  H14 non d ame      -6.243  10.025  70.069  0.00  0.00     0.028 H 
ATOM     38  H15 non d ame      -4.747  10.621  69.311  0.00  0.00     0.028 H 
ENDBRANCH  33  35
BRANCH  33  39
ATOM     39  C13 non d ame      -5.064  13.088  71.130  0.00  0.00    -0.071 C 
ATOM     40  H16 non d ame      -4.078  12.635  71.233  0.00  0.00     0.028 H 
ATOM     41  H17 non d ame      -4.965  14.073  70.671  0.00  0.00     0.028 H 
ATOM     42  H18 non d ame      -5.521  13.190  72.114  0.00  0.00     0.028 H 
ENDBRANCH  33  39
ENDBRANCH   7  33
ENDBRANCH   4   7
ENDBRANCH   1   3
BRANCH   1  43
ATOM     43  C15 non d ame     -10.947  11.976  68.429  0.00  0.00     0.240 C 
ATOM     44  O5  non d ame     -11.985  11.595  67.992  0.00  0.00    -0.271 OA
ATOM     45  N6  non d ame     -10.900  13.219  69.251  0.00  0.00    -0.355 N 
ATOM     46  H46 non d ame     -10.025  13.549  69.632  0.00  0.00     0.162 HD
BRANCH  45  47
ATOM     47  C20 non d ame     -12.145  13.972  69.513  0.00  0.00     0.013 C 
ATOM     48  H30 non d ame     -12.956  13.476  68.979  0.00  0.00     0.072 H 
BRANCH  47  49
ATOM     49  C21 non d ame     -11.987  15.389  69.009  0.00  0.00    -0.038 C 
ATOM     50  H31 non d ame     -12.621  15.461  68.126  0.00  0.00     0.036 H 
ATOM     51  H32 non d ame     -12.176  16.030  69.871  0.00  0.00     0.036 H 
BRANCH  49  52
ATOM     52  C22 non d ame     -10.549  15.701  68.541  0.00  0.00     0.018 C 
ATOM     53  H33 non d ame     -10.113  16.327  69.320  0.00  0.00     0.048 H 
ATOM     54  H34 non d ame     -10.100  14.737  68.302  0.00  0.00     0.048 H 
BRANCH  52  55
ATOM     55  C23 non d ame     -10.484  16.538  67.233  0.00  0.00     0.259 C 
ATOM     56  O7  non d ame     -10.481  17.726  67.276  0.00  0.00    -0.265 OA
BRANCH  55  57
ATOM     57  O8  non d ame     -10.441  15.869  65.979  0.00  0.00    -0.317 OA
BRANCH  57  58
ATOM     58  C29 non d ame      -9.772  14.605  66.015  0.00  0.00     0.052 C 
ATOM     59  H47 non d ame      -8.815  14.764  65.519  0.00  0.00     0.082 H 
ATOM     60  H48 non d ame      -9.799  14.287  67.057  0.00  0.00     0.082 H 
BRANCH  58  61
ATOM     61  C35 non d ame     -10.601  13.599  65.173  0.00  0.00    -0.034 A 
ATOM     62  C30 non d ame      -9.956  12.688  64.343  0.00  0.00    -0.075 A 
ATOM     63  C31 non d ame     -10.700  11.785  63.586  0.00  0.00    -0.082 A 
ATOM     64  H49 non d ame      -8.867  12.682  64.286  0.00  0.00     0.084 H 
ATOM     65  C32 non d ame     -12.096  11.796  63.660  0.00  0.00    -0.083 A 
ATOM     66  H50 non d ame     -10.192  11.070  62.938  0.00  0.00     0.083 H 
ATOM     67  C33 non d ame     -12.735  12.710  64.487  0.00  0.00    -0.082 A 
ATOM     68  H51 non d ame     -12.686  11.093  63.072  0.00  0.00     0.083 H 
ATOM     69  C34 non d ame     -11.995  13.613  65.247  0.00  0.00    -0.075 A 
ATOM     70  H52 non d ame     -13.824  12.718  64.541  0.00  0.00     0.083 H 
ATOM     71  H53 non d ame     -12.505  14.326  65.895  0.00  0.00     0.084 H 
ENDBRANCH  58  61
ENDBRANCH  57  58
ENDBRANCH  55  57
ENDBRANCH  52  55
ENDBRANCH  49  52
ENDBRANCH  47  49
BRANCH  47  72
ATOM     72  C24 non d ame     -12.431  13.993  71.013  0.00  0.00    -0.039 C 
ATOM     73  H35 non d ame     -13.269  13.310  71.158  0.00  0.00     0.036 H 
ATOM     74  H36 non d ame     -11.474  13.791  71.494  0.00  0.00     0.036 H 
BRANCH  72  75
ATOM     75  C25 non d ame     -12.912  15.440  71.505  0.00  0.00    -0.001 C 
ATOM     76  C26 non d ame     -11.769  16.107  72.481  0.00  0.00    -0.035 C 
ATOM     77  C27 non d ame     -12.361  16.520  73.627  0.00  0.00     0.085 C 
ATOM     78  H38 non d ame     -11.071  15.341  72.817  0.00  0.00     0.036 H 
ATOM     79  H39 non d ame     -11.394  17.031  72.041  0.00  0.00     0.036 H 
ATOM     80  N5  non d ame     -13.738  15.902  73.659  0.00  0.00    -0.049 N 
ATOM     81  H40 non d ame     -11.762  16.096  74.434  0.00  0.00     0.075 H 
ATOM     82  H41 non d ame     -12.459  17.601  73.531  0.00  0.00     0.075 H 
ATOM     83  C28 non d ame     -14.020  15.366  72.163  0.00  0.00     0.193 C 
ATOM     84  H42 non d ame     -13.681  15.108  74.280  0.00  0.00     0.280 HD
ATOM     85  H43 non d ame     -14.384  16.653  73.858  0.00  0.00     0.280 HD
ATOM     86  H44 non d ame     -14.684  15.914  71.495  0.00  0.00     0.129 H 
ATOM     87  H37 non d ame     -13.281  16.054  70.683  0.00  0.00     0.046 H 
BRANCH  83  88
ATOM     88  O6  non d ame     -14.534  14.034  72.206  0.00  0.00    -0.369 OA
ATOM     89  H45 non d ame     -14.653  13.766  73.119  0.00  0.00     0.212 HD
ENDBRANCH  83  88
ENDBRANCH  72  75
ENDBRANCH  47  72
ENDBRANCH  45  47
ENDBRANCH   1  43
BRANCH   1  90
ATOM     90  C16 non d ame      -9.793   9.757  68.686  0.00  0.00    -0.035 C 
ATOM     91  H21 non d ame     -10.774   9.420  68.350  0.00  0.00     0.037 H 
ATOM     92  H22 non d ame      -8.895   9.230  68.362  0.00  0.00     0.037 H 
BRANCH  90  93
ATOM     93  C17 non d ame      -9.811   9.681  70.246  0.00  0.00    -0.059 C 
ATOM     94  H23 non d ame      -9.615  10.683  70.628  0.00  0.00     0.038 H 
BRANCH  93  95
ATOM     95  C18 non d ame     -11.199   9.224  70.798  0.00  0.00    -0.073 C 
ATOM     96  H24 non d ame     -11.061   8.716  71.752  0.00  0.00     0.028 H 
ATOM     97  H25 non d ame     -11.839  10.095  70.938  0.00  0.00     0.028 H 
ATOM     98  H26 non d ame     -11.665   8.541  70.087  0.00  0.00     0.028 H 
ENDBRANCH  93  95
BRANCH  93  99
ATOM     99  C19 non d ame      -8.693   8.772  70.762  0.00  0.00    -0.073 C 
ATOM    100  H27 non d ame      -9.129   7.912  71.271  0.00  0.00     0.028 H 
ATOM    101  H28 non d ame      -8.088   8.428  69.922  0.00  0.00     0.028 H 
ATOM    102  H29 non d ame      -8.065   9.327  71.458  0.00  0.00     0.028 H 
ENDBRANCH  93  99
ENDBRANCH  90  93
ENDBRANCH   1  90
TORSDOF 26
ENDMDL
MODEL 13
REMARK VINA RESULT:      -6.4      2.432      7.853
REMARK  26 active torsions:
REMARK  status: ('A' for Active; 'I' for Inactive)
REMARK    1  A    between atoms: C2_2  and  C3_3 
REMARK    2  A    between atoms: C4_6  and  C5_7 
REMARK       I    between atoms: C5_7  and  N2_9 
REMARK    3  A    between atoms: N2_9  and  C6_10 
REMARK    4  A    between atoms: C6_10  and  C7_11 
REMARK    5  A    between atoms: C6_10  and  C8_13 
REMARK       I    between atoms: C7_11  and  N3_14 
REMARK    6  A    between atoms: N3_14  and  C9_15 
REMARK    7  A    between atoms: C9_15  and  C10_16 
REMARK    8  A    between atoms: C9_15  and  C11_18 
REMARK       I    between atoms: C10_16  and  N4_21 
REMARK    9  A    between atoms: C11_18  and  C12_19 
REMARK   10  A    between atoms: C11_18  and  C13_20 
REMARK   11  A    between atoms: N4_21  and  C14_22 
REMARK   12  A    between atoms: C14_22  and  C15_23 
REMARK   13  A    between atoms: C14_22  and  C16_25 
REMARK       I    between atoms: C15_23  and  N6_40 
REMARK   14  A    between atoms: C16_25  and  C17_26 
REMARK   15  A    between atoms: C17_26  and  C18_27 
REMARK   16  A    between atoms: C17_26  and  C19_28 
REMARK   17  A    between atoms: C20_29  and  C21_30 
REMARK   18  A    between atoms: C20_29  and  C24_33 
REMARK   19  A    between atoms: C20_29  and  N6_40 
REMARK   20  A    between atoms: C21_30  and  C22_31 
REMARK   21  A    between atoms: C22_31  and  C23_32 
REMARK   22  A    between atoms: C23_32  and  O8_43 
REMARK   23  A    between atoms: C24_33  and  C25_34 
REMARK   24  A    between atoms: C28_38  and  O6_39 
REMARK   25  A    between atoms: C29_42  and  O8_43 
REMARK   26  A    between atoms: C29_42  and  C35_49 
ROOT
ATOM      1  C14 non d ame      -6.603  13.673  67.922  0.00  0.00     0.089 C 
ATOM      2  H20 non d ame      -5.874  13.692  67.111  0.00  0.00     0.087 H 
ENDROOT
BRANCH   1   3
ATOM      3  N4  non d ame      -6.900  15.054  68.275  0.00  0.00    -0.346 N 
ATOM      4  C10 non d ame      -6.080  16.181  67.700  0.00  0.00     0.241 C 
ATOM      5  O4  non d ame      -5.183  15.952  66.957  0.00  0.00    -0.271 OA
ATOM      6  H19 non d ame      -7.665  15.227  68.911  0.00  0.00     0.163 HD
BRANCH   4   7
ATOM      7  C9  non d ame      -6.405  17.603  68.072  0.00  0.00     0.092 C 
ATOM      8  H11 non d ame      -6.040  18.271  67.291  0.00  0.00     0.088 H 
BRANCH   7   9
ATOM      9  N3  non d ame      -7.860  17.771  68.140  0.00  0.00    -0.346 N 
ATOM     10  C7  non d ame      -8.628  17.891  66.925  0.00  0.00     0.240 C 
ATOM     11  O3  non d ame      -8.092  17.857  65.885  0.00  0.00    -0.271 OA
ATOM     12  H10 non d ame      -8.336  17.804  69.030  0.00  0.00     0.163 HD
BRANCH  10  13
ATOM     13  C6  non d ame     -10.176  18.072  67.004  0.00  0.00     0.086 C 
ATOM     14  H6  non d ame     -10.707  17.503  66.241  0.00  0.00     0.086 H 
BRANCH  13  15
ATOM     15  N2  non d ame     -10.644  17.581  68.289  0.00  0.00    -0.343 N 
ATOM     16  C5  non d ame     -11.224  16.240  68.381  0.00  0.00     0.273 C 
ATOM     17  O2  non d ame     -11.314  15.565  67.415  0.00  0.00    -0.266 OA
ATOM     18  H5  non d ame     -10.566  18.166  69.110  0.00  0.00     0.163 HD
BRANCH  16  19
ATOM     19  C4  non d ame     -11.721  15.707  69.734  0.00  0.00     0.154 A 
ATOM     20  C1  non d ame     -12.392  14.468  69.982  0.00  0.00    -0.017 A 
ATOM     21  C2  non d ame     -12.631  14.456  71.375  0.00  0.00     0.077 A 
ATOM     22  H1  non d ame     -12.665  13.696  69.262  0.00  0.00     0.091 H 
ATOM     23  O1  non d ame     -12.148  15.562  71.860  0.00  0.00    -0.218 OA
ATOM     24  N1  non d ame     -11.612  16.309  70.922  0.00  0.00    -0.123 NA
BRANCH  21  25
ATOM     25  C3  non d ame     -13.324  13.351  72.161  0.00  0.00    -0.029 C 
ATOM     26  H2  non d ame     -12.624  12.921  72.879  0.00  0.00     0.036 H 
ATOM     27  H3  non d ame     -14.180  13.766  72.692  0.00  0.00     0.036 H 
ATOM     28  H4  non d ame     -13.663  12.574  71.475  0.00  0.00     0.036 H 
ENDBRANCH  21  25
ENDBRANCH  16  19
ENDBRANCH  13  15
BRANCH  13  29
ATOM     29  C8  non d ame     -10.523  19.532  66.851  0.00  0.00    -0.049 C 
ATOM     30  H7  non d ame     -11.214  19.826  67.641  0.00  0.00     0.030 H 
ATOM     31  H8  non d ame      -9.614  20.130  66.922  0.00  0.00     0.030 H 
ATOM     32  H9  non d ame     -10.991  19.694  65.881  0.00  0.00     0.030 H 
ENDBRANCH  13  29
ENDBRANCH  10  13
ENDBRANCH   7   9
BRANCH   7  33
ATOM     33  C11 non d ame      -5.783  17.932  69.460  0.00  0.00    -0.033 C 
ATOM     34  H12 non d ame      -6.224  17.250  70.188  0.00  0.00     0.042 H 
BRANCH  33  35
ATOM     35  C12 non d ame      -4.241  17.688  69.464  0.00  0.00    -0.071 C 
ATOM     36  H13 non d ame      -4.005  16.842  68.819  0.00  0.00     0.028 H 
ATOM     37  H14 non d ame      -3.732  18.579  69.095  0.00  0.00     0.028 H 
ATOM     38  H15 non d ame      -3.910  17.475  70.480  0.00  0.00     0.028 H 
ENDBRANCH  33  35
BRANCH  33  39
ATOM     39  C13 non d ame      -6.127  19.392  69.897  0.00  0.00    -0.071 C 
ATOM     40  H16 non d ame      -7.044  19.389  70.485  0.00  0.00     0.028 H 
ATOM     41  H17 non d ame      -5.310  19.794  70.498  0.00  0.00     0.028 H 
ATOM     42  H18 non d ame      -6.265  20.012  69.011  0.00  0.00     0.028 H 
ENDBRANCH  33  39
ENDBRANCH   7  33
ENDBRANCH   4   7
ENDBRANCH   1   3
BRANCH   1  43
ATOM     43  C15 non d ame      -7.927  12.972  67.505  0.00  0.00     0.240 C 
ATOM     44  O5  non d ame      -8.969  13.404  67.883  0.00  0.00    -0.271 OA
ATOM     45  N6  non d ame      -7.898  11.767  66.628  0.00  0.00    -0.355 N 
ATOM     46  H46 non d ame      -7.020  11.394  66.298  0.00  0.00     0.162 HD
BRANCH  45  47
ATOM     47  C20 non d ame      -9.167  11.113  66.240  0.00  0.00     0.013 C 
ATOM     48  H30 non d ame      -9.979  11.623  66.757  0.00  0.00     0.072 H 
BRANCH  47  49
ATOM     49  C21 non d ame      -9.125   9.659  66.651  0.00  0.00    -0.038 C 
ATOM     50  H31 non d ame      -8.190   9.534  67.198  0.00  0.00     0.036 H 
ATOM     51  H32 non d ame     -10.077   9.465  67.145  0.00  0.00     0.036 H 
BRANCH  49  52
ATOM     52  C22 non d ame      -9.056   8.697  65.444  0.00  0.00     0.018 C 
ATOM     53  H33 non d ame      -9.614   7.809  65.743  0.00  0.00     0.048 H 
ATOM     54  H34 non d ame      -9.382   9.280  64.583  0.00  0.00     0.048 H 
BRANCH  52  55
ATOM     55  C23 non d ame      -7.619   8.209  65.113  0.00  0.00     0.259 C 
ATOM     56  O7  non d ame      -6.890   8.882  64.458  0.00  0.00    -0.265 OA
BRANCH  55  57
ATOM     57  O8  non d ame      -7.185   6.942  65.591  0.00  0.00    -0.317 OA
BRANCH  57  58
ATOM     58  C29 non d ame      -6.885   6.001  64.556  0.00  0.00     0.052 C 
ATOM     59  H47 non d ame      -6.627   6.598  63.681  0.00  0.00     0.082 H 
ATOM     60  H48 non d ame      -6.153   5.316  64.983  0.00  0.00     0.082 H 
BRANCH  58  61
ATOM     61  C35 non d ame      -8.179   5.203  64.243  0.00  0.00    -0.034 A 
ATOM     62  C30 non d ame      -8.947   4.687  65.282  0.00  0.00    -0.075 A 
ATOM     63  C31 non d ame     -10.110   3.971  65.001  0.00  0.00    -0.082 A 
ATOM     64  H49 non d ame      -8.639   4.845  66.315  0.00  0.00     0.084 H 
ATOM     65  C32 non d ame     -10.502   3.769  63.675  0.00  0.00    -0.083 A 
ATOM     66  H50 non d ame     -10.711   3.570  65.817  0.00  0.00     0.083 H 
ATOM     67  C33 non d ame      -9.730   4.283  62.642  0.00  0.00    -0.082 A 
ATOM     68  H51 non d ame     -11.409   3.210  63.446  0.00  0.00     0.083 H 
ATOM     69  C34 non d ame      -8.569   5.001  62.918  0.00  0.00    -0.075 A 
ATOM     70  H52 non d ame     -10.037   4.121  61.608  0.00  0.00     0.083 H 
ATOM     71  H53 non d ame      -7.968   5.403  62.101  0.00  0.00     0.084 H 
ENDBRANCH  58  61
ENDBRANCH  57  58
ENDBRANCH  55  57
ENDBRANCH  52  55
ENDBRANCH  49  52
ENDBRANCH  47  49
BRANCH  47  72
ATOM     72  C24 non d ame      -9.356  11.211  64.728  0.00  0.00    -0.039 C 
ATOM     73  H35 non d ame      -8.372  11.455  64.327  0.00  0.00     0.036 H 
ATOM     74  H36 non d ame      -9.848  10.282  64.436  0.00  0.00     0.036 H 
BRANCH  72  75
ATOM     75  C25 non d ame     -10.340  12.411  64.330  0.00  0.00    -0.001 C 
ATOM     76  C26 non d ame     -11.493  12.597  65.488  0.00  0.00    -0.035 C 
ATOM     77  C27 non d ame     -12.710  12.607  64.893  0.00  0.00     0.085 C 
ATOM     78  H38 non d ame     -11.528  11.715  66.125  0.00  0.00     0.036 H 
ATOM     79  H39 non d ame     -11.419  13.590  65.933  0.00  0.00     0.036 H 
ATOM     80  N5  non d ame     -12.515  12.118  63.479  0.00  0.00    -0.049 N 
ATOM     81  H40 non d ame     -13.308  11.879  65.442  0.00  0.00     0.075 H 
ATOM     82  H41 non d ame     -13.013  13.654  64.869  0.00  0.00     0.075 H 
ATOM     83  C28 non d ame     -10.925  12.182  63.202  0.00  0.00     0.193 C 
ATOM     84  H42 non d ame     -12.805  11.151  63.467  0.00  0.00     0.280 HD
ATOM     85  H43 non d ame     -12.972  12.790  62.878  0.00  0.00     0.280 HD
ATOM     86  H44 non d ame     -10.501  12.980  62.592  0.00  0.00     0.129 H 
ATOM     87  H37 non d ame      -9.797  13.305  64.023  0.00  0.00     0.046 H 
BRANCH  83  88
ATOM     88  O6  non d ame     -10.481  10.964  62.602  0.00  0.00    -0.369 OA
ATOM     89  H45 non d ame     -10.173  11.141  61.710  0.00  0.00     0.212 HD
ENDBRANCH  83  88
ENDBRANCH  72  75
ENDBRANCH  47  72
ENDBRANCH  45  47
ENDBRANCH   1  43
BRANCH   1  90
ATOM     90  C16 non d ame      -6.010  12.969  69.131  0.00  0.00    -0.035 C 
ATOM     91  H21 non d ame      -6.205  13.630  69.976  0.00  0.00     0.037 H 
ATOM     92  H22 non d ame      -6.434  11.964  69.117  0.00  0.00     0.037 H 
BRANCH  90  93
ATOM     93  C17 non d ame      -4.459  12.794  69.057  0.00  0.00    -0.059 C 
ATOM     94  H23 non d ame      -4.202  11.891  69.610  0.00  0.00     0.038 H 
BRANCH  93  95
ATOM     95  C18 non d ame      -3.956  12.613  67.589  0.00  0.00    -0.073 C 
ATOM     96  H24 non d ame      -4.728  12.950  66.897  0.00  0.00     0.028 H 
ATOM     97  H25 non d ame      -3.051  13.203  67.440  0.00  0.00     0.028 H 
ATOM     98  H26 non d ame      -3.739  11.561  67.406  0.00  0.00     0.028 H 
ENDBRANCH  93  95
BRANCH  93  99
ATOM     99  C19 non d ame      -3.744  13.963  69.738  0.00  0.00    -0.073 C 
ATOM    100  H27 non d ame      -3.985  13.967  70.801  0.00  0.00     0.028 H 
ATOM    101  H28 non d ame      -2.667  13.855  69.609  0.00  0.00     0.028 H 
ATOM    102  H29 non d ame      -4.070  14.901  69.287  0.00  0.00     0.028 H 
ENDBRANCH  93  99
ENDBRANCH  90  93
ENDBRANCH   1  90
TORSDOF 26
ENDMDL
MODEL 14
REMARK VINA RESULT:      -6.4      4.012      7.488
REMARK  26 active torsions:
REMARK  status: ('A' for Active; 'I' for Inactive)
REMARK    1  A    between atoms: C2_2  and  C3_3 
REMARK    2  A    between atoms: C4_6  and  C5_7 
REMARK       I    between atoms: C5_7  and  N2_9 
REMARK    3  A    between atoms: N2_9  and  C6_10 
REMARK    4  A    between atoms: C6_10  and  C7_11 
REMARK    5  A    between atoms: C6_10  and  C8_13 
REMARK       I    between atoms: C7_11  and  N3_14 
REMARK    6  A    between atoms: N3_14  and  C9_15 
REMARK    7  A    between atoms: C9_15  and  C10_16 
REMARK    8  A    between atoms: C9_15  and  C11_18 
REMARK       I    between atoms: C10_16  and  N4_21 
REMARK    9  A    between atoms: C11_18  and  C12_19 
REMARK   10  A    between atoms: C11_18  and  C13_20 
REMARK   11  A    between atoms: N4_21  and  C14_22 
REMARK   12  A    between atoms: C14_22  and  C15_23 
REMARK   13  A    between atoms: C14_22  and  C16_25 
REMARK       I    between atoms: C15_23  and  N6_40 
REMARK   14  A    between atoms: C16_25  and  C17_26 
REMARK   15  A    between atoms: C17_26  and  C18_27 
REMARK   16  A    between atoms: C17_26  and  C19_28 
REMARK   17  A    between atoms: C20_29  and  C21_30 
REMARK   18  A    between atoms: C20_29  and  C24_33 
REMARK   19  A    between atoms: C20_29  and  N6_40 
REMARK   20  A    between atoms: C21_30  and  C22_31 
REMARK   21  A    between atoms: C22_31  and  C23_32 
REMARK   22  A    between atoms: C23_32  and  O8_43 
REMARK   23  A    between atoms: C24_33  and  C25_34 
REMARK   24  A    between atoms: C28_38  and  O6_39 
REMARK   25  A    between atoms: C29_42  and  O8_43 
REMARK   26  A    between atoms: C29_42  and  C35_49 
ROOT
ATOM      1  C14 non d ame      -8.841   6.545  67.326  0.00  0.00     0.089 C 
ATOM      2  H20 non d ame      -8.927   5.769  66.565  0.00  0.00     0.087 H 
ENDROOT
BRANCH   1   3
ATOM      3  N4  non d ame      -8.559   7.799  66.644  0.00  0.00    -0.346 N 
ATOM      4  C10 non d ame      -8.295   7.816  65.159  0.00  0.00     0.241 C 
ATOM      5  O4  non d ame      -8.311   6.806  64.535  0.00  0.00    -0.271 OA
ATOM      6  H19 non d ame      -8.548   8.647  67.193  0.00  0.00     0.163 HD
BRANCH   4   7
ATOM      7  C9  non d ame      -8.011   9.124  64.468  0.00  0.00     0.092 C 
ATOM      8  H11 non d ame      -8.141   8.997  63.393  0.00  0.00     0.088 H 
BRANCH   7   9
ATOM      9  N3  non d ame      -8.982  10.130  64.907  0.00  0.00    -0.346 N 
ATOM     10  C7  non d ame      -9.789  10.825  63.934  0.00  0.00     0.240 C 
ATOM     11  O3  non d ame      -9.667  10.589  62.794  0.00  0.00    -0.271 OA
ATOM     12  H10 non d ame      -9.097  10.346  65.887  0.00  0.00     0.163 HD
BRANCH  10  13
ATOM     13  C6  non d ame     -10.819  11.898  64.407  0.00  0.00     0.086 C 
ATOM     14  H6  non d ame     -11.280  11.647  65.362  0.00  0.00     0.086 H 
BRANCH  13  15
ATOM     15  N2  non d ame     -10.129  13.163  64.597  0.00  0.00    -0.343 N 
ATOM     16  C5  non d ame     -10.618  14.106  65.605  0.00  0.00     0.273 C 
ATOM     17  O2  non d ame     -11.569  13.840  66.255  0.00  0.00    -0.266 OA
ATOM     18  H5  non d ame      -9.318  13.383  64.036  0.00  0.00     0.163 HD
BRANCH  16  19
ATOM     19  C4  non d ame      -9.897  15.447  65.818  0.00  0.00     0.154 A 
ATOM     20  C1  non d ame      -8.602  15.650  66.392  0.00  0.00    -0.017 A 
ATOM     21  C2  non d ame      -8.406  17.049  66.360  0.00  0.00     0.077 A 
ATOM     22  H1  non d ame      -7.910  14.898  66.772  0.00  0.00     0.091 H 
ATOM     23  O1  non d ame      -9.469  17.577  65.828  0.00  0.00    -0.218 OA
ATOM     24  N1  non d ame     -10.354  16.662  65.504  0.00  0.00    -0.123 NA
BRANCH  21  25
ATOM     25  C3  non d ame      -7.177  17.799  66.856  0.00  0.00    -0.029 C 
ATOM     26  H2  non d ame      -6.431  17.840  66.063  0.00  0.00     0.036 H 
ATOM     27  H3  non d ame      -7.460  18.812  67.142  0.00  0.00     0.036 H 
ATOM     28  H4  non d ame      -6.759  17.281  67.721  0.00  0.00     0.036 H 
ENDBRANCH  21  25
ENDBRANCH  16  19
ENDBRANCH  13  15
BRANCH  13  29
ATOM     29  C8  non d ame     -11.901  12.051  63.368  0.00  0.00    -0.049 C 
ATOM     30  H7  non d ame     -11.449  12.280  62.403  0.00  0.00     0.030 H 
ATOM     31  H8  non d ame     -12.467  11.123  63.294  0.00  0.00     0.030 H 
ATOM     32  H9  non d ame     -12.569  12.862  63.657  0.00  0.00     0.030 H 
ENDBRANCH  13  29
ENDBRANCH  10  13
ENDBRANCH   7   9
BRANCH   7  33
ATOM     33  C11 non d ame      -6.574   9.601  64.831  0.00  0.00    -0.033 C 
ATOM     34  H12 non d ame      -6.042   8.749  65.254  0.00  0.00     0.042 H 
BRANCH  33  35
ATOM     35  C12 non d ame      -5.790  10.061  63.562  0.00  0.00    -0.071 C 
ATOM     36  H13 non d ame      -4.833   9.541  63.518  0.00  0.00     0.028 H 
ATOM     37  H14 non d ame      -6.372   9.826  62.671  0.00  0.00     0.028 H 
ATOM     38  H15 non d ame      -5.618  11.136  63.612  0.00  0.00     0.028 H 
ENDBRANCH  33  35
BRANCH  33  39
ATOM     39  C13 non d ame      -6.616  10.729  65.911  0.00  0.00    -0.071 C 
ATOM     40  H16 non d ame      -5.608  11.106  66.082  0.00  0.00     0.028 H 
ATOM     41  H17 non d ame      -7.254  11.542  65.563  0.00  0.00     0.028 H 
ATOM     42  H18 non d ame      -7.016  10.326  66.842  0.00  0.00     0.028 H 
ENDBRANCH  33  39
ENDBRANCH   7  33
ENDBRANCH   4   7
ENDBRANCH   1   3
BRANCH   1  43
ATOM     43  C15 non d ame     -10.152   6.711  68.146  0.00  0.00     0.240 C 
ATOM     44  O5  non d ame     -11.166   6.239  67.743  0.00  0.00    -0.271 OA
ATOM     45  N6  non d ame     -10.143   7.452  69.440  0.00  0.00    -0.355 N 
ATOM     46  H46 non d ame      -9.287   7.853  69.796  0.00  0.00     0.162 HD
BRANCH  45  47
ATOM     47  C20 non d ame     -11.398   7.599  70.209  0.00  0.00     0.013 C 
ATOM     48  H30 non d ame     -12.231   7.506  69.512  0.00  0.00     0.072 H 
BRANCH  47  49
ATOM     49  C21 non d ame     -11.424   8.961  70.866  0.00  0.00    -0.038 C 
ATOM     50  H31 non d ame     -12.476   9.238  70.928  0.00  0.00     0.036 H 
ATOM     51  H32 non d ame     -10.832   8.860  71.776  0.00  0.00     0.036 H 
BRANCH  49  52
ATOM     52  C22 non d ame     -10.735  10.050  70.016  0.00  0.00     0.018 C 
ATOM     53  H33 non d ame     -10.078  10.588  70.700  0.00  0.00     0.048 H 
ATOM     54  H34 non d ame     -10.315   9.530  69.154  0.00  0.00     0.048 H 
BRANCH  52  55
ATOM     55  C23 non d ame     -11.715  11.110  69.441  0.00  0.00     0.259 C 
ATOM     56  O7  non d ame     -11.982  11.119  68.283  0.00  0.00    -0.265 OA
BRANCH  55  57
ATOM     57  O8  non d ame     -12.282  12.080  70.313  0.00  0.00    -0.317 OA
BRANCH  57  58
ATOM     58  C29 non d ame     -12.002  13.432  69.941  0.00  0.00     0.052 C 
ATOM     59  H47 non d ame     -10.917  13.499  69.868  0.00  0.00     0.082 H 
ATOM     60  H48 non d ame     -12.620  13.631  69.065  0.00  0.00     0.082 H 
BRANCH  58  61
ATOM     61  C35 non d ame     -12.475  14.355  71.095  0.00  0.00    -0.034 A 
ATOM     62  C30 non d ame     -11.558  15.158  71.766  0.00  0.00    -0.075 A 
ATOM     63  C31 non d ame     -11.983  15.986  72.803  0.00  0.00    -0.082 A 
ATOM     64  H49 non d ame     -10.507  15.138  71.478  0.00  0.00     0.084 H 
ATOM     65  C32 non d ame     -13.331  16.008  73.172  0.00  0.00    -0.083 A 
ATOM     66  H50 non d ame     -11.262  16.616  73.325  0.00  0.00     0.083 H 
ATOM     67  C33 non d ame     -14.242  15.203  72.502  0.00  0.00    -0.082 A 
ATOM     68  H51 non d ame     -13.671  16.654  73.981  0.00  0.00     0.083 H 
ATOM     69  C34 non d ame     -13.822  14.375  71.463  0.00  0.00    -0.075 A 
ATOM     70  H52 non d ame     -15.292  15.220  72.793  0.00  0.00     0.083 H 
ATOM     71  H53 non d ame     -14.544  13.746  70.941  0.00  0.00     0.084 H 
ENDBRANCH  58  61
ENDBRANCH  57  58
ENDBRANCH  55  57
ENDBRANCH  52  55
ENDBRANCH  49  52
ENDBRANCH  47  49
BRANCH  47  72
ATOM     72  C24 non d ame     -11.478   6.514  71.281  0.00  0.00    -0.039 C 
ATOM     73  H35 non d ame     -11.952   6.990  72.140  0.00  0.00     0.036 H 
ATOM     74  H36 non d ame     -11.957   5.663  70.797  0.00  0.00     0.036 H 
BRANCH  72  75
ATOM     75  C25 non d ame     -10.023   6.034  71.748  0.00  0.00    -0.001 C 
ATOM     76  C26 non d ame      -9.827   4.436  71.417  0.00  0.00    -0.035 C 
ATOM     77  C27 non d ame      -9.402   3.807  72.539  0.00  0.00     0.085 C 
ATOM     78  H38 non d ame     -10.794   3.974  71.218  0.00  0.00     0.036 H 
ATOM     79  H39 non d ame      -9.002   4.296  70.719  0.00  0.00     0.036 H 
ATOM     80  N5  non d ame      -9.603   4.767  73.687  0.00  0.00    -0.049 N 
ATOM     81  H40 non d ame     -10.071   2.955  72.667  0.00  0.00     0.075 H 
ATOM     82  H41 non d ame      -8.334   3.645  72.395  0.00  0.00     0.075 H 
ATOM     83  C28 non d ame      -9.857   6.213  73.016  0.00  0.00     0.193 C 
ATOM     84  H42 non d ame     -10.449   4.477  74.157  0.00  0.00     0.280 HD
ATOM     85  H43 non d ame      -8.729   4.796  74.192  0.00  0.00     0.280 HD
ATOM     86  H44 non d ame      -9.068   6.966  73.009  0.00  0.00     0.129 H 
ATOM     87  H37 non d ame      -9.237   6.710  71.411  0.00  0.00     0.046 H 
BRANCH  83  88
ATOM     88  O6  non d ame     -10.984   6.847  73.624  0.00  0.00    -0.369 OA
ATOM     89  H45 non d ame     -11.084   6.528  74.523  0.00  0.00     0.212 HD
ENDBRANCH  83  88
ENDBRANCH  72  75
ENDBRANCH  47  72
ENDBRANCH  45  47
ENDBRANCH   1  43
BRANCH   1  90
ATOM     90  C16 non d ame      -7.689   6.222  68.264  0.00  0.00    -0.035 C 
ATOM     91  H21 non d ame      -6.787   6.515  67.726  0.00  0.00     0.037 H 
ATOM     92  H22 non d ame      -7.941   6.705  69.209  0.00  0.00     0.037 H 
BRANCH  90  93
ATOM     93  C17 non d ame      -7.542   4.698  68.573  0.00  0.00    -0.059 C 
ATOM     94  H23 non d ame      -8.490   4.351  68.985  0.00  0.00     0.038 H 
BRANCH  93  95
ATOM     95  C18 non d ame      -7.246   3.861  67.287  0.00  0.00    -0.073 C 
ATOM     96  H24 non d ame      -6.204   3.998  66.998  0.00  0.00     0.028 H 
ATOM     97  H25 non d ame      -7.432   2.806  67.489  0.00  0.00     0.028 H 
ATOM     98  H26 non d ame      -7.895   4.197  66.479  0.00  0.00     0.028 H 
ENDBRANCH  93  95
BRANCH  93  99
ATOM     99  C19 non d ame      -6.469   4.457  69.638  0.00  0.00    -0.073 C 
ATOM    100  H27 non d ame      -5.484   4.654  69.213  0.00  0.00     0.028 H 
ATOM    101  H28 non d ame      -6.640   5.125  70.484  0.00  0.00     0.028 H 
ATOM    102  H29 non d ame      -6.519   3.423  69.978  0.00  0.00     0.028 H 
ENDBRANCH  93  99
ENDBRANCH  90  93
ENDBRANCH   1  90
TORSDOF 26
ENDMDL
MODEL 15
REMARK VINA RESULT:      -6.4      3.660      8.543
REMARK  26 active torsions:
REMARK  status: ('A' for Active; 'I' for Inactive)
REMARK    1  A    between atoms: C2_2  and  C3_3 
REMARK    2  A    between atoms: C4_6  and  C5_7 
REMARK       I    between atoms: C5_7  and  N2_9 
REMARK    3  A    between atoms: N2_9  and  C6_10 
REMARK    4  A    between atoms: C6_10  and  C7_11 
REMARK    5  A    between atoms: C6_10  and  C8_13 
REMARK       I    between atoms: C7_11  and  N3_14 
REMARK    6  A    between atoms: N3_14  and  C9_15 
REMARK    7  A    between atoms: C9_15  and  C10_16 
REMARK    8  A    between atoms: C9_15  and  C11_18 
REMARK       I    between atoms: C10_16  and  N4_21 
REMARK    9  A    between atoms: C11_18  and  C12_19 
REMARK   10  A    between atoms: C11_18  and  C13_20 
REMARK   11  A    between atoms: N4_21  and  C14_22 
REMARK   12  A    between atoms: C14_22  and  C15_23 
REMARK   13  A    between atoms: C14_22  and  C16_25 
REMARK       I    between atoms: C15_23  and  N6_40 
REMARK   14  A    between atoms: C16_25  and  C17_26 
REMARK   15  A    between atoms: C17_26  and  C18_27 
REMARK   16  A    between atoms: C17_26  and  C19_28 
REMARK   17  A    between atoms: C20_29  and  C21_30 
REMARK   18  A    between atoms: C20_29  and  C24_33 
REMARK   19  A    between atoms: C20_29  and  N6_40 
REMARK   20  A    between atoms: C21_30  and  C22_31 
REMARK   21  A    between atoms: C22_31  and  C23_32 
REMARK   22  A    between atoms: C23_32  and  O8_43 
REMARK   23  A    between atoms: C24_33  and  C25_34 
REMARK   24  A    between atoms: C28_38  and  O6_39 
REMARK   25  A    between atoms: C29_42  and  O8_43 
REMARK   26  A    between atoms: C29_42  and  C35_49 
ROOT
ATOM      1  C14 non d ame     -10.009   9.582  66.912  0.00  0.00     0.089 C 
ATOM      2  H20 non d ame     -11.024   9.183  66.941  0.00  0.00     0.087 H 
ENDROOT
BRANCH   1   3
ATOM      3  N4  non d ame     -10.103  10.990  66.556  0.00  0.00    -0.346 N 
ATOM      4  C10 non d ame     -11.233  11.837  67.086  0.00  0.00     0.241 C 
ATOM      5  O4  non d ame     -12.058  11.361  67.795  0.00  0.00    -0.271 OA
ATOM      6  H19 non d ame      -9.392  11.375  65.950  0.00  0.00     0.163 HD
BRANCH   4   7
ATOM      7  C9  non d ame     -11.311  13.294  66.712  0.00  0.00     0.092 C 
ATOM      8  H11 non d ame     -12.354  13.611  66.721  0.00  0.00     0.088 H 
BRANCH   7   9
ATOM      9  N3  non d ame     -10.606  14.095  67.717  0.00  0.00    -0.346 N 
ATOM     10  C7  non d ame     -11.336  14.679  68.815  0.00  0.00     0.240 C 
ATOM     11  O3  non d ame     -12.492  14.515  68.904  0.00  0.00    -0.271 OA
ATOM     12  H10 non d ame      -9.609  14.246  67.652  0.00  0.00     0.163 HD
BRANCH  10  13
ATOM     13  C6  non d ame     -10.580  15.533  69.880  0.00  0.00     0.086 C 
ATOM     14  H6  non d ame      -9.670  15.052  70.238  0.00  0.00     0.086 H 
BRANCH  13  15
ATOM     15  N2  non d ame     -10.175  16.790  69.274  0.00  0.00    -0.343 N 
ATOM     16  C5  non d ame      -8.827  16.921  68.717  0.00  0.00     0.273 C 
ATOM     17  O2  non d ame      -8.075  16.010  68.764  0.00  0.00    -0.266 OA
ATOM     18  H5  non d ame     -10.823  17.565  69.240  0.00  0.00     0.163 HD
BRANCH  16  19
ATOM     19  C4  non d ame      -8.385  18.244  68.072  0.00  0.00     0.154 A 
ATOM     20  C1  non d ame      -7.155  18.943  68.287  0.00  0.00    -0.017 A 
ATOM     21  C2  non d ame      -7.240  20.090  67.467  0.00  0.00     0.077 A 
ATOM     22  H1  non d ame      -6.328  18.661  68.939  0.00  0.00     0.091 H 
ATOM     23  O1  non d ame      -8.387  20.044  66.855  0.00  0.00    -0.218 OA
ATOM     24  N1  non d ame      -9.074  18.977  67.192  0.00  0.00    -0.123 NA
BRANCH  21  25
ATOM     25  C3  non d ame      -6.183  21.177  67.324  0.00  0.00    -0.029 C 
ATOM     26  H2  non d ame      -5.818  21.461  68.312  0.00  0.00     0.036 H 
ATOM     27  H3  non d ame      -5.354  20.801  66.724  0.00  0.00     0.036 H 
ATOM     28  H4  non d ame      -6.620  22.048  66.835  0.00  0.00     0.036 H 
ENDBRANCH  21  25
ENDBRANCH  16  19
ENDBRANCH  13  15
BRANCH  13  29
ATOM     29  C8  non d ame     -11.488  15.795  71.055  0.00  0.00    -0.049 C 
ATOM     30  H7  non d ame     -11.882  14.849  71.428  0.00  0.00     0.030 H 
ATOM     31  H8  non d ame     -10.925  16.291  71.845  0.00  0.00     0.030 H 
ATOM     32  H9  non d ame     -12.314  16.432  70.740  0.00  0.00     0.030 H 
ENDBRANCH  13  29
ENDBRANCH  10  13
ENDBRANCH   7   9
BRANCH   7  33
ATOM     33  C11 non d ame     -10.646  13.508  65.321  0.00  0.00    -0.033 C 
ATOM     34  H12 non d ame      -9.791  12.835  65.258  0.00  0.00     0.042 H 
BRANCH  33  35
ATOM     35  C12 non d ame     -11.621  13.137  64.161  0.00  0.00    -0.071 C 
ATOM     36  H13 non d ame     -12.415  13.883  64.101  0.00  0.00     0.028 H 
ATOM     37  H14 non d ame     -11.074  13.115  63.219  0.00  0.00     0.028 H 
ATOM     38  H15 non d ame     -12.057  12.157  64.352  0.00  0.00     0.028 H 
ENDBRANCH  33  35
BRANCH  33  39
ATOM     39  C13 non d ame     -10.119  14.972  65.173  0.00  0.00    -0.071 C 
ATOM     40  H16 non d ame     -10.103  15.247  64.118  0.00  0.00     0.028 H 
ATOM     41  H17 non d ame     -10.777  15.651  65.716  0.00  0.00     0.028 H 
ATOM     42  H18 non d ame      -9.111  15.038  65.581  0.00  0.00     0.028 H 
ENDBRANCH  33  39
ENDBRANCH   7  33
ENDBRANCH   4   7
ENDBRANCH   1   3
BRANCH   1  43
ATOM     43  C15 non d ame      -9.293   9.466  68.288  0.00  0.00     0.240 C 
ATOM     44  O5  non d ame      -8.429  10.230  68.571  0.00  0.00    -0.271 OA
ATOM     45  N6  non d ame      -9.692   8.405  69.257  0.00  0.00    -0.355 N 
ATOM     46  H46 non d ame     -10.428   7.753  69.030  0.00  0.00     0.162 HD
BRANCH  45  47
ATOM     47  C20 non d ame      -9.003   8.308  70.562  0.00  0.00     0.013 C 
ATOM     48  H30 non d ame      -8.190   9.035  70.567  0.00  0.00     0.072 H 
BRANCH  47  49
ATOM     49  C21 non d ame      -8.448   6.912  70.731  0.00  0.00    -0.038 C 
ATOM     50  H31 non d ame      -7.641   7.001  71.460  0.00  0.00     0.036 H 
ATOM     51  H32 non d ame      -9.308   6.277  70.945  0.00  0.00     0.036 H 
BRANCH  49  52
ATOM     52  C22 non d ame      -7.809   6.360  69.438  0.00  0.00     0.018 C 
ATOM     53  H33 non d ame      -8.198   6.979  68.629  0.00  0.00     0.048 H 
ATOM     54  H34 non d ame      -6.736   6.326  69.631  0.00  0.00     0.048 H 
BRANCH  52  55
ATOM     55  C23 non d ame      -8.231   4.902  69.104  0.00  0.00     0.259 C 
ATOM     56  O7  non d ame      -8.662   4.190  69.951  0.00  0.00    -0.265 OA
BRANCH  55  57
ATOM     57  O8  non d ame      -8.084   4.422  67.773  0.00  0.00    -0.317 OA
BRANCH  57  58
ATOM     58  C29 non d ame      -8.929   5.075  66.822  0.00  0.00     0.052 C 
ATOM     59  H47 non d ame      -9.659   4.327  66.513  0.00  0.00     0.082 H 
ATOM     60  H48 non d ame      -9.262   5.994  67.305  0.00  0.00     0.082 H 
BRANCH  58  61
ATOM     61  C35 non d ame      -8.063   5.454  65.591  0.00  0.00    -0.034 A 
ATOM     62  C30 non d ame      -8.615   5.419  64.314  0.00  0.00    -0.075 A 
ATOM     63  C31 non d ame      -7.837   5.759  63.208  0.00  0.00    -0.082 A 
ATOM     64  H49 non d ame      -9.656   5.127  64.180  0.00  0.00     0.084 H 
ATOM     65  C32 non d ame      -6.501   6.132  63.383  0.00  0.00    -0.083 A 
ATOM     66  H50 non d ame      -8.272   5.733  62.209  0.00  0.00     0.083 H 
ATOM     67  C33 non d ame      -5.954   6.161  64.659  0.00  0.00    -0.082 A 
ATOM     68  H51 non d ame      -5.886   6.399  62.524  0.00  0.00     0.083 H 
ATOM     69  C34 non d ame      -6.729   5.825  65.767  0.00  0.00    -0.075 A 
ATOM     70  H52 non d ame      -4.911   6.451  64.791  0.00  0.00     0.083 H 
ATOM     71  H53 non d ame      -6.293   5.852  66.766  0.00  0.00     0.084 H 
ENDBRANCH  58  61
ENDBRANCH  57  58
ENDBRANCH  55  57
ENDBRANCH  52  55
ENDBRANCH  49  52
ENDBRANCH  47  49
BRANCH  47  72
ATOM     72  C24 non d ame      -9.988   8.606  71.690  0.00  0.00    -0.039 C 
ATOM     73  H35 non d ame      -9.911   7.759  72.373  0.00  0.00     0.036 H 
ATOM     74  H36 non d ame      -9.738   9.609  72.036  0.00  0.00     0.036 H 
BRANCH  72  75
ATOM     75  C25 non d ame     -11.499   8.650  71.161  0.00  0.00    -0.001 C 
ATOM     76  C26 non d ame     -12.026  10.207  71.103  0.00  0.00    -0.035 C 
ATOM     77  C27 non d ame     -13.209  10.292  71.757  0.00  0.00     0.085 C 
ATOM     78  H38 non d ame     -11.366  10.847  71.686  0.00  0.00     0.036 H 
ATOM     79  H39 non d ame     -12.282  10.477  70.078  0.00  0.00     0.036 H 
ATOM     80  N5  non d ame     -13.377   9.009  72.535  0.00  0.00    -0.049 N 
ATOM     81  H40 non d ame     -13.096  11.120  72.457  0.00  0.00     0.075 H 
ATOM     82  H41 non d ame     -13.970  10.336  70.978  0.00  0.00     0.075 H 
ATOM     83  C28 non d ame     -12.286   7.981  71.935  0.00  0.00     0.193 C 
ATOM     84  H42 non d ame     -13.128   9.220  73.491  0.00  0.00     0.280 HD
ATOM     85  H43 non d ame     -14.300   8.661  72.318  0.00  0.00     0.280 HD
ATOM     86  H44 non d ame     -12.592   7.179  71.262  0.00  0.00     0.129 H 
ATOM     87  H37 non d ame     -11.641   8.045  70.265  0.00  0.00     0.046 H 
BRANCH  83  88
ATOM     88  O6  non d ame     -11.578   7.338  72.997  0.00  0.00    -0.369 OA
ATOM     89  H45 non d ame     -10.937   7.948  73.369  0.00  0.00     0.212 HD
ENDBRANCH  83  88
ENDBRANCH  72  75
ENDBRANCH  47  72
ENDBRANCH  45  47
ENDBRANCH   1  43
BRANCH   1  90
ATOM     90  C16 non d ame      -9.199   8.855  65.851  0.00  0.00    -0.035 C 
ATOM     91  H21 non d ame      -8.414   8.330  66.396  0.00  0.00     0.037 H 
ATOM     92  H22 non d ame      -9.928   8.291  65.268  0.00  0.00     0.037 H 
BRANCH  90  93
ATOM     93  C17 non d ame      -8.477   9.812  64.849  0.00  0.00    -0.059 C 
ATOM     94  H23 non d ame      -8.742  10.834  65.118  0.00  0.00     0.038 H 
BRANCH  93  95
ATOM     95  C18 non d ame      -6.922   9.686  64.931  0.00  0.00    -0.073 C 
ATOM     96  H24 non d ame      -6.544  10.353  65.706  0.00  0.00     0.028 H 
ATOM     97  H25 non d ame      -6.653   8.657  65.174  0.00  0.00     0.028 H 
ATOM     98  H26 non d ame      -6.485   9.958  63.971  0.00  0.00     0.028 H 
ENDBRANCH  93  95
BRANCH  93  99
ATOM     99  C19 non d ame      -8.968   9.576  63.418  0.00  0.00    -0.073 C 
ATOM    100  H27 non d ame      -8.169   9.815  62.716  0.00  0.00     0.028 H 
ATOM    101  H28 non d ame      -9.256   8.531  63.301  0.00  0.00     0.028 H 
ATOM    102  H29 non d ame      -9.829  10.214  63.220  0.00  0.00     0.028 H 
ENDBRANCH  93  99
ENDBRANCH  90  93
ENDBRANCH   1  90
TORSDOF 26
ENDMDL
MODEL 16
REMARK VINA RESULT:      -6.4      2.933      7.986
REMARK  26 active torsions:
REMARK  status: ('A' for Active; 'I' for Inactive)
REMARK    1  A    between atoms: C2_2  and  C3_3 
REMARK    2  A    between atoms: C4_6  and  C5_7 
REMARK       I    between atoms: C5_7  and  N2_9 
REMARK    3  A    between atoms: N2_9  and  C6_10 
REMARK    4  A    between atoms: C6_10  and  C7_11 
REMARK    5  A    between atoms: C6_10  and  C8_13 
REMARK       I    between atoms: C7_11  and  N3_14 
REMARK    6  A    between atoms: N3_14  and  C9_15 
REMARK    7  A    between atoms: C9_15  and  C10_16 
REMARK    8  A    between atoms: C9_15  and  C11_18 
REMARK       I    between atoms: C10_16  and  N4_21 
REMARK    9  A    between atoms: C11_18  and  C12_19 
REMARK   10  A    between atoms: C11_18  and  C13_20 
REMARK   11  A    between atoms: N4_21  and  C14_22 
REMARK   12  A    between atoms: C14_22  and  C15_23 
REMARK   13  A    between atoms: C14_22  and  C16_25 
REMARK       I    between atoms: C15_23  and  N6_40 
REMARK   14  A    between atoms: C16_25  and  C17_26 
REMARK   15  A    between atoms: C17_26  and  C18_27 
REMARK   16  A    between atoms: C17_26  and  C19_28 
REMARK   17  A    between atoms: C20_29  and  C21_30 
REMARK   18  A    between atoms: C20_29  and  C24_33 
REMARK   19  A    between atoms: C20_29  and  N6_40 
REMARK   20  A    between atoms: C21_30  and  C22_31 
REMARK   21  A    between atoms: C22_31  and  C23_32 
REMARK   22  A    between atoms: C23_32  and  O8_43 
REMARK   23  A    between atoms: C24_33  and  C25_34 
REMARK   24  A    between atoms: C28_38  and  O6_39 
REMARK   25  A    between atoms: C29_42  and  O8_43 
REMARK   26  A    between atoms: C29_42  and  C35_49 
ROOT
ATOM      1  C14 non d ame     -10.058  12.244  64.970  0.00  0.00     0.089 C 
ATOM      2  H20 non d ame     -10.115  12.454  63.902  0.00  0.00     0.087 H 
ENDROOT
BRANCH   1   3
ATOM      3  N4  non d ame      -9.194  11.086  65.143  0.00  0.00    -0.346 N 
ATOM      4  C10 non d ame      -9.102  10.036  64.065  0.00  0.00     0.241 C 
ATOM      5  O4  non d ame      -9.736  10.144  63.067  0.00  0.00    -0.271 OA
ATOM      6  H19 non d ame      -8.665  11.011  66.001  0.00  0.00     0.163 HD
BRANCH   4   7
ATOM      7  C9  non d ame      -8.199   8.846  64.258  0.00  0.00     0.092 C 
ATOM      8  H11 non d ame      -7.309   9.158  64.805  0.00  0.00     0.088 H 
BRANCH   7   9
ATOM      9  N3  non d ame      -8.882   7.841  65.078  0.00  0.00    -0.346 N 
ATOM     10  C7  non d ame      -8.303   7.417  66.328  0.00  0.00     0.240 C 
ATOM     11  O3  non d ame      -7.287   7.873  66.690  0.00  0.00    -0.271 OA
ATOM     12  H10 non d ame      -9.758   7.438  64.778  0.00  0.00     0.163 HD
BRANCH  10  13
ATOM     13  C6  non d ame      -9.033   6.344  67.195  0.00  0.00     0.086 C 
ATOM     14  H6  non d ame      -8.370   5.854  67.906  0.00  0.00     0.086 H 
BRANCH  13  15
ATOM     15  N2  non d ame     -10.071   6.997  67.976  0.00  0.00    -0.343 N 
ATOM     16  C5  non d ame      -9.791   7.397  69.357  0.00  0.00     0.273 C 
ATOM     17  O2  non d ame      -8.728   7.187  69.830  0.00  0.00    -0.266 OA
ATOM     18  H5  non d ame     -10.977   7.169  67.564  0.00  0.00     0.163 HD
BRANCH  16  19
ATOM     19  C4  non d ame     -10.878   8.089  70.194  0.00  0.00     0.154 A 
ATOM     20  C1  non d ame     -11.258   9.468  70.148  0.00  0.00    -0.017 A 
ATOM     21  C2  non d ame     -12.292   9.592  71.102  0.00  0.00     0.077 A 
ATOM     22  H1  non d ame     -10.846  10.257  69.519  0.00  0.00     0.091 H 
ATOM     23  O1  non d ame     -12.478   8.416  71.627  0.00  0.00    -0.218 OA
ATOM     24  N1  non d ame     -11.664   7.522  71.114  0.00  0.00    -0.123 NA
BRANCH  21  25
ATOM     25  C3  non d ame     -13.050  10.866  71.450  0.00  0.00    -0.029 C 
ATOM     26  H2  non d ame     -12.734  11.670  70.786  0.00  0.00     0.036 H 
ATOM     27  H3  non d ame     -14.120  10.696  71.331  0.00  0.00     0.036 H 
ATOM     28  H4  non d ame     -12.839  11.144  72.483  0.00  0.00     0.036 H 
ENDBRANCH  21  25
ENDBRANCH  16  19
ENDBRANCH  13  15
BRANCH  13  29
ATOM     29  C8  non d ame      -9.644   5.299  66.296  0.00  0.00    -0.049 C 
ATOM     30  H7  non d ame     -10.706   5.201  66.521  0.00  0.00     0.030 H 
ATOM     31  H8  non d ame      -9.518   5.596  65.255  0.00  0.00     0.030 H 
ATOM     32  H9  non d ame      -9.148   4.343  66.464  0.00  0.00     0.030 H 
ENDBRANCH  13  29
ENDBRANCH  10  13
ENDBRANCH   7   9
BRANCH   7  33
ATOM     33  C11 non d ame      -7.849   8.231  62.872  0.00  0.00    -0.033 C 
ATOM     34  H12 non d ame      -8.451   8.744  62.122  0.00  0.00     0.042 H 
BRANCH  33  35
ATOM     35  C12 non d ame      -6.349   8.465  62.508  0.00  0.00    -0.071 C 
ATOM     36  H13 non d ame      -5.846   8.956  63.341  0.00  0.00     0.028 H 
ATOM     37  H14 non d ame      -5.870   7.506  62.309  0.00  0.00     0.028 H 
ATOM     38  H15 non d ame      -6.284   9.095  61.622  0.00  0.00     0.028 H 
ENDBRANCH  33  35
BRANCH  33  39
ATOM     39  C13 non d ame      -8.212   6.712  62.827  0.00  0.00    -0.071 C 
ATOM     40  H16 non d ame      -8.525   6.383  63.817  0.00  0.00     0.028 H 
ATOM     41  H17 non d ame      -9.025   6.553  62.118  0.00  0.00     0.028 H 
ATOM     42  H18 non d ame      -7.339   6.139  62.513  0.00  0.00     0.028 H 
ENDBRANCH  33  39
ENDBRANCH   7  33
ENDBRANCH   4   7
ENDBRANCH   1   3
BRANCH   1  43
ATOM     43  C15 non d ame      -9.457  13.434  65.772  0.00  0.00     0.240 C 
ATOM     44  O5  non d ame      -9.678  14.550  65.428  0.00  0.00    -0.271 OA
ATOM     45  N6  non d ame      -8.613  13.182  66.975  0.00  0.00    -0.355 N 
ATOM     46  H46 non d ame      -8.422  12.239  67.279  0.00  0.00     0.162 HD
BRANCH  45  47
ATOM     47  C20 non d ame      -8.050  14.325  67.727  0.00  0.00     0.013 C 
ATOM     48  H30 non d ame      -8.115  15.209  67.092  0.00  0.00     0.072 H 
BRANCH  47  49
ATOM     49  C21 non d ame      -6.605  14.036  68.066  0.00  0.00    -0.038 C 
ATOM     50  H31 non d ame      -6.632  13.265  68.837  0.00  0.00     0.036 H 
ATOM     51  H32 non d ame      -6.113  13.839  67.114  0.00  0.00     0.036 H 
BRANCH  49  52
ATOM     52  C22 non d ame      -5.882  15.251  68.689  0.00  0.00     0.018 C 
ATOM     53  H33 non d ame      -6.640  15.784  69.263  0.00  0.00     0.048 H 
ATOM     54  H34 non d ame      -5.003  14.845  69.191  0.00  0.00     0.048 H 
BRANCH  52  55
ATOM     55  C23 non d ame      -5.347  16.265  67.640  0.00  0.00     0.259 C 
ATOM     56  O7  non d ame      -4.393  16.005  66.981  0.00  0.00    -0.265 OA
BRANCH  55  57
ATOM     57  O8  non d ame      -6.002  17.518  67.485  0.00  0.00    -0.317 OA
BRANCH  57  58
ATOM     58  C29 non d ame      -6.876  17.856  68.566  0.00  0.00     0.052 C 
ATOM     59  H47 non d ame      -7.079  16.919  69.085  0.00  0.00     0.082 H 
ATOM     60  H48 non d ame      -6.390  18.676  69.093  0.00  0.00     0.082 H 
BRANCH  58  61
ATOM     61  C35 non d ame      -8.206  18.380  67.961  0.00  0.00    -0.034 A 
ATOM     62  C30 non d ame      -8.655  17.891  66.738  0.00  0.00    -0.075 A 
ATOM     63  C31 non d ame      -9.849  18.363  66.195  0.00  0.00    -0.082 A 
ATOM     64  H49 non d ame      -8.073  17.139  66.207  0.00  0.00     0.084 H 
ATOM     65  C32 non d ame     -10.593  19.329  66.877  0.00  0.00    -0.083 A 
ATOM     66  H50 non d ame     -10.200  17.976  65.238  0.00  0.00     0.083 H 
ATOM     67  C33 non d ame     -10.139  19.816  68.095  0.00  0.00    -0.082 A 
ATOM     68  H51 non d ame     -11.528  19.703  66.459  0.00  0.00     0.083 H 
ATOM     69  C34 non d ame      -8.947  19.347  68.643  0.00  0.00    -0.075 A 
ATOM     70  H52 non d ame     -10.721  20.572  68.623  0.00  0.00     0.083 H 
ATOM     71  H53 non d ame      -8.597  19.733  69.601  0.00  0.00     0.084 H 
ENDBRANCH  58  61
ENDBRANCH  57  58
ENDBRANCH  55  57
ENDBRANCH  52  55
ENDBRANCH  49  52
ENDBRANCH  47  49
BRANCH  47  72
ATOM     72  C24 non d ame      -8.844  14.537  69.014  0.00  0.00    -0.039 C 
ATOM     73  H35 non d ame      -8.906  13.554  69.482  0.00  0.00     0.036 H 
ATOM     74  H36 non d ame      -8.345  15.356  69.532  0.00  0.00     0.036 H 
BRANCH  72  75
ATOM     75  C25 non d ame     -10.344  15.012  68.714  0.00  0.00    -0.001 C 
ATOM     76  C26 non d ame     -10.760  16.233  69.734  0.00  0.00    -0.035 C 
ATOM     77  C27 non d ame     -11.939  15.925  70.326  0.00  0.00     0.085 C 
ATOM     78  H38 non d ame     -10.060  16.277  70.569  0.00  0.00     0.036 H 
ATOM     79  H39 non d ame     -10.988  17.134  69.165  0.00  0.00     0.036 H 
ATOM     80  N5  non d ame     -12.202  14.464  70.051  0.00  0.00    -0.049 N 
ATOM     81  H40 non d ame     -11.774  16.062  71.395  0.00  0.00     0.075 H 
ATOM     82  H41 non d ame     -12.689  16.524  69.809  0.00  0.00     0.075 H 
ATOM     83  C28 non d ame     -11.182  14.042  68.873  0.00  0.00     0.193 C 
ATOM     84  H42 non d ame     -11.948  13.964  70.892  0.00  0.00     0.280 HD
ATOM     85  H43 non d ame     -13.146  14.405  69.696  0.00  0.00     0.280 HD
ATOM     86  H44 non d ame     -11.539  13.918  67.850  0.00  0.00     0.129 H 
ATOM     87  H37 non d ame     -10.522  15.172  67.650  0.00  0.00     0.046 H 
BRANCH  83  88
ATOM     88  O6  non d ame     -10.530  12.814  69.202  0.00  0.00    -0.369 OA
ATOM     89  H45 non d ame      -9.596  12.978  69.349  0.00  0.00     0.212 HD
ENDBRANCH  83  88
ENDBRANCH  72  75
ENDBRANCH  47  72
ENDBRANCH  45  47
ENDBRANCH   1  43
BRANCH   1  90
ATOM     90  C16 non d ame     -11.443  11.914  65.505  0.00  0.00    -0.035 C 
ATOM     91  H21 non d ame     -11.570  10.845  65.336  0.00  0.00     0.037 H 
ATOM     92  H22 non d ame     -11.462  12.311  66.520  0.00  0.00     0.037 H 
BRANCH  90  93
ATOM     93  C17 non d ame     -12.598  12.625  64.731  0.00  0.00    -0.059 C 
ATOM     94  H23 non d ame     -13.441  11.935  64.689  0.00  0.00     0.038 H 
BRANCH  93  95
ATOM     95  C18 non d ame     -13.081  13.923  65.454  0.00  0.00    -0.073 C 
ATOM     96  H24 non d ame     -14.118  13.801  65.765  0.00  0.00     0.028 H 
ATOM     97  H25 non d ame     -12.458  14.104  66.331  0.00  0.00     0.028 H 
ATOM     98  H26 non d ame     -13.002  14.770  64.772  0.00  0.00     0.028 H 
ENDBRANCH  93  95
BRANCH  93  99
ATOM     99  C19 non d ame     -12.186  12.927  63.288  0.00  0.00    -0.073 C 
ATOM    100  H27 non d ame     -12.878  12.438  62.602  0.00  0.00     0.028 H 
ATOM    101  H28 non d ame     -12.208  14.004  63.122  0.00  0.00     0.028 H 
ATOM    102  H29 non d ame     -11.177  12.554  63.113  0.00  0.00     0.028 H 
ENDBRANCH  93  99
ENDBRANCH  90  93
ENDBRANCH   1  90
TORSDOF 26
ENDMDL
MODEL 17
REMARK VINA RESULT:      -6.4      3.669      8.290
REMARK  26 active torsions:
REMARK  status: ('A' for Active; 'I' for Inactive)
REMARK    1  A    between atoms: C2_2  and  C3_3 
REMARK    2  A    between atoms: C4_6  and  C5_7 
REMARK       I    between atoms: C5_7  and  N2_9 
REMARK    3  A    between atoms: N2_9  and  C6_10 
REMARK    4  A    between atoms: C6_10  and  C7_11 
REMARK    5  A    between atoms: C6_10  and  C8_13 
REMARK       I    between atoms: C7_11  and  N3_14 
REMARK    6  A    between atoms: N3_14  and  C9_15 
REMARK    7  A    between atoms: C9_15  and  C10_16 
REMARK    8  A    between atoms: C9_15  and  C11_18 
REMARK       I    between atoms: C10_16  and  N4_21 
REMARK    9  A    between atoms: C11_18  and  C12_19 
REMARK   10  A    between atoms: C11_18  and  C13_20 
REMARK   11  A    between atoms: N4_21  and  C14_22 
REMARK   12  A    between atoms: C14_22  and  C15_23 
REMARK   13  A    between atoms: C14_22  and  C16_25 
REMARK       I    between atoms: C15_23  and  N6_40 
REMARK   14  A    between atoms: C16_25  and  C17_26 
REMARK   15  A    between atoms: C17_26  and  C18_27 
REMARK   16  A    between atoms: C17_26  and  C19_28 
REMARK   17  A    between atoms: C20_29  and  C21_30 
REMARK   18  A    between atoms: C20_29  and  C24_33 
REMARK   19  A    between atoms: C20_29  and  N6_40 
REMARK   20  A    between atoms: C21_30  and  C22_31 
REMARK   21  A    between atoms: C22_31  and  C23_32 
REMARK   22  A    between atoms: C23_32  and  O8_43 
REMARK   23  A    between atoms: C24_33  and  C25_34 
REMARK   24  A    between atoms: C28_38  and  O6_39 
REMARK   25  A    between atoms: C29_42  and  O8_43 
REMARK   26  A    between atoms: C29_42  and  C35_49 
ROOT
ATOM      1  C14 non d ame     -10.806   9.091  69.108  0.00  0.00     0.089 C 
ATOM      2  H20 non d ame     -11.825   8.704  69.074  0.00  0.00     0.087 H 
ENDROOT
BRANCH   1   3
ATOM      3  N4  non d ame      -9.904   7.948  69.119  0.00  0.00    -0.346 N 
ATOM      4  C10 non d ame     -10.442   6.552  68.931  0.00  0.00     0.241 C 
ATOM      5  O4  non d ame     -11.605   6.372  68.776  0.00  0.00    -0.271 OA
ATOM      6  H19 non d ame      -8.919   8.122  69.255  0.00  0.00     0.163 HD
BRANCH   4   7
ATOM      7  C9  non d ame      -9.494   5.381  68.940  0.00  0.00     0.092 C 
ATOM      8  H11 non d ame     -10.033   4.481  68.646  0.00  0.00     0.088 H 
BRANCH   7   9
ATOM      9  N3  non d ame      -8.439   5.599  67.945  0.00  0.00    -0.346 N 
ATOM     10  C7  non d ame      -8.365   4.756  66.777  0.00  0.00     0.240 C 
ATOM     11  O3  non d ame      -9.145   3.897  66.623  0.00  0.00    -0.271 OA
ATOM     12  H10 non d ame      -7.758   6.335  68.066  0.00  0.00     0.163 HD
BRANCH  10  13
ATOM     13  C6  non d ame      -7.238   4.990  65.724  0.00  0.00     0.086 C 
ATOM     14  H6  non d ame      -7.266   4.268  64.909  0.00  0.00     0.086 H 
BRANCH  13  15
ATOM     15  N2  non d ame      -7.420   6.302  65.124  0.00  0.00    -0.343 N 
ATOM     16  C5  non d ame      -7.945   6.405  63.761  0.00  0.00     0.273 C 
ATOM     17  O2  non d ame      -8.217   5.427  63.155  0.00  0.00    -0.266 OA
ATOM     18  H5  non d ame      -7.183   7.132  65.648  0.00  0.00     0.163 HD
BRANCH  16  19
ATOM     19  C4  non d ame      -8.144   7.784  63.114  0.00  0.00     0.154 A 
ATOM     20  C1  non d ame      -8.655   8.966  63.738  0.00  0.00    -0.017 A 
ATOM     21  C2  non d ame      -8.636   9.950  62.725  0.00  0.00     0.077 A 
ATOM     22  H1  non d ame      -8.988   9.091  64.769  0.00  0.00     0.091 H 
ATOM     23  O1  non d ame      -8.166   9.389  61.649  0.00  0.00    -0.218 OA
ATOM     24  N1  non d ame      -7.872   8.125  61.851  0.00  0.00    -0.123 NA
BRANCH  21  25
ATOM     25  C3  non d ame      -9.082  11.399  62.866  0.00  0.00    -0.029 C 
ATOM     26  H2  non d ame      -8.564  12.013  62.128  0.00  0.00     0.036 H 
ATOM     27  H3  non d ame     -10.158  11.466  62.704  0.00  0.00     0.036 H 
ATOM     28  H4  non d ame      -8.843  11.757  63.868  0.00  0.00     0.036 H 
ENDBRANCH  21  25
ENDBRANCH  16  19
ENDBRANCH  13  15
BRANCH  13  29
ATOM     29  C8  non d ame      -5.892   4.913  66.398  0.00  0.00    -0.049 C 
ATOM     30  H7  non d ame      -5.859   5.620  67.227  0.00  0.00     0.030 H 
ATOM     31  H8  non d ame      -5.733   3.903  66.776  0.00  0.00     0.030 H 
ATOM     32  H9  non d ame      -5.112   5.160  65.679  0.00  0.00     0.030 H 
ENDBRANCH  13  29
ENDBRANCH  10  13
ENDBRANCH   7   9
BRANCH   7  33
ATOM     33  C11 non d ame      -8.852   5.245  70.351  0.00  0.00    -0.033 C 
ATOM     34  H12 non d ame      -8.514   6.235  70.656  0.00  0.00     0.042 H 
BRANCH  33  35
ATOM     35  C12 non d ame      -9.895   4.759  71.406  0.00  0.00    -0.071 C 
ATOM     36  H13 non d ame      -9.374   4.323  72.258  0.00  0.00     0.028 H 
ATOM     37  H14 non d ame     -10.493   5.606  71.742  0.00  0.00     0.028 H 
ATOM     38  H15 non d ame     -10.545   4.010  70.955  0.00  0.00     0.028 H 
ENDBRANCH  33  35
BRANCH  33  39
ATOM     39  C13 non d ame      -7.607   4.302  70.311  0.00  0.00    -0.071 C 
ATOM     40  H16 non d ame      -7.936   3.264  70.340  0.00  0.00     0.028 H 
ATOM     41  H17 non d ame      -7.046   4.479  69.392  0.00  0.00     0.028 H 
ATOM     42  H18 non d ame      -6.969   4.506  71.170  0.00  0.00     0.028 H 
ENDBRANCH  33  39
ENDBRANCH   7  33
ENDBRANCH   4   7
ENDBRANCH   1   3
BRANCH   1  43
ATOM     43  C15 non d ame     -10.471   9.973  67.871  0.00  0.00     0.240 C 
ATOM     44  O5  non d ame     -10.616   9.535  66.776  0.00  0.00    -0.271 OA
ATOM     45  N6  non d ame      -9.979  11.369  68.053  0.00  0.00    -0.355 N 
ATOM     46  H46 non d ame      -9.857  11.753  68.978  0.00  0.00     0.162 HD
BRANCH  45  47
ATOM     47  C20 non d ame      -9.667  12.196  66.867  0.00  0.00     0.013 C 
ATOM     48  H30 non d ame      -9.408  11.524  66.049  0.00  0.00     0.072 H 
BRANCH  47  49
ATOM     49  C21 non d ame      -8.497  13.101  67.183  0.00  0.00    -0.038 C 
ATOM     50  H31 non d ame      -7.607  12.483  67.065  0.00  0.00     0.036 H 
ATOM     51  H32 non d ame      -8.634  13.986  66.561  0.00  0.00     0.036 H 
BRANCH  49  52
ATOM     52  C22 non d ame      -8.498  13.591  68.647  0.00  0.00     0.018 C 
ATOM     53  H33 non d ame      -9.310  13.054  69.139  0.00  0.00     0.048 H 
ATOM     54  H34 non d ame      -7.473  13.470  68.999  0.00  0.00     0.048 H 
BRANCH  52  55
ATOM     55  C23 non d ame      -8.828  15.102  68.802  0.00  0.00     0.259 C 
ATOM     56  O7  non d ame      -8.453  15.887  67.993  0.00  0.00    -0.265 OA
BRANCH  55  57
ATOM     57  O8  non d ame      -9.576  15.540  69.930  0.00  0.00    -0.317 OA
BRANCH  57  58
ATOM     58  C29 non d ame     -10.929  15.891  69.630  0.00  0.00     0.052 C 
ATOM     59  H47 non d ame     -10.989  16.972  69.762  0.00  0.00     0.082 H 
ATOM     60  H48 non d ame     -11.141  15.448  68.658  0.00  0.00     0.082 H 
BRANCH  58  61
ATOM     61  C35 non d ame     -11.844  15.217  70.687  0.00  0.00    -0.034 A 
ATOM     62  C30 non d ame     -12.213  15.912  71.835  0.00  0.00    -0.075 A 
ATOM     63  C31 non d ame     -13.035  15.306  72.784  0.00  0.00    -0.082 A 
ATOM     64  H49 non d ame     -11.859  16.931  71.990  0.00  0.00     0.084 H 
ATOM     65  C32 non d ame     -13.486  13.999  72.584  0.00  0.00    -0.083 A 
ATOM     66  H50 non d ame     -13.324  15.854  73.681  0.00  0.00     0.083 H 
ATOM     67  C33 non d ame     -13.113  13.308  71.439  0.00  0.00    -0.082 A 
ATOM     68  H51 non d ame     -14.129  13.518  73.321  0.00  0.00     0.083 H 
ATOM     69  C34 non d ame     -12.293  13.910  70.486  0.00  0.00    -0.075 A 
ATOM     70  H52 non d ame     -13.465  12.287  71.287  0.00  0.00     0.083 H 
ATOM     71  H53 non d ame     -12.005  13.362  69.589  0.00  0.00     0.084 H 
ENDBRANCH  58  61
ENDBRANCH  57  58
ENDBRANCH  55  57
ENDBRANCH  52  55
ENDBRANCH  49  52
ENDBRANCH  47  49
BRANCH  47  72
ATOM     72  C24 non d ame     -10.881  13.043  66.494  0.00  0.00    -0.039 C 
ATOM     73  H35 non d ame     -11.713  12.342  66.419  0.00  0.00     0.036 H 
ATOM     74  H36 non d ame     -10.912  13.847  67.230  0.00  0.00     0.036 H 
BRANCH  72  75
ATOM     75  C25 non d ame     -10.708  13.726  65.056  0.00  0.00    -0.001 C 
ATOM     76  C26 non d ame     -10.506  15.349  65.227  0.00  0.00    -0.035 C 
ATOM     77  C27 non d ame     -11.387  15.986  64.419  0.00  0.00     0.085 C 
ATOM     78  H38 non d ame     -10.807  15.660  66.227  0.00  0.00     0.036 H 
ATOM     79  H39 non d ame      -9.535  15.649  64.832  0.00  0.00     0.036 H 
ATOM     80  N5  non d ame     -12.390  14.956  63.960  0.00  0.00    -0.049 N 
ATOM     81  H40 non d ame     -11.891  16.715  65.055  0.00  0.00     0.075 H 
ATOM     82  H41 non d ame     -10.805  16.322  63.562  0.00  0.00     0.075 H 
ATOM     83  C28 non d ame     -11.743  13.519  64.312  0.00  0.00     0.193 C 
ATOM     84  H42 non d ame     -13.214  15.086  64.528  0.00  0.00     0.280 HD
ATOM     85  H43 non d ame     -12.450  15.043  62.955  0.00  0.00     0.280 HD
ATOM     86  H44 non d ame     -11.304  12.902  63.528  0.00  0.00     0.129 H 
ATOM     87  H37 non d ame      -9.985  13.200  64.433  0.00  0.00     0.046 H 
BRANCH  83  88
ATOM     88  O6  non d ame     -12.711  12.688  64.955  0.00  0.00    -0.369 OA
ATOM     89  H45 non d ame     -12.262  12.032  65.494  0.00  0.00     0.212 HD
ENDBRANCH  83  88
ENDBRANCH  72  75
ENDBRANCH  47  72
ENDBRANCH  45  47
ENDBRANCH   1  43
BRANCH   1  90
ATOM     90  C16 non d ame     -10.602   9.896  70.381  0.00  0.00    -0.035 C 
ATOM     91  H21 non d ame      -9.671   9.526  70.811  0.00  0.00     0.037 H 
ATOM     92  H22 non d ame     -10.685  10.940  70.079  0.00  0.00     0.037 H 
BRANCH  90  93
ATOM     93  C17 non d ame     -11.709   9.658  71.456  0.00  0.00    -0.059 C 
ATOM     94  H23 non d ame     -11.602  10.431  72.218  0.00  0.00     0.038 H 
BRANCH  93  95
ATOM     95  C18 non d ame     -13.148   9.776  70.857  0.00  0.00    -0.073 C 
ATOM     96  H24 non d ame     -13.510   8.785  70.586  0.00  0.00     0.028 H 
ATOM     97  H25 non d ame     -13.815  10.216  71.599  0.00  0.00     0.028 H 
ATOM     98  H26 non d ame     -13.121  10.410  69.971  0.00  0.00     0.028 H 
ENDBRANCH  93  95
BRANCH  93  99
ATOM     99  C19 non d ame     -11.517   8.307  72.150  0.00  0.00    -0.073 C 
ATOM    100  H27 non d ame     -12.072   8.298  73.088  0.00  0.00     0.028 H 
ATOM    101  H28 non d ame     -11.885   7.511  71.502  0.00  0.00     0.028 H 
ATOM    102  H29 non d ame     -10.458   8.150  72.353  0.00  0.00     0.028 H 
ENDBRANCH  93  99
ENDBRANCH  90  93
ENDBRANCH   1  90
TORSDOF 26
ENDMDL
MODEL 18
REMARK VINA RESULT:      -6.4      4.119      8.316
REMARK  26 active torsions:
REMARK  status: ('A' for Active; 'I' for Inactive)
REMARK    1  A    between atoms: C2_2  and  C3_3 
REMARK    2  A    between atoms: C4_6  and  C5_7 
REMARK       I    between atoms: C5_7  and  N2_9 
REMARK    3  A    between atoms: N2_9  and  C6_10 
REMARK    4  A    between atoms: C6_10  and  C7_11 
REMARK    5  A    between atoms: C6_10  and  C8_13 
REMARK       I    between atoms: C7_11  and  N3_14 
REMARK    6  A    between atoms: N3_14  and  C9_15 
REMARK    7  A    between atoms: C9_15  and  C10_16 
REMARK    8  A    between atoms: C9_15  and  C11_18 
REMARK       I    between atoms: C10_16  and  N4_21 
REMARK    9  A    between atoms: C11_18  and  C12_19 
REMARK   10  A    between atoms: C11_18  and  C13_20 
REMARK   11  A    between atoms: N4_21  and  C14_22 
REMARK   12  A    between atoms: C14_22  and  C15_23 
REMARK   13  A    between atoms: C14_22  and  C16_25 
REMARK       I    between atoms: C15_23  and  N6_40 
REMARK   14  A    between atoms: C16_25  and  C17_26 
REMARK   15  A    between atoms: C17_26  and  C18_27 
REMARK   16  A    between atoms: C17_26  and  C19_28 
REMARK   17  A    between atoms: C20_29  and  C21_30 
REMARK   18  A    between atoms: C20_29  and  C24_33 
REMARK   19  A    between atoms: C20_29  and  N6_40 
REMARK   20  A    between atoms: C21_30  and  C22_31 
REMARK   21  A    between atoms: C22_31  and  C23_32 
REMARK   22  A    between atoms: C23_32  and  O8_43 
REMARK   23  A    between atoms: C24_33  and  C25_34 
REMARK   24  A    between atoms: C28_38  and  O6_39 
REMARK   25  A    between atoms: C29_42  and  O8_43 
REMARK   26  A    between atoms: C29_42  and  C35_49 
ROOT
ATOM      1  C14 non d ame     -10.430   9.704  69.074  0.00  0.00     0.089 C 
ATOM      2  H20 non d ame     -10.902   8.724  68.993  0.00  0.00     0.087 H 
ENDROOT
BRANCH   1   3
ATOM      3  N4  non d ame      -9.644   9.914  67.868  0.00  0.00    -0.346 N 
ATOM      4  C10 non d ame      -9.945   9.129  66.616  0.00  0.00     0.241 C 
ATOM      5  O4  non d ame     -10.823   8.331  66.605  0.00  0.00    -0.271 OA
ATOM      6  H19 non d ame      -8.899  10.596  67.899  0.00  0.00     0.163 HD
BRANCH   4   7
ATOM      7  C9  non d ame      -9.124   9.363  65.375  0.00  0.00     0.092 C 
ATOM      8  H11 non d ame      -8.191   9.855  65.650  0.00  0.00     0.088 H 
BRANCH   7   9
ATOM      9  N3  non d ame      -8.773   8.074  64.770  0.00  0.00    -0.346 N 
ATOM     10  C7  non d ame      -7.388   7.690  64.647  0.00  0.00     0.240 C 
ATOM     11  O3  non d ame      -6.544   8.406  65.027  0.00  0.00    -0.271 OA
ATOM     12  H10 non d ame      -9.490   7.447  64.436  0.00  0.00     0.163 HD
BRANCH  10  13
ATOM     13  C6  non d ame      -7.021   6.319  63.999  0.00  0.00     0.086 C 
ATOM     14  H6  non d ame      -6.170   6.387  63.322  0.00  0.00     0.086 H 
BRANCH  13  15
ATOM     15  N2  non d ame      -6.643   5.388  65.050  0.00  0.00    -0.343 N 
ATOM     16  C5  non d ame      -5.229   5.063  65.251  0.00  0.00     0.273 C 
ATOM     17  O2  non d ame      -4.404   5.554  64.561  0.00  0.00    -0.266 OA
ATOM     18  H5  non d ame      -7.355   4.972  65.633  0.00  0.00     0.163 HD
BRANCH  16  19
ATOM     19  C4  non d ame      -4.815   4.082  66.359  0.00  0.00     0.154 A 
ATOM     20  C1  non d ame      -4.098   2.853  66.202  0.00  0.00    -0.017 A 
ATOM     21  C2  non d ame      -3.972   2.336  67.511  0.00  0.00     0.077 A 
ATOM     22  H1  non d ame      -3.727   2.406  65.280  0.00  0.00     0.091 H 
ATOM     23  O1  non d ame      -4.551   3.178  68.317  0.00  0.00    -0.218 OA
ATOM     24  N1  non d ame      -5.050   4.204  67.668  0.00  0.00    -0.123 NA
BRANCH  21  25
ATOM     25  C3  non d ame      -3.286   1.035  67.904  0.00  0.00    -0.029 C 
ATOM     26  H2  non d ame      -2.278   1.250  68.263  0.00  0.00     0.036 H 
ATOM     27  H3  non d ame      -3.857   0.548  68.694  0.00  0.00     0.036 H 
ATOM     28  H4  non d ame      -3.230   0.377  67.037  0.00  0.00     0.036 H 
ENDBRANCH  21  25
ENDBRANCH  16  19
ENDBRANCH  13  15
BRANCH  13  29
ATOM     29  C8  non d ame      -8.207   5.785  63.239  0.00  0.00    -0.049 C 
ATOM     30  H7  non d ame      -8.121   4.703  63.142  0.00  0.00     0.030 H 
ATOM     31  H8  non d ame      -9.124   6.030  63.776  0.00  0.00     0.030 H 
ATOM     32  H9  non d ame      -8.236   6.236  62.247  0.00  0.00     0.030 H 
ENDBRANCH  13  29
ENDBRANCH  10  13
ENDBRANCH   7   9
BRANCH   7  33
ATOM     33  C11 non d ame      -9.952  10.202  64.357  0.00  0.00    -0.033 C 
ATOM     34  H12 non d ame     -10.782   9.582  64.018  0.00  0.00     0.042 H 
BRANCH  33  35
ATOM     35  C12 non d ame     -10.559  11.473  65.029  0.00  0.00    -0.071 C 
ATOM     36  H13 non d ame     -10.982  11.205  65.998  0.00  0.00     0.028 H 
ATOM     37  H14 non d ame      -9.777  12.218  65.169  0.00  0.00     0.028 H 
ATOM     38  H15 non d ame     -11.342  11.882  64.391  0.00  0.00     0.028 H 
ENDBRANCH  33  35
BRANCH  33  39
ATOM     39  C13 non d ame      -9.089  10.578  63.110  0.00  0.00    -0.071 C 
ATOM     40  H16 non d ame      -8.032  10.509  63.366  0.00  0.00     0.028 H 
ATOM     41  H17 non d ame      -9.311   9.891  62.294  0.00  0.00     0.028 H 
ATOM     42  H18 non d ame      -9.322  11.597  62.801  0.00  0.00     0.028 H 
ENDBRANCH  33  39
ENDBRANCH   7  33
ENDBRANCH   4   7
ENDBRANCH   1   3
BRANCH   1  43
ATOM     43  C15 non d ame     -11.475  10.850  69.191  0.00  0.00     0.240 C 
ATOM     44  O5  non d ame     -12.623  10.628  68.979  0.00  0.00    -0.271 OA
ATOM     45  N6  non d ame     -11.045  12.225  69.574  0.00  0.00    -0.355 N 
ATOM     46  H46 non d ame     -10.073  12.426  69.761  0.00  0.00     0.162 HD
BRANCH  45  47
ATOM     47  C20 non d ame     -12.051  13.304  69.682  0.00  0.00     0.013 C 
ATOM     48  H30 non d ame     -12.936  12.994  69.127  0.00  0.00     0.072 H 
BRANCH  47  49
ATOM     49  C21 non d ame     -11.486  14.575  69.087  0.00  0.00    -0.038 C 
ATOM     50  H31 non d ame     -12.346  15.134  68.718  0.00  0.00     0.036 H 
ATOM     51  H32 non d ame     -10.848  15.003  69.861  0.00  0.00     0.036 H 
BRANCH  49  52
ATOM     52  C22 non d ame     -10.577  14.313  67.867  0.00  0.00     0.018 C 
ATOM     53  H33 non d ame      -9.700  14.944  68.011  0.00  0.00     0.048 H 
ATOM     54  H34 non d ame     -10.466  13.230  67.809  0.00  0.00     0.048 H 
BRANCH  52  55
ATOM     55  C23 non d ame     -11.204  14.752  66.514  0.00  0.00     0.259 C 
ATOM     56  O7  non d ame     -12.274  14.352  66.187  0.00  0.00    -0.265 OA
BRANCH  55  57
ATOM     57  O8  non d ame     -10.477  15.628  65.662  0.00  0.00    -0.317 OA
BRANCH  57  58
ATOM     58  C29 non d ame      -9.265  16.125  66.235  0.00  0.00     0.052 C 
ATOM     59  H47 non d ame      -9.016  15.436  67.042  0.00  0.00     0.082 H 
ATOM     60  H48 non d ame      -8.576  16.258  65.400  0.00  0.00     0.082 H 
BRANCH  58  61
ATOM     61  C35 non d ame      -9.562  17.518  66.852  0.00  0.00    -0.034 A 
ATOM     62  C30 non d ame     -10.386  18.416  66.181  0.00  0.00    -0.075 A 
ATOM     63  C31 non d ame     -10.653  19.667  66.735  0.00  0.00    -0.082 A 
ATOM     64  H49 non d ame     -10.823  18.139  65.221  0.00  0.00     0.084 H 
ATOM     65  C32 non d ame     -10.091  20.020  67.965  0.00  0.00    -0.083 A 
ATOM     66  H50 non d ame     -11.301  20.367  66.208  0.00  0.00     0.083 H 
ATOM     67  C33 non d ame      -9.267  19.122  68.629  0.00  0.00    -0.082 A 
ATOM     68  H51 non d ame     -10.295  20.995  68.406  0.00  0.00     0.083 H 
ATOM     69  C34 non d ame      -8.998  17.870  68.080  0.00  0.00    -0.075 A 
ATOM     70  H52 non d ame      -8.827  19.401  69.587  0.00  0.00     0.083 H 
ATOM     71  H53 non d ame      -8.351  17.169  68.608  0.00  0.00     0.084 H 
ENDBRANCH  58  61
ENDBRANCH  57  58
ENDBRANCH  55  57
ENDBRANCH  52  55
ENDBRANCH  49  52
ENDBRANCH  47  49
BRANCH  47  72
ATOM     72  C24 non d ame     -12.401  13.540  71.150  0.00  0.00    -0.039 C 
ATOM     73  H35 non d ame     -13.325  12.988  71.320  0.00  0.00     0.036 H 
ATOM     74  H36 non d ame     -11.501  13.280  71.708  0.00  0.00     0.036 H 
BRANCH  72  75
ATOM     75  C25 non d ame     -12.711  15.083  71.445  0.00  0.00    -0.001 C 
ATOM     76  C26 non d ame     -11.678  15.653  72.591  0.00  0.00    -0.035 C 
ATOM     77  C27 non d ame     -12.399  16.258  73.565  0.00  0.00     0.085 C 
ATOM     78  H38 non d ame     -11.199  14.822  73.108  0.00  0.00     0.036 H 
ATOM     79  H39 non d ame     -11.074  16.462  72.181  0.00  0.00     0.036 H 
ATOM     80  N5  non d ame     -13.842  15.868  73.354  0.00  0.00    -0.049 N 
ATOM     81  H40 non d ame     -12.047  15.823  74.502  0.00  0.00     0.075 H 
ATOM     82  H41 non d ame     -12.290  17.327  73.386  0.00  0.00     0.075 H 
ATOM     83  C28 non d ame     -13.920  15.245  71.867  0.00  0.00     0.193 C 
ATOM     84  H42 non d ame     -14.041  15.136  74.021  0.00  0.00     0.280 HD
ATOM     85  H43 non d ame     -14.376  16.726  73.371  0.00  0.00     0.280 HD
ATOM     86  H44 non d ame     -14.342  15.824  71.045  0.00  0.00     0.129 H 
ATOM     87  H37 non d ame     -12.807  15.668  70.530  0.00  0.00     0.046 H 
BRANCH  83  88
ATOM     88  O6  non d ame     -14.653  14.018  71.885  0.00  0.00    -0.369 OA
ATOM     89  H45 non d ame     -14.050  13.283  71.757  0.00  0.00     0.212 HD
ENDBRANCH  83  88
ENDBRANCH  72  75
ENDBRANCH  47  72
ENDBRANCH  45  47
ENDBRANCH   1  43
BRANCH   1  90
ATOM     90  C16 non d ame      -9.505   9.731  70.281  0.00  0.00    -0.035 C 
ATOM     91  H21 non d ame      -8.496   9.773  69.870  0.00  0.00     0.037 H 
ATOM     92  H22 non d ame      -9.872  10.544  70.907  0.00  0.00     0.037 H 
BRANCH  90  93
ATOM     93  C17 non d ame      -9.573   8.437  71.152  0.00  0.00    -0.059 C 
ATOM     94  H23 non d ame      -8.702   8.432  71.806  0.00  0.00     0.038 H 
BRANCH  93  95
ATOM     95  C18 non d ame     -10.848   8.401  72.055  0.00  0.00    -0.073 C 
ATOM     96  H24 non d ame     -10.628   7.851  72.970  0.00  0.00     0.028 H 
ATOM     97  H25 non d ame     -11.144   9.420  72.306  0.00  0.00     0.028 H 
ATOM     98  H26 non d ame     -11.659   7.908  71.520  0.00  0.00     0.028 H 
ENDBRANCH  93  95
BRANCH  93  99
ATOM     99  C19 non d ame      -9.491   7.183  70.277  0.00  0.00    -0.073 C 
ATOM    100  H27 non d ame     -10.327   6.522  70.509  0.00  0.00     0.028 H 
ATOM    101  H28 non d ame      -9.537   7.471  69.226  0.00  0.00     0.028 H 
ATOM    102  H29 non d ame      -8.552   6.665  70.470  0.00  0.00     0.028 H 
ENDBRANCH  93  99
ENDBRANCH  90  93
ENDBRANCH   1  90
TORSDOF 26
ENDMDL
MODEL 19
REMARK VINA RESULT:      -6.4      3.066      7.124
REMARK  26 active torsions:
REMARK  status: ('A' for Active; 'I' for Inactive)
REMARK    1  A    between atoms: C2_2  and  C3_3 
REMARK    2  A    between atoms: C4_6  and  C5_7 
REMARK       I    between atoms: C5_7  and  N2_9 
REMARK    3  A    between atoms: N2_9  and  C6_10 
REMARK    4  A    between atoms: C6_10  and  C7_11 
REMARK    5  A    between atoms: C6_10  and  C8_13 
REMARK       I    between atoms: C7_11  and  N3_14 
REMARK    6  A    between atoms: N3_14  and  C9_15 
REMARK    7  A    between atoms: C9_15  and  C10_16 
REMARK    8  A    between atoms: C9_15  and  C11_18 
REMARK       I    between atoms: C10_16  and  N4_21 
REMARK    9  A    between atoms: C11_18  and  C12_19 
REMARK   10  A    between atoms: C11_18  and  C13_20 
REMARK   11  A    between atoms: N4_21  and  C14_22 
REMARK   12  A    between atoms: C14_22  and  C15_23 
REMARK   13  A    between atoms: C14_22  and  C16_25 
REMARK       I    between atoms: C15_23  and  N6_40 
REMARK   14  A    between atoms: C16_25  and  C17_26 
REMARK   15  A    between atoms: C17_26  and  C18_27 
REMARK   16  A    between atoms: C17_26  and  C19_28 
REMARK   17  A    between atoms: C20_29  and  C21_30 
REMARK   18  A    between atoms: C20_29  and  C24_33 
REMARK   19  A    between atoms: C20_29  and  N6_40 
REMARK   20  A    between atoms: C21_30  and  C22_31 
REMARK   21  A    between atoms: C22_31  and  C23_32 
REMARK   22  A    between atoms: C23_32  and  O8_43 
REMARK   23  A    between atoms: C24_33  and  C25_34 
REMARK   24  A    between atoms: C28_38  and  O6_39 
REMARK   25  A    between atoms: C29_42  and  O8_43 
REMARK   26  A    between atoms: C29_42  and  C35_49 
ROOT
ATOM      1  C14 non d ame      -9.990  11.921  65.810  0.00  0.00     0.089 C 
ATOM      2  H20 non d ame      -9.794  12.308  64.809  0.00  0.00     0.087 H 
ENDROOT
BRANCH   1   3
ATOM      3  N4  non d ame      -9.386  10.600  65.895  0.00  0.00    -0.346 N 
ATOM      4  C10 non d ame      -8.883   9.910  64.652  0.00  0.00     0.241 C 
ATOM      5  O4  non d ame      -8.978  10.438  63.593  0.00  0.00    -0.271 OA
ATOM      6  H19 non d ame      -9.316  10.167  66.806  0.00  0.00     0.163 HD
BRANCH   4   7
ATOM      7  C9  non d ame      -8.255   8.546  64.760  0.00  0.00     0.092 C 
ATOM      8  H11 non d ame      -7.334   8.619  65.339  0.00  0.00     0.088 H 
BRANCH   7   9
ATOM      9  N3  non d ame      -9.156   7.649  65.490  0.00  0.00    -0.346 N 
ATOM     10  C7  non d ame      -8.780   7.154  66.792  0.00  0.00     0.240 C 
ATOM     11  O3  non d ame      -7.756   7.465  67.265  0.00  0.00    -0.271 OA
ATOM     12  H10 non d ame     -10.042   7.370  65.094  0.00  0.00     0.163 HD
BRANCH  10  13
ATOM     13  C6  non d ame      -9.741   6.197  67.563  0.00  0.00     0.086 C 
ATOM     14  H6  non d ame      -9.220   5.561  68.278  0.00  0.00     0.086 H 
BRANCH  13  15
ATOM     15  N2  non d ame     -10.685   6.995  68.328  0.00  0.00    -0.343 N 
ATOM     16  C5  non d ame     -10.394   7.311  69.729  0.00  0.00     0.273 C 
ATOM     17  O2  non d ame      -9.400   6.916  70.231  0.00  0.00    -0.266 OA
ATOM     18  H5  non d ame     -11.534   7.326  67.892  0.00  0.00     0.163 HD
BRANCH  16  19
ATOM     19  C4  non d ame     -11.383   8.154  70.549  0.00  0.00     0.154 A 
ATOM     20  C1  non d ame     -11.525   9.578  70.534  0.00  0.00    -0.017 A 
ATOM     21  C2  non d ame     -12.560   9.850  71.455  0.00  0.00     0.077 A 
ATOM     22  H1  non d ame     -10.963  10.303  69.944  0.00  0.00     0.091 H 
ATOM     23  O1  non d ame     -12.960   8.709  71.937  0.00  0.00    -0.218 OA
ATOM     24  N1  non d ame     -12.288   7.705  71.423  0.00  0.00    -0.123 NA
BRANCH  21  25
ATOM     25  C3  non d ame     -13.107  11.225  71.817  0.00  0.00    -0.029 C 
ATOM     26  H2  non d ame     -12.459  11.691  72.559  0.00  0.00     0.036 H 
ATOM     27  H3  non d ame     -13.144  11.847  70.923  0.00  0.00     0.036 H 
ATOM     28  H4  non d ame     -14.112  11.120  72.227  0.00  0.00     0.036 H 
ENDBRANCH  21  25
ENDBRANCH  16  19
ENDBRANCH  13  15
BRANCH  13  29
ATOM     29  C8  non d ame     -10.480   5.324  66.582  0.00  0.00    -0.049 C 
ATOM     30  H7  non d ame     -10.010   4.341  66.545  0.00  0.00     0.030 H 
ATOM     31  H8  non d ame     -11.518   5.219  66.898  0.00  0.00     0.030 H 
ATOM     32  H9  non d ame     -10.445   5.780  65.592  0.00  0.00     0.030 H 
ENDBRANCH  13  29
ENDBRANCH  10  13
ENDBRANCH   7   9
BRANCH   7  33
ATOM     33  C11 non d ame      -8.006   7.975  63.333  0.00  0.00    -0.033 C 
ATOM     34  H12 non d ame      -8.740   8.427  62.666  0.00  0.00     0.042 H 
BRANCH  33  35
ATOM     35  C12 non d ame      -6.590   8.365  62.804  0.00  0.00    -0.071 C 
ATOM     36  H13 non d ame      -5.838   7.734  63.279  0.00  0.00     0.028 H 
ATOM     37  H14 non d ame      -6.554   8.224  61.724  0.00  0.00     0.028 H 
ATOM     38  H15 non d ame      -6.389   9.410  63.041  0.00  0.00     0.028 H 
ENDBRANCH  33  35
BRANCH  33  39
ATOM     39  C13 non d ame      -8.214   6.427  63.305  0.00  0.00    -0.071 C 
ATOM     40  H16 non d ame      -9.007   6.180  62.600  0.00  0.00     0.028 H 
ATOM     41  H17 non d ame      -7.288   5.941  62.995  0.00  0.00     0.028 H 
ATOM     42  H18 non d ame      -8.491   6.080  64.300  0.00  0.00     0.028 H 
ENDBRANCH  33  39
ENDBRANCH   7  33
ENDBRANCH   4   7
ENDBRANCH   1   3
BRANCH   1  43
ATOM     43  C15 non d ame      -9.373  12.821  66.919  0.00  0.00     0.240 C 
ATOM     44  O5  non d ame      -9.493  12.516  68.061  0.00  0.00    -0.271 OA
ATOM     45  N6  non d ame      -8.625  14.058  66.556  0.00  0.00    -0.355 N 
ATOM     46  H46 non d ame      -8.513  14.324  65.588  0.00  0.00     0.162 HD
BRANCH  45  47
ATOM     47  C20 non d ame      -8.043  14.902  67.622  0.00  0.00     0.013 C 
ATOM     48  H30 non d ame      -8.523  14.632  68.563  0.00  0.00     0.072 H 
BRANCH  47  49
ATOM     49  C21 non d ame      -8.306  16.357  67.306  0.00  0.00    -0.038 C 
ATOM     50  H31 non d ame      -7.323  16.821  67.217  0.00  0.00     0.036 H 
ATOM     51  H32 non d ame      -8.988  16.355  66.456  0.00  0.00     0.036 H 
BRANCH  49  52
ATOM     52  C22 non d ame      -9.035  17.096  68.449  0.00  0.00     0.018 C 
ATOM     53  H33 non d ame      -9.152  16.363  69.248  0.00  0.00     0.048 H 
ATOM     54  H34 non d ame      -8.462  18.007  68.625  0.00  0.00     0.048 H 
BRANCH  52  55
ATOM     55  C23 non d ame     -10.472  17.558  68.080  0.00  0.00     0.259 C 
ATOM     56  O7  non d ame     -10.641  18.414  67.273  0.00  0.00    -0.265 OA
BRANCH  55  57
ATOM     57  O8  non d ame     -11.586  16.956  68.727  0.00  0.00    -0.317 OA
BRANCH  57  58
ATOM     58  C29 non d ame     -11.300  15.684  69.315  0.00  0.00     0.052 C 
ATOM     59  H47 non d ame     -11.668  14.942  68.606  0.00  0.00     0.082 H 
ATOM     60  H48 non d ame     -10.242  15.711  69.576  0.00  0.00     0.082 H 
BRANCH  58  61
ATOM     61  C35 non d ame     -12.125  15.565  70.624  0.00  0.00    -0.034 A 
ATOM     62  C30 non d ame     -11.601  16.035  71.824  0.00  0.00    -0.075 A 
ATOM     63  C31 non d ame     -12.342  15.928  72.999  0.00  0.00    -0.082 A 
ATOM     64  H49 non d ame     -10.609  16.488  71.842  0.00  0.00     0.084 H 
ATOM     65  C32 non d ame     -13.612  15.345  72.973  0.00  0.00    -0.083 A 
ATOM     66  H50 non d ame     -11.929  16.300  73.937  0.00  0.00     0.083 H 
ATOM     67  C33 non d ame     -14.130  14.874  71.774  0.00  0.00    -0.082 A 
ATOM     68  H51 non d ame     -14.198  15.258  73.888  0.00  0.00     0.083 H 
ATOM     69  C34 non d ame     -13.393  14.981  70.596  0.00  0.00    -0.075 A 
ATOM     70  H52 non d ame     -15.120  14.418  71.758  0.00  0.00     0.083 H 
ATOM     71  H53 non d ame     -13.807  14.610  69.659  0.00  0.00     0.084 H 
ENDBRANCH  58  61
ENDBRANCH  57  58
ENDBRANCH  55  57
ENDBRANCH  52  55
ENDBRANCH  49  52
ENDBRANCH  47  49
BRANCH  47  72
ATOM     72  C24 non d ame      -6.537  14.662  67.707  0.00  0.00    -0.039 C 
ATOM     73  H35 non d ame      -6.338  13.827  67.035  0.00  0.00     0.036 H 
ATOM     74  H36 non d ame      -6.078  15.633  67.519  0.00  0.00     0.036 H 
BRANCH  72  75
ATOM     75  C25 non d ame      -6.092  14.203  69.175  0.00  0.00    -0.001 C 
ATOM     76  C26 non d ame      -5.645  15.515  70.060  0.00  0.00    -0.035 C 
ATOM     77  C27 non d ame      -4.426  15.282  70.602  0.00  0.00     0.085 C 
ATOM     78  H38 non d ame      -5.474  16.368  69.404  0.00  0.00     0.036 H 
ATOM     79  H39 non d ame      -6.295  15.618  70.930  0.00  0.00     0.036 H 
ATOM     80  N5  non d ame      -3.857  14.070  69.903  0.00  0.00    -0.049 N 
ATOM     81  H40 non d ame      -3.822  16.154  70.348  0.00  0.00     0.075 H 
ATOM     82  H41 non d ame      -4.613  15.034  71.646  0.00  0.00     0.075 H 
ATOM     83  C28 non d ame      -5.095  13.384  69.127  0.00  0.00     0.193 C 
ATOM     84  H42 non d ame      -3.200  14.417  69.219  0.00  0.00     0.280 HD
ATOM     85  H43 non d ame      -3.545  13.442  70.630  0.00  0.00     0.280 HD
ATOM     86  H44 non d ame      -5.562  12.480  69.519  0.00  0.00     0.129 H 
ATOM     87  H37 non d ame      -6.809  13.519  69.630  0.00  0.00     0.046 H 
BRANCH  83  88
ATOM     88  O6  non d ame      -4.721  13.069  67.785  0.00  0.00    -0.369 OA
ATOM     89  H45 non d ame      -4.321  13.839  67.375  0.00  0.00     0.212 HD
ENDBRANCH  83  88
ENDBRANCH  72  75
ENDBRANCH  47  72
ENDBRANCH  45  47
ENDBRANCH   1  43
BRANCH   1  90
ATOM     90  C16 non d ame     -11.489  11.796  66.028  0.00  0.00    -0.035 C 
ATOM     91  H21 non d ame     -11.719  10.743  65.861  0.00  0.00     0.037 H 
ATOM     92  H22 non d ame     -11.678  12.246  67.003  0.00  0.00     0.037 H 
BRANCH  90  93
ATOM     93  C17 non d ame     -12.342  12.602  64.998  0.00  0.00    -0.059 C 
ATOM     94  H23 non d ame     -13.325  12.133  64.942  0.00  0.00     0.038 H 
BRANCH  93  95
ATOM     95  C18 non d ame     -12.547  14.088  65.436  0.00  0.00    -0.073 C 
ATOM     96  H24 non d ame     -13.543  14.419  65.141  0.00  0.00     0.028 H 
ATOM     97  H25 non d ame     -12.445  14.164  66.519  0.00  0.00     0.028 H 
ATOM     98  H26 non d ame     -11.797  14.715  64.955  0.00  0.00     0.028 H 
ENDBRANCH  93  95
BRANCH  93  99
ATOM     99  C19 non d ame     -11.724  12.528  63.599  0.00  0.00    -0.073 C 
ATOM    100  H27 non d ame     -10.956  13.296  63.500  0.00  0.00     0.028 H 
ATOM    101  H28 non d ame     -11.275  11.545  63.452  0.00  0.00     0.028 H 
ATOM    102  H29 non d ame     -12.499  12.689  62.850  0.00  0.00     0.028 H 
ENDBRANCH  93  99
ENDBRANCH  90  93
ENDBRANCH   1  90
TORSDOF 26
ENDMDL
MODEL 20
REMARK VINA RESULT:      -6.3      1.891      3.613
REMARK  26 active torsions:
REMARK  status: ('A' for Active; 'I' for Inactive)
REMARK    1  A    between atoms: C2_2  and  C3_3 
REMARK    2  A    between atoms: C4_6  and  C5_7 
REMARK       I    between atoms: C5_7  and  N2_9 
REMARK    3  A    between atoms: N2_9  and  C6_10 
REMARK    4  A    between atoms: C6_10  and  C7_11 
REMARK    5  A    between atoms: C6_10  and  C8_13 
REMARK       I    between atoms: C7_11  and  N3_14 
REMARK    6  A    between atoms: N3_14  and  C9_15 
REMARK    7  A    between atoms: C9_15  and  C10_16 
REMARK    8  A    between atoms: C9_15  and  C11_18 
REMARK       I    between atoms: C10_16  and  N4_21 
REMARK    9  A    between atoms: C11_18  and  C12_19 
REMARK   10  A    between atoms: C11_18  and  C13_20 
REMARK   11  A    between atoms: N4_21  and  C14_22 
REMARK   12  A    between atoms: C14_22  and  C15_23 
REMARK   13  A    between atoms: C14_22  and  C16_25 
REMARK       I    between atoms: C15_23  and  N6_40 
REMARK   14  A    between atoms: C16_25  and  C17_26 
REMARK   15  A    between atoms: C17_26  and  C18_27 
REMARK   16  A    between atoms: C17_26  and  C19_28 
REMARK   17  A    between atoms: C20_29  and  C21_30 
REMARK   18  A    between atoms: C20_29  and  C24_33 
REMARK   19  A    between atoms: C20_29  and  N6_40 
REMARK   20  A    between atoms: C21_30  and  C22_31 
REMARK   21  A    between atoms: C22_31  and  C23_32 
REMARK   22  A    between atoms: C23_32  and  O8_43 
REMARK   23  A    between atoms: C24_33  and  C25_34 
REMARK   24  A    between atoms: C28_38  and  O6_39 
REMARK   25  A    between atoms: C29_42  and  O8_43 
REMARK   26  A    between atoms: C29_42  and  C35_49 
ROOT
ATOM      1  C14 non d ame      -6.458  16.244  67.614  0.00  0.00     0.089 C 
ATOM      2  H20 non d ame      -5.929  16.750  66.806  0.00  0.00     0.087 H 
ENDROOT
BRANCH   1   3
ATOM      3  N4  non d ame      -7.884  16.383  67.359  0.00  0.00    -0.346 N 
ATOM      4  C10 non d ame      -8.380  17.333  66.299  0.00  0.00     0.241 C 
ATOM      5  O4  non d ame      -7.611  17.978  65.665  0.00  0.00    -0.271 OA
ATOM      6  H19 non d ame      -8.522  15.826  67.911  0.00  0.00     0.163 HD
BRANCH   4   7
ATOM      7  C9  non d ame      -9.859  17.459  66.045  0.00  0.00     0.092 C 
ATOM      8  H11 non d ame     -10.017  17.990  65.106  0.00  0.00     0.088 H 
BRANCH   7   9
ATOM      9  N3  non d ame     -10.445  16.124  65.892  0.00  0.00    -0.346 N 
ATOM     10  C7  non d ame     -11.284  15.832  64.756  0.00  0.00     0.240 C 
ATOM     11  O3  non d ame     -11.499  16.659  63.956  0.00  0.00    -0.271 OA
ATOM     12  H10 non d ame     -10.269  15.401  66.574  0.00  0.00     0.163 HD
BRANCH  10  13
ATOM     13  C6  non d ame     -11.907  14.410  64.600  0.00  0.00     0.086 C 
ATOM     14  H6  non d ame     -12.604  14.344  63.765  0.00  0.00     0.086 H 
BRANCH  13  15
ATOM     15  N2  non d ame     -10.844  13.456  64.330  0.00  0.00    -0.343 N 
ATOM     16  C5  non d ame     -11.146  12.230  63.587  0.00  0.00     0.273 C 
ATOM     17  O2  non d ame     -12.247  12.020  63.214  0.00  0.00    -0.266 OA
ATOM     18  H5  non d ame      -9.906  13.643  64.655  0.00  0.00     0.163 HD
BRANCH  16  19
ATOM     19  C4  non d ame     -10.031  11.214  63.293  0.00  0.00     0.154 A 
ATOM     20  C1  non d ame      -9.693  10.056  64.062  0.00  0.00    -0.017 A 
ATOM     21  C2  non d ame      -8.609   9.466  63.373  0.00  0.00     0.077 A 
ATOM     22  H1  non d ame     -10.161   9.698  64.979  0.00  0.00     0.091 H 
ATOM     23  O1  non d ame      -8.364  10.206  62.331  0.00  0.00    -0.218 OA
ATOM     24  N1  non d ame      -9.180  11.232  62.264  0.00  0.00    -0.123 NA
BRANCH  21  25
ATOM     25  C3  non d ame      -7.868   8.198  63.775  0.00  0.00    -0.029 C 
ATOM     26  H2  non d ame      -7.065   8.450  64.468  0.00  0.00     0.036 H 
ATOM     27  H3  non d ame      -8.561   7.509  64.257  0.00  0.00     0.036 H 
ATOM     28  H4  non d ame      -7.446   7.726  62.887  0.00  0.00     0.036 H 
ENDBRANCH  21  25
ENDBRANCH  16  19
ENDBRANCH  13  15
BRANCH  13  29
ATOM     29  C8  non d ame     -12.629  14.033  65.869  0.00  0.00    -0.049 C 
ATOM     30  H7  non d ame     -13.317  13.212  65.665  0.00  0.00     0.030 H 
ATOM     31  H8  non d ame     -11.904  13.721  66.621  0.00  0.00     0.030 H 
ATOM     32  H9  non d ame     -13.189  14.892  66.237  0.00  0.00     0.030 H 
ENDBRANCH  13  29
ENDBRANCH  10  13
ENDBRANCH   7   9
BRANCH   7  33
ATOM     33  C11 non d ame     -10.532  18.183  67.248  0.00  0.00    -0.033 C 
ATOM     34  H12 non d ame     -11.510  18.532  66.916  0.00  0.00     0.042 H 
BRANCH  33  35
ATOM     35  C12 non d ame     -10.763  17.206  68.442  0.00  0.00    -0.071 C 
ATOM     36  H13 non d ame     -10.490  16.194  68.142  0.00  0.00     0.028 H 
ATOM     37  H14 non d ame     -10.146  17.513  69.287  0.00  0.00     0.028 H 
ATOM     38  H15 non d ame     -11.813  17.228  68.731  0.00  0.00     0.028 H 
ENDBRANCH  33  35
BRANCH  33  39
ATOM     39  C13 non d ame      -9.698  19.429  67.688  0.00  0.00    -0.071 C 
ATOM     40  H16 non d ame      -8.753  19.444  67.147  0.00  0.00     0.028 H 
ATOM     41  H17 non d ame     -10.258  20.338  67.466  0.00  0.00     0.028 H 
ATOM     42  H18 non d ame      -9.503  19.375  68.759  0.00  0.00     0.028 H 
ENDBRANCH  33  39
ENDBRANCH   7  33
ENDBRANCH   4   7
ENDBRANCH   1   3
BRANCH   1  43
ATOM     43  C15 non d ame      -6.112  14.729  67.684  0.00  0.00     0.240 C 
ATOM     44  O5  non d ame      -4.977  14.385  67.752  0.00  0.00    -0.271 OA
ATOM     45  N6  non d ame      -7.198  13.707  67.676  0.00  0.00    -0.355 N 
ATOM     46  H46 non d ame      -8.166  13.988  67.624  0.00  0.00     0.162 HD
BRANCH  45  47
ATOM     47  C20 non d ame      -6.852  12.271  67.745  0.00  0.00     0.013 C 
ATOM     48  H30 non d ame      -5.874  12.139  67.283  0.00  0.00     0.072 H 
BRANCH  47  49
ATOM     49  C21 non d ame      -7.891  11.471  66.992  0.00  0.00    -0.038 C 
ATOM     50  H31 non d ame      -7.615  11.545  65.940  0.00  0.00     0.036 H 
ATOM     51  H32 non d ame      -7.923  10.497  67.480  0.00  0.00     0.036 H 
BRANCH  49  52
ATOM     52  C22 non d ame      -9.311  12.066  67.114  0.00  0.00     0.018 C 
ATOM     53  H33 non d ame      -9.246  12.825  67.894  0.00  0.00     0.048 H 
ATOM     54  H34 non d ame      -9.600  12.349  66.102  0.00  0.00     0.048 H 
BRANCH  52  55
ATOM     55  C23 non d ame     -10.379  11.046  67.596  0.00  0.00     0.259 C 
ATOM     56  O7  non d ame     -11.468  11.043  67.122  0.00  0.00    -0.265 OA
BRANCH  55  57
ATOM     57  O8  non d ame     -10.044  10.120  68.623  0.00  0.00    -0.317 OA
BRANCH  57  58
ATOM     58  C29 non d ame     -10.881   8.960  68.657  0.00  0.00     0.052 C 
ATOM     59  H47 non d ame     -10.967   8.689  69.709  0.00  0.00     0.082 H 
ATOM     60  H48 non d ame     -11.773   9.223  68.088  0.00  0.00     0.082 H 
BRANCH  58  61
ATOM     61  C35 non d ame     -10.144   7.815  67.913  0.00  0.00    -0.034 A 
ATOM     62  C30 non d ame     -10.872   6.848  67.227  0.00  0.00    -0.075 A 
ATOM     63  C31 non d ame     -10.210   5.819  66.559  0.00  0.00    -0.082 A 
ATOM     64  H49 non d ame     -11.961   6.896  67.213  0.00  0.00     0.084 H 
ATOM     65  C32 non d ame      -8.814   5.758  66.580  0.00  0.00    -0.083 A 
ATOM     66  H50 non d ame     -10.783   5.064  66.020  0.00  0.00     0.083 H 
ATOM     67  C33 non d ame      -8.092   6.724  67.268  0.00  0.00    -0.082 A 
ATOM     68  H51 non d ame      -8.288   4.958  66.060  0.00  0.00     0.083 H 
ATOM     69  C34 non d ame      -8.749   7.755  67.936  0.00  0.00    -0.075 A 
ATOM     70  H52 non d ame      -7.003   6.672  67.285  0.00  0.00     0.083 H 
ATOM     71  H53 non d ame      -8.175   8.510  68.473  0.00  0.00     0.084 H 
ENDBRANCH  58  61
ENDBRANCH  57  58
ENDBRANCH  55  57
ENDBRANCH  52  55
ENDBRANCH  49  52
ENDBRANCH  47  49
BRANCH  47  72
ATOM     72  C24 non d ame      -6.817  11.817  69.203  0.00  0.00    -0.039 C 
ATOM     73  H35 non d ame      -7.083  12.699  69.787  0.00  0.00     0.036 H 
ATOM     74  H36 non d ame      -7.444  10.927  69.245  0.00  0.00     0.036 H 
BRANCH  72  75
ATOM     75  C25 non d ame      -5.343  11.380  69.652  0.00  0.00    -0.001 C 
ATOM     76  C26 non d ame      -5.292   9.755  69.901  0.00  0.00    -0.035 C 
ATOM     77  C27 non d ame      -4.754   9.518  71.121  0.00  0.00     0.085 C 
ATOM     78  H38 non d ame      -6.304   9.359  69.987  0.00  0.00     0.036 H 
ATOM     79  H39 non d ame      -4.582   9.293  69.215  0.00  0.00     0.036 H 
ATOM     80  N5  non d ame      -4.735  10.835  71.859  0.00  0.00    -0.049 N 
ATOM     81  H40 non d ame      -5.449   8.841  71.620  0.00  0.00     0.075 H 
ATOM     82  H41 non d ame      -3.728   9.203  70.931  0.00  0.00     0.075 H 
ATOM     83  C28 non d ame      -4.991  11.973  70.743  0.00  0.00     0.193 C 
ATOM     84  H42 non d ame      -5.523  10.820  72.491  0.00  0.00     0.280 HD
ATOM     85  H43 non d ame      -3.799  10.946  72.222  0.00  0.00     0.280 HD
ATOM     86  H44 non d ame      -4.167  12.587  70.379  0.00  0.00     0.129 H 
ATOM     87  H37 non d ame      -4.572  11.807  69.010  0.00  0.00     0.046 H 
BRANCH  83  88
ATOM     88  O6  non d ame      -5.982  12.895  71.199  0.00  0.00    -0.369 OA
ATOM     89  H45 non d ame      -6.055  13.621  70.575  0.00  0.00     0.212 HD
ENDBRANCH  83  88
ENDBRANCH  72  75
ENDBRANCH  47  72
ENDBRANCH  45  47
ENDBRANCH   1  43
BRANCH   1  90
ATOM     90  C16 non d ame      -6.124  16.907  68.941  0.00  0.00    -0.035 C 
ATOM     91  H21 non d ame      -7.083  17.217  69.358  0.00  0.00     0.037 H 
ATOM     92  H22 non d ame      -5.506  16.186  69.476  0.00  0.00     0.037 H 
BRANCH  90  93
ATOM     93  C17 non d ame      -5.266  18.204  68.796  0.00  0.00    -0.059 C 
ATOM     94  H23 non d ame      -4.879  18.232  67.778  0.00  0.00     0.038 H 
BRANCH  93  95
ATOM     95  C18 non d ame      -6.112  19.498  69.020  0.00  0.00    -0.073 C 
ATOM     96  H24 non d ame      -5.691  20.313  68.431  0.00  0.00     0.028 H 
ATOM     97  H25 non d ame      -7.141  19.318  68.708  0.00  0.00     0.028 H 
ATOM     98  H26 non d ame      -6.094  19.766  70.076  0.00  0.00     0.028 H 
ENDBRANCH  93  95
BRANCH  93  99
ATOM     99  C19 non d ame      -4.061  18.170  69.740  0.00  0.00    -0.073 C 
ATOM    100  H27 non d ame      -3.764  19.190  69.985  0.00  0.00     0.028 H 
ATOM    101  H28 non d ame      -4.331  17.640  70.654  0.00  0.00     0.028 H 
ATOM    102  H29 non d ame      -3.233  17.657  69.253  0.00  0.00     0.028 H 
ENDBRANCH  93  99
ENDBRANCH  90  93
ENDBRANCH   1  90
TORSDOF 26
ENDMDL
