MODEL 1
REMARK VINA RESULT:      -7.4      0.000      0.000
REMARK  26 active torsions:
REMARK  status: ('A' for Active; 'I' for Inactive)
REMARK    1  A    between atoms: C2_2  and  C3_3 
REMARK    2  A    between atoms: C4_6  and  C5_7 
REMARK       I    between atoms: C5_7  and  N2_9 
REMARK    3  A    between atoms: N2_9  and  C6_10 
REMARK    4  A    between atoms: C6_10  and  C7_11 
REMARK    5  A    between atoms: C6_10  and  C8_13 
REMARK       I    between atoms: C7_11  and  N3_14 
REMARK    6  A    between atoms: N3_14  and  C9_15 
REMARK    7  A    between atoms: C9_15  and  C10_16 
REMARK    8  A    between atoms: C9_15  and  C11_18 
REMARK       I    between atoms: C10_16  and  N4_21 
REMARK    9  A    between atoms: C11_18  and  C12_19 
REMARK   10  A    between atoms: C11_18  and  C13_20 
REMARK   11  A    between atoms: N4_21  and  C14_22 
REMARK   12  A    between atoms: C14_22  and  C15_23 
REMARK   13  A    between atoms: C14_22  and  C16_25 
REMARK       I    between atoms: C15_23  and  N6_40 
REMARK   14  A    between atoms: C16_25  and  C17_26 
REMARK   15  A    between atoms: C17_26  and  C18_27 
REMARK   16  A    between atoms: C17_26  and  C19_28 
REMARK   17  A    between atoms: C20_29  and  C21_30 
REMARK   18  A    between atoms: C20_29  and  C24_33 
REMARK   19  A    between atoms: C20_29  and  N6_40 
REMARK   20  A    between atoms: C21_30  and  C22_31 
REMARK   21  A    between atoms: C22_31  and  C23_32 
REMARK   22  A    between atoms: C23_32  and  O8_43 
REMARK   23  A    between atoms: C24_33  and  C25_34 
REMARK   24  A    between atoms: C28_38  and  O6_39 
REMARK   25  A    between atoms: C29_42  and  O8_43 
REMARK   26  A    between atoms: C29_42  and  C35_49 
ROOT
ATOM      1  C14 non d ame     -10.062  10.430  68.417  0.00  0.00     0.089 C 
ATOM      2  H20 non d ame      -9.346  10.504  69.236  0.00  0.00     0.087 H 
ENDROOT
BRANCH   1   3
ATOM      3  N4  non d ame     -10.649   9.099  68.466  0.00  0.00    -0.346 N 
ATOM      4  C10 non d ame     -10.041   8.031  69.339  0.00  0.00     0.241 C 
ATOM      5  O4  non d ame      -9.079   8.265  69.993  0.00  0.00    -0.271 OA
ATOM      6  H19 non d ame     -11.466   8.919  67.900  0.00  0.00     0.163 HD
BRANCH   4   7
ATOM      7  C9  non d ame     -10.664   6.660  69.382  0.00  0.00     0.092 C 
ATOM      8  H11 non d ame     -11.716   6.736  69.103  0.00  0.00     0.088 H 
BRANCH   7   9
ATOM      9  N3  non d ame     -10.015   5.797  68.391  0.00  0.00    -0.346 N 
ATOM     10  C7  non d ame     -10.424   5.851  67.009  0.00  0.00     0.240 C 
ATOM     11  O3  non d ame     -11.276   6.582  66.677  0.00  0.00    -0.271 OA
ATOM     12  H10 non d ame      -9.279   5.160  68.663  0.00  0.00     0.163 HD
BRANCH  10  13
ATOM     13  C6  non d ame      -9.731   4.927  65.960  0.00  0.00     0.086 C 
ATOM     14  H6  non d ame     -10.341   4.768  65.071  0.00  0.00     0.086 H 
BRANCH  13  15
ATOM     15  N2  non d ame      -8.502   5.561  65.513  0.00  0.00    -0.343 N 
ATOM     16  C5  non d ame      -8.141   5.515  64.095  0.00  0.00     0.273 C 
ATOM     17  O2  non d ame      -8.844   4.963  63.322  0.00  0.00    -0.266 OA
ATOM     18  H5  non d ame      -7.905   6.027  66.182  0.00  0.00     0.163 HD
BRANCH  16  19
ATOM     19  C4  non d ame      -6.844   6.182  63.609  0.00  0.00     0.154 A 
ATOM     20  C1  non d ame      -6.589   7.584  63.481  0.00  0.00    -0.017 A 
ATOM     21  C2  non d ame      -5.263   7.670  62.999  0.00  0.00     0.077 A 
ATOM     22  H1  non d ame      -7.262   8.412  63.704  0.00  0.00     0.091 H 
ATOM     23  O1  non d ame      -4.819   6.454  62.870  0.00  0.00    -0.218 OA
ATOM     24  N1  non d ame      -5.723   5.568  63.219  0.00  0.00    -0.123 NA
BRANCH  21  25
ATOM     25  C3  non d ame      -4.498   8.949  62.689  0.00  0.00    -0.029 C 
ATOM     26  H2  non d ame      -5.140   9.811  62.872  0.00  0.00     0.036 H 
ATOM     27  H3  non d ame      -3.617   9.009  63.330  0.00  0.00     0.036 H 
ATOM     28  H4  non d ame      -4.186   8.943  61.644  0.00  0.00     0.036 H 
ENDBRANCH  21  25
ENDBRANCH  16  19
ENDBRANCH  13  15
BRANCH  13  29
ATOM     29  C8  non d ame      -9.425   3.591  66.587  0.00  0.00    -0.049 C 
ATOM     30  H7  non d ame     -10.217   2.883  66.340  0.00  0.00     0.030 H 
ATOM     31  H8  non d ame      -8.474   3.219  66.206  0.00  0.00     0.030 H 
ATOM     32  H9  non d ame      -9.365   3.703  67.669  0.00  0.00     0.030 H 
ENDBRANCH  13  29
ENDBRANCH  10  13
ENDBRANCH   7   9
BRANCH   7  33
ATOM     33  C11 non d ame     -10.477   6.049  70.801  0.00  0.00    -0.033 C 
ATOM     34  H12 non d ame      -9.690   6.613  71.301  0.00  0.00     0.042 H 
BRANCH  33  35
ATOM     35  C12 non d ame     -11.774   6.192  71.658  0.00  0.00    -0.071 C 
ATOM     36  H13 non d ame     -12.488   5.421  71.368  0.00  0.00     0.028 H 
ATOM     37  H14 non d ame     -11.526   6.079  72.713  0.00  0.00     0.028 H 
ATOM     38  H15 non d ame     -12.212   7.175  71.490  0.00  0.00     0.028 H 
ENDBRANCH  33  35
BRANCH  33  39
ATOM     39  C13 non d ame     -10.019   4.557  70.712  0.00  0.00    -0.071 C 
ATOM     40  H16 non d ame     -10.446   3.996  71.542  0.00  0.00     0.028 H 
ATOM     41  H17 non d ame     -10.361   4.128  69.769  0.00  0.00     0.028 H 
ATOM     42  H18 non d ame      -8.932   4.508  70.761  0.00  0.00     0.028 H 
ENDBRANCH  33  39
ENDBRANCH   7  33
ENDBRANCH   4   7
ENDBRANCH   1   3
BRANCH   1  43
ATOM     43  C15 non d ame     -11.205  11.479  68.540  0.00  0.00     0.240 C 
ATOM     44  O5  non d ame     -12.188  11.362  67.882  0.00  0.00    -0.271 OA
ATOM     45  N6  non d ame     -11.076  12.626  69.484  0.00  0.00    -0.355 N 
ATOM     46  H46 non d ame     -10.248  12.733  70.051  0.00  0.00     0.162 HD
BRANCH  45  47
ATOM     47  C20 non d ame     -12.172  13.614  69.590  0.00  0.00     0.013 C 
ATOM     48  H30 non d ame     -13.010  13.250  68.996  0.00  0.00     0.072 H 
BRANCH  47  49
ATOM     49  C21 non d ame     -11.697  14.945  69.053  0.00  0.00    -0.038 C 
ATOM     50  H31 non d ame     -12.519  15.641  69.223  0.00  0.00     0.036 H 
ATOM     51  H32 non d ame     -10.728  15.122  69.519  0.00  0.00     0.036 H 
BRANCH  49  52
ATOM     52  C22 non d ame     -11.452  14.923  67.528  0.00  0.00     0.018 C 
ATOM     53  H33 non d ame     -11.902  13.997  67.170  0.00  0.00     0.048 H 
ATOM     54  H34 non d ame     -11.811  15.883  67.158  0.00  0.00     0.048 H 
BRANCH  52  55
ATOM     55  C23 non d ame      -9.950  14.848  67.137  0.00  0.00     0.259 C 
ATOM     56  O7  non d ame      -9.175  14.268  67.826  0.00  0.00    -0.265 OA
BRANCH  55  57
ATOM     57  O8  non d ame      -9.506  15.493  65.949  0.00  0.00    -0.317 OA
BRANCH  57  58
ATOM     58  C29 non d ame      -8.450  16.435  66.157  0.00  0.00     0.052 C 
ATOM     59  H47 non d ame      -7.759  15.955  66.850  0.00  0.00     0.082 H 
ATOM     60  H48 non d ame      -8.112  16.724  65.163  0.00  0.00     0.082 H 
BRANCH  58  61
ATOM     61  C35 non d ame      -9.054  17.685  66.852  0.00  0.00    -0.034 A 
ATOM     62  C30 non d ame      -8.535  18.126  68.065  0.00  0.00    -0.075 A 
ATOM     63  C31 non d ame      -9.077  19.249  68.689  0.00  0.00    -0.082 A 
ATOM     64  H49 non d ame      -7.704  17.593  68.526  0.00  0.00     0.084 H 
ATOM     65  C32 non d ame     -10.144  19.930  68.097  0.00  0.00    -0.083 A 
ATOM     66  H50 non d ame      -8.667  19.593  69.639  0.00  0.00     0.083 H 
ATOM     67  C33 non d ame     -10.660  19.484  66.888  0.00  0.00    -0.082 A 
ATOM     68  H51 non d ame     -10.573  20.808  68.578  0.00  0.00     0.083 H 
ATOM     69  C34 non d ame     -10.120  18.364  66.259  0.00  0.00    -0.075 A 
ATOM     70  H52 non d ame     -11.494  20.016  66.429  0.00  0.00     0.083 H 
ATOM     71  H53 non d ame     -10.531  18.020  65.309  0.00  0.00     0.084 H 
ENDBRANCH  58  61
ENDBRANCH  57  58
ENDBRANCH  55  57
ENDBRANCH  52  55
ENDBRANCH  49  52
ENDBRANCH  47  49
BRANCH  47  72
ATOM     72  C24 non d ame     -12.585  13.772  71.052  0.00  0.00    -0.039 C 
ATOM     73  H35 non d ame     -13.532  13.239  71.144  0.00  0.00     0.036 H 
ATOM     74  H36 non d ame     -11.721  13.452  71.634  0.00  0.00     0.036 H 
BRANCH  72  75
ATOM     75  C25 non d ame     -12.867  15.304  71.426  0.00  0.00    -0.001 C 
ATOM     76  C26 non d ame     -11.770  15.820  72.536  0.00  0.00    -0.035 C 
ATOM     77  C27 non d ame     -12.432  16.389  73.572  0.00  0.00     0.085 C 
ATOM     78  H38 non d ame     -11.269  14.966  72.992  0.00  0.00     0.036 H 
ATOM     79  H39 non d ame     -11.182  16.642  72.127  0.00  0.00     0.036 H 
ATOM     80  N5  non d ame     -13.887  16.016  73.424  0.00  0.00    -0.049 N 
ATOM     81  H40 non d ame     -12.033  15.914  74.469  0.00  0.00     0.075 H 
ATOM     82  H41 non d ame     -12.325  17.464  73.431  0.00  0.00     0.075 H 
ATOM     83  C28 non d ame     -14.051  15.454  71.919  0.00  0.00     0.193 C 
ATOM     84  H42 non d ame     -14.056  15.258  74.070  0.00  0.00     0.280 HD
ATOM     85  H43 non d ame     -14.413  16.875  73.505  0.00  0.00     0.280 HD
ATOM     86  H44 non d ame     -14.511  16.069  71.146  0.00  0.00     0.129 H 
ATOM     87  H37 non d ame     -13.008  15.926  70.541  0.00  0.00     0.046 H 
BRANCH  83  88
ATOM     88  O6  non d ame     -14.791  14.232  71.927  0.00  0.00    -0.369 OA
ATOM     89  H45 non d ame     -14.324  13.579  72.453  0.00  0.00     0.212 HD
ENDBRANCH  83  88
ENDBRANCH  72  75
ENDBRANCH  47  72
ENDBRANCH  45  47
ENDBRANCH   1  43
BRANCH   1  90
ATOM     90  C16 non d ame      -9.345  10.608  67.089  0.00  0.00    -0.035 C 
ATOM     91  H21 non d ame     -10.051  11.138  66.448  0.00  0.00     0.037 H 
ATOM     92  H22 non d ame      -8.387  11.065  67.337  0.00  0.00     0.037 H 
BRANCH  90  93
ATOM     93  C17 non d ame      -9.018   9.262  66.368  0.00  0.00    -0.059 C 
ATOM     94  H23 non d ame      -9.667   8.495  66.790  0.00  0.00     0.038 H 
BRANCH  93  95
ATOM     95  C18 non d ame      -9.300   9.332  64.832  0.00  0.00    -0.073 C 
ATOM     96  H24 non d ame     -10.325   9.017  64.637  0.00  0.00     0.028 H 
ATOM     97  H25 non d ame      -9.162  10.356  64.484  0.00  0.00     0.028 H 
ATOM     98  H26 non d ame      -8.610   8.673  64.306  0.00  0.00     0.028 H 
ENDBRANCH  93  95
BRANCH  93  99
ATOM     99  C19 non d ame      -7.573   8.835  66.637  0.00  0.00    -0.073 C 
ATOM    100  H27 non d ame      -6.906   9.679  66.463  0.00  0.00     0.028 H 
ATOM    101  H28 non d ame      -7.479   8.503  67.671  0.00  0.00     0.028 H 
ATOM    102  H29 non d ame      -7.306   8.016  65.968  0.00  0.00     0.028 H 
ENDBRANCH  93  99
ENDBRANCH  90  93
ENDBRANCH   1  90
TORSDOF 26
ENDMDL
MODEL 2
REMARK VINA RESULT:      -7.0      3.095      9.326
REMARK  26 active torsions:
REMARK  status: ('A' for Active; 'I' for Inactive)
REMARK    1  A    between atoms: C2_2  and  C3_3 
REMARK    2  A    between atoms: C4_6  and  C5_7 
REMARK       I    between atoms: C5_7  and  N2_9 
REMARK    3  A    between atoms: N2_9  and  C6_10 
REMARK    4  A    between atoms: C6_10  and  C7_11 
REMARK    5  A    between atoms: C6_10  and  C8_13 
REMARK       I    between atoms: C7_11  and  N3_14 
REMARK    6  A    between atoms: N3_14  and  C9_15 
REMARK    7  A    between atoms: C9_15  and  C10_16 
REMARK    8  A    between atoms: C9_15  and  C11_18 
REMARK       I    between atoms: C10_16  and  N4_21 
REMARK    9  A    between atoms: C11_18  and  C12_19 
REMARK   10  A    between atoms: C11_18  and  C13_20 
REMARK   11  A    between atoms: N4_21  and  C14_22 
REMARK   12  A    between atoms: C14_22  and  C15_23 
REMARK   13  A    between atoms: C14_22  and  C16_25 
REMARK       I    between atoms: C15_23  and  N6_40 
REMARK   14  A    between atoms: C16_25  and  C17_26 
REMARK   15  A    between atoms: C17_26  and  C18_27 
REMARK   16  A    between atoms: C17_26  and  C19_28 
REMARK   17  A    between atoms: C20_29  and  C21_30 
REMARK   18  A    between atoms: C20_29  and  C24_33 
REMARK   19  A    between atoms: C20_29  and  N6_40 
REMARK   20  A    between atoms: C21_30  and  C22_31 
REMARK   21  A    between atoms: C22_31  and  C23_32 
REMARK   22  A    between atoms: C23_32  and  O8_43 
REMARK   23  A    between atoms: C24_33  and  C25_34 
REMARK   24  A    between atoms: C28_38  and  O6_39 
REMARK   25  A    between atoms: C29_42  and  O8_43 
REMARK   26  A    between atoms: C29_42  and  C35_49 
ROOT
ATOM      1  C14 non d ame      -7.816   8.926  67.402  0.00  0.00     0.089 C 
ATOM      2  H20 non d ame      -6.747   8.821  67.214  0.00  0.00     0.087 H 
ENDROOT
BRANCH   1   3
ATOM      3  N4  non d ame      -8.022  10.210  68.054  0.00  0.00    -0.346 N 
ATOM      4  C10 non d ame      -7.231  11.420  67.624  0.00  0.00     0.241 C 
ATOM      5  O4  non d ame      -6.431  11.334  66.751  0.00  0.00    -0.271 OA
ATOM      6  H19 non d ame      -8.706  10.262  68.796  0.00  0.00     0.163 HD
BRANCH   4   7
ATOM      7  C9  non d ame      -7.462  12.742  68.306  0.00  0.00     0.092 C 
ATOM      8  H11 non d ame      -7.393  13.543  67.569  0.00  0.00     0.088 H 
BRANCH   7   9
ATOM      9  N3  non d ame      -8.820  12.777  68.859  0.00  0.00    -0.346 N 
ATOM     10  C7  non d ame      -9.810  13.652  68.282  0.00  0.00     0.240 C 
ATOM     11  O3  non d ame      -9.531  14.336  67.373  0.00  0.00    -0.271 OA
ATOM     12  H10 non d ame      -9.074  12.194  69.643  0.00  0.00     0.163 HD
BRANCH  10  13
ATOM     13  C6  non d ame     -11.252  13.687  68.876  0.00  0.00     0.086 C 
ATOM     14  H6  non d ame     -12.018  13.452  68.138  0.00  0.00     0.086 H 
BRANCH  13  15
ATOM     15  N2  non d ame     -11.357  12.681  69.919  0.00  0.00    -0.343 N 
ATOM     16  C5  non d ame     -11.881  11.353  69.591  0.00  0.00     0.273 C 
ATOM     17  O2  non d ame     -12.219  11.106  68.485  0.00  0.00    -0.266 OA
ATOM     18  H5  non d ame     -11.068  12.901  70.862  0.00  0.00     0.163 HD
BRANCH  16  19
ATOM     19  C4  non d ame     -11.995  10.279  70.683  0.00  0.00     0.154 A 
ATOM     20  C1  non d ame     -10.971   9.383  71.126  0.00  0.00    -0.017 A 
ATOM     21  C2  non d ame     -11.579   8.606  72.137  0.00  0.00     0.077 A 
ATOM     22  H1  non d ame      -9.943   9.309  70.769  0.00  0.00     0.091 H 
ATOM     23  O1  non d ame     -12.808   9.016  72.253  0.00  0.00    -0.218 OA
ATOM     24  N1  non d ame     -13.075   9.991  71.416  0.00  0.00    -0.123 NA
BRANCH  21  25
ATOM     25  C3  non d ame     -10.917   7.495  72.941  0.00  0.00    -0.029 C 
ATOM     26  H2  non d ame     -11.502   6.579  72.846  0.00  0.00     0.036 H 
ATOM     27  H3  non d ame      -9.910   7.324  72.563  0.00  0.00     0.036 H 
ATOM     28  H4  non d ame     -10.867   7.786  73.991  0.00  0.00     0.036 H 
ENDBRANCH  21  25
ENDBRANCH  16  19
ENDBRANCH  13  15
BRANCH  13  29
ATOM     29  C8  non d ame     -11.530  15.054  69.448  0.00  0.00    -0.049 C 
ATOM     30  H7  non d ame     -10.630  15.665  69.384  0.00  0.00     0.030 H 
ATOM     31  H8  non d ame     -12.332  15.529  68.882  0.00  0.00     0.030 H 
ATOM     32  H9  non d ame     -11.829  14.957  70.491  0.00  0.00     0.030 H 
ENDBRANCH  13  29
ENDBRANCH  10  13
ENDBRANCH   7   9
BRANCH   7  33
ATOM     33  C11 non d ame      -6.431  12.918  69.459  0.00  0.00    -0.033 C 
ATOM     34  H12 non d ame      -6.910  13.507  70.241  0.00  0.00     0.042 H 
BRANCH  33  35
ATOM     35  C12 non d ame      -6.036  11.543  70.083  0.00  0.00    -0.071 C 
ATOM     36  H13 non d ame      -6.589  10.746  69.585  0.00  0.00     0.028 H 
ATOM     37  H14 non d ame      -4.967  11.378  69.952  0.00  0.00     0.028 H 
ATOM     38  H15 non d ame      -6.277  11.543  71.145  0.00  0.00     0.028 H 
ENDBRANCH  33  35
BRANCH  33  39
ATOM     39  C13 non d ame      -5.170  13.700  68.968  0.00  0.00    -0.071 C 
ATOM     40  H16 non d ame      -4.661  14.142  69.824  0.00  0.00     0.028 H 
ATOM     41  H17 non d ame      -4.494  13.014  68.457  0.00  0.00     0.028 H 
ATOM     42  H18 non d ame      -5.477  14.487  68.281  0.00  0.00     0.028 H 
ENDBRANCH  33  39
ENDBRANCH   7  33
ENDBRANCH   4   7
ENDBRANCH   1   3
BRANCH   1  43
ATOM     43  C15 non d ame      -8.648   8.899  66.088  0.00  0.00     0.240 C 
ATOM     44  O5  non d ame      -9.739   8.427  66.088  0.00  0.00    -0.271 OA
ATOM     45  N6  non d ame      -8.087   9.469  64.829  0.00  0.00    -0.355 N 
ATOM     46  H46 non d ame      -7.164   9.876  64.817  0.00  0.00     0.162 HD
BRANCH  45  47
ATOM     47  C20 non d ame      -8.892   9.436  63.588  0.00  0.00     0.013 C 
ATOM     48  H30 non d ame      -9.714   8.737  63.740  0.00  0.00     0.072 H 
BRANCH  47  49
ATOM     49  C21 non d ame      -8.023   8.971  62.442  0.00  0.00    -0.038 C 
ATOM     50  H31 non d ame      -7.843   7.911  62.619  0.00  0.00     0.036 H 
ATOM     51  H32 non d ame      -8.535   9.293  61.535  0.00  0.00     0.036 H 
BRANCH  49  52
ATOM     52  C22 non d ame      -6.637   9.652  62.426  0.00  0.00     0.018 C 
ATOM     53  H33 non d ame      -6.358   9.730  61.374  0.00  0.00     0.048 H 
ATOM     54  H34 non d ame      -6.744  10.554  63.029  0.00  0.00     0.048 H 
BRANCH  52  55
ATOM     55  C23 non d ame      -5.519   8.813  63.104  0.00  0.00     0.259 C 
ATOM     56  O7  non d ame      -4.990   9.202  64.095  0.00  0.00    -0.265 OA
BRANCH  55  57
ATOM     57  O8  non d ame      -5.123   7.578  62.520  0.00  0.00    -0.317 OA
BRANCH  57  58
ATOM     58  C29 non d ame      -4.945   6.518  63.464  0.00  0.00     0.052 C 
ATOM     59  H47 non d ame      -4.411   5.733  62.929  0.00  0.00     0.082 H 
ATOM     60  H48 non d ame      -4.498   6.979  64.345  0.00  0.00     0.082 H 
BRANCH  58  61
ATOM     61  C35 non d ame      -6.349   5.981  63.851  0.00  0.00    -0.034 A 
ATOM     62  C30 non d ame      -7.270   5.659  62.859  0.00  0.00    -0.075 A 
ATOM     63  C31 non d ame      -8.531   5.177  63.206  0.00  0.00    -0.082 A 
ATOM     64  H49 non d ame      -7.003   5.784  61.810  0.00  0.00     0.084 H 
ATOM     65  C32 non d ame      -8.871   5.019  64.553  0.00  0.00    -0.083 A 
ATOM     66  H50 non d ame      -9.249   4.923  62.427  0.00  0.00     0.083 H 
ATOM     67  C33 non d ame      -7.950   5.345  65.539  0.00  0.00    -0.082 A 
ATOM     68  H51 non d ame      -9.854   4.642  64.833  0.00  0.00     0.083 H 
ATOM     69  C34 non d ame      -6.688   5.825  65.197  0.00  0.00    -0.075 A 
ATOM     70  H52 non d ame      -8.219   5.222  66.589  0.00  0.00     0.083 H 
ATOM     71  H53 non d ame      -5.970   6.077  65.977  0.00  0.00     0.084 H 
ENDBRANCH  58  61
ENDBRANCH  57  58
ENDBRANCH  55  57
ENDBRANCH  52  55
ENDBRANCH  49  52
ENDBRANCH  47  49
BRANCH  47  72
ATOM     72  C24 non d ame      -9.431  10.833  63.286  0.00  0.00    -0.039 C 
ATOM     73  H35 non d ame      -8.659  11.522  63.629  0.00  0.00     0.036 H 
ATOM     74  H36 non d ame      -9.715  10.812  62.234  0.00  0.00     0.036 H 
BRANCH  72  75
ATOM     75  C25 non d ame     -10.757  11.151  64.127  0.00  0.00    -0.001 C 
ATOM     76  C26 non d ame     -11.871  11.879  63.162  0.00  0.00    -0.035 C 
ATOM     77  C27 non d ame     -12.303  13.010  63.771  0.00  0.00     0.085 C 
ATOM     78  H38 non d ame     -11.395  12.246  62.253  0.00  0.00     0.036 H 
ATOM     79  H39 non d ame     -12.769  11.265  63.098  0.00  0.00     0.036 H 
ATOM     80  N5  non d ame     -11.351  13.291  64.908  0.00  0.00    -0.049 N 
ATOM     81  H40 non d ame     -12.208  13.798  63.024  0.00  0.00     0.075 H 
ATOM     82  H41 non d ame     -13.282  12.763  64.181  0.00  0.00     0.075 H 
ATOM     83  C28 non d ame     -10.502  11.934  65.122  0.00  0.00     0.193 C 
ATOM     84  H42 non d ame     -10.725  14.014  64.584  0.00  0.00     0.280 HD
ATOM     85  H43 non d ame     -11.921  13.446  65.727  0.00  0.00     0.280 HD
ATOM     86  H44 non d ame     -10.721  11.270  65.958  0.00  0.00     0.129 H 
ATOM     87  H37 non d ame     -11.091  10.293  64.711  0.00  0.00     0.046 H 
BRANCH  83  88
ATOM     88  O6  non d ame      -9.110  12.236  65.228  0.00  0.00    -0.369 OA
ATOM     89  H45 non d ame      -8.605  11.419  65.229  0.00  0.00     0.212 HD
ENDBRANCH  83  88
ENDBRANCH  72  75
ENDBRANCH  47  72
ENDBRANCH  45  47
ENDBRANCH   1  43
BRANCH   1  90
ATOM     90  C16 non d ame      -8.288   7.817  68.329  0.00  0.00    -0.035 C 
ATOM     91  H21 non d ame      -9.100   8.253  68.910  0.00  0.00     0.037 H 
ATOM     92  H22 non d ame      -8.479   6.961  67.681  0.00  0.00     0.037 H 
BRANCH  90  93
ATOM     93  C17 non d ame      -7.206   7.358  69.357  0.00  0.00    -0.059 C 
ATOM     94  H23 non d ame      -6.293   7.914  69.148  0.00  0.00     0.038 H 
BRANCH  93  95
ATOM     95  C18 non d ame      -7.625   7.667  70.831  0.00  0.00    -0.073 C 
ATOM     96  H24 non d ame      -6.829   8.224  71.325  0.00  0.00     0.028 H 
ATOM     97  H25 non d ame      -8.539   8.261  70.831  0.00  0.00     0.028 H 
ATOM     98  H26 non d ame      -7.799   6.732  71.362  0.00  0.00     0.028 H 
ENDBRANCH  93  95
BRANCH  93  99
ATOM     99  C19 non d ame      -6.882   5.872  69.184  0.00  0.00    -0.073 C 
ATOM    100  H27 non d ame      -7.237   5.534  68.210  0.00  0.00     0.028 H 
ATOM    101  H28 non d ame      -5.804   5.725  69.249  0.00  0.00     0.028 H 
ATOM    102  H29 non d ame      -7.374   5.298  69.969  0.00  0.00     0.028 H 
ENDBRANCH  93  99
ENDBRANCH  90  93
ENDBRANCH   1  90
TORSDOF 26
ENDMDL
MODEL 3
REMARK VINA RESULT:      -7.0      2.479      4.623
REMARK  26 active torsions:
REMARK  status: ('A' for Active; 'I' for Inactive)
REMARK    1  A    between atoms: C2_2  and  C3_3 
REMARK    2  A    between atoms: C4_6  and  C5_7 
REMARK       I    between atoms: C5_7  and  N2_9 
REMARK    3  A    between atoms: N2_9  and  C6_10 
REMARK    4  A    between atoms: C6_10  and  C7_11 
REMARK    5  A    between atoms: C6_10  and  C8_13 
REMARK       I    between atoms: C7_11  and  N3_14 
REMARK    6  A    between atoms: N3_14  and  C9_15 
REMARK    7  A    between atoms: C9_15  and  C10_16 
REMARK    8  A    between atoms: C9_15  and  C11_18 
REMARK       I    between atoms: C10_16  and  N4_21 
REMARK    9  A    between atoms: C11_18  and  C12_19 
REMARK   10  A    between atoms: C11_18  and  C13_20 
REMARK   11  A    between atoms: N4_21  and  C14_22 
REMARK   12  A    between atoms: C14_22  and  C15_23 
REMARK   13  A    between atoms: C14_22  and  C16_25 
REMARK       I    between atoms: C15_23  and  N6_40 
REMARK   14  A    between atoms: C16_25  and  C17_26 
REMARK   15  A    between atoms: C17_26  and  C18_27 
REMARK   16  A    between atoms: C17_26  and  C19_28 
REMARK   17  A    between atoms: C20_29  and  C21_30 
REMARK   18  A    between atoms: C20_29  and  C24_33 
REMARK   19  A    between atoms: C20_29  and  N6_40 
REMARK   20  A    between atoms: C21_30  and  C22_31 
REMARK   21  A    between atoms: C22_31  and  C23_32 
REMARK   22  A    between atoms: C23_32  and  O8_43 
REMARK   23  A    between atoms: C24_33  and  C25_34 
REMARK   24  A    between atoms: C28_38  and  O6_39 
REMARK   25  A    between atoms: C29_42  and  O8_43 
REMARK   26  A    between atoms: C29_42  and  C35_49 
ROOT
ATOM      1  C14 non d ame     -11.531   8.290  70.600  0.00  0.00     0.089 C 
ATOM      2  H20 non d ame     -12.469   7.981  70.136  0.00  0.00     0.087 H 
ENDROOT
BRANCH   1   3
ATOM      3  N4  non d ame     -10.619   7.158  70.538  0.00  0.00    -0.346 N 
ATOM      4  C10 non d ame     -10.712   6.164  69.408  0.00  0.00     0.241 C 
ATOM      5  O4  non d ame     -11.532   6.295  68.560  0.00  0.00    -0.271 OA
ATOM      6  H19 non d ame      -9.930   7.062  71.271  0.00  0.00     0.163 HD
BRANCH   4   7
ATOM      7  C9  non d ame      -9.756   5.002  69.357  0.00  0.00     0.092 C 
ATOM      8  H11 non d ame     -10.307   4.095  69.108  0.00  0.00     0.088 H 
BRANCH   7   9
ATOM      9  N3  non d ame      -8.775   5.221  68.289  0.00  0.00    -0.346 N 
ATOM     10  C7  non d ame      -8.872   4.475  67.059  0.00  0.00     0.240 C 
ATOM     11  O3  non d ame      -9.731   3.694  66.911  0.00  0.00    -0.271 OA
ATOM     12  H10 non d ame      -8.028   5.890  68.403  0.00  0.00     0.163 HD
BRANCH  10  13
ATOM     13  C6  non d ame      -7.824   4.710  65.927  0.00  0.00     0.086 C 
ATOM     14  H6  non d ame      -8.039   4.134  65.027  0.00  0.00     0.086 H 
BRANCH  13  15
ATOM     15  N2  non d ame      -7.853   6.111  65.541  0.00  0.00    -0.343 N 
ATOM     16  C5  non d ame      -7.790   6.470  64.123  0.00  0.00     0.273 C 
ATOM     17  O2  non d ame      -7.712   5.625  63.300  0.00  0.00    -0.266 OA
ATOM     18  H5  non d ame      -7.917   6.827  66.251  0.00  0.00     0.163 HD
BRANCH  16  19
ATOM     19  C4  non d ame      -7.822   7.947  63.700  0.00  0.00     0.154 A 
ATOM     20  C1  non d ame      -7.864   8.465  62.367  0.00  0.00    -0.017 A 
ATOM     21  C2  non d ame      -7.880   9.869  62.522  0.00  0.00     0.077 A 
ATOM     22  H1  non d ame      -7.881   7.907  61.430  0.00  0.00     0.091 H 
ATOM     23  O1  non d ame      -7.851  10.118  63.798  0.00  0.00    -0.218 OA
ATOM     24  N1  non d ame      -7.816   9.013  64.506  0.00  0.00    -0.123 NA
BRANCH  21  25
ATOM     25  C3  non d ame      -7.924  10.899  61.401  0.00  0.00    -0.029 C 
ATOM     26  H2  non d ame      -6.907  11.165  61.111  0.00  0.00     0.036 H 
ATOM     27  H3  non d ame      -8.449  10.480  60.543  0.00  0.00     0.036 H 
ATOM     28  H4  non d ame      -8.448  11.791  61.747  0.00  0.00     0.036 H 
ENDBRANCH  21  25
ENDBRANCH  16  19
ENDBRANCH  13  15
BRANCH  13  29
ATOM     29  C8  non d ame      -6.450   4.341  66.426  0.00  0.00    -0.049 C 
ATOM     30  H7  non d ame      -6.534   3.544  67.165  0.00  0.00     0.030 H 
ATOM     31  H8  non d ame      -5.840   3.998  65.590  0.00  0.00     0.030 H 
ATOM     32  H9  non d ame      -5.983   5.213  66.883  0.00  0.00     0.030 H 
ENDBRANCH  13  29
ENDBRANCH  10  13
ENDBRANCH   7   9
BRANCH   7  33
ATOM     33  C11 non d ame      -9.015   4.880  70.721  0.00  0.00    -0.033 C 
ATOM     34  H12 non d ame      -9.375   5.683  71.363  0.00  0.00     0.042 H 
BRANCH  33  35
ATOM     35  C12 non d ame      -9.345   3.529  71.429  0.00  0.00    -0.071 C 
ATOM     36  H13 non d ame      -8.438   3.122  71.876  0.00  0.00     0.028 H 
ATOM     37  H14 non d ame     -10.088   3.700  72.208  0.00  0.00     0.028 H 
ATOM     38  H15 non d ame      -9.739   2.823  70.698  0.00  0.00     0.028 H 
ENDBRANCH  33  35
BRANCH  33  39
ATOM     39  C13 non d ame      -7.473   5.061  70.538  0.00  0.00    -0.071 C 
ATOM     40  H16 non d ame      -7.240   6.122  70.455  0.00  0.00     0.028 H 
ATOM     41  H17 non d ame      -6.953   4.641  71.399  0.00  0.00     0.028 H 
ATOM     42  H18 non d ame      -7.152   4.546  69.633  0.00  0.00     0.028 H 
ENDBRANCH  33  39
ENDBRANCH   7  33
ENDBRANCH   4   7
ENDBRANCH   1   3
BRANCH   1  43
ATOM     43  C15 non d ame     -10.878   9.492  69.860  0.00  0.00     0.240 C 
ATOM     44  O5  non d ame      -9.726   9.733  70.024  0.00  0.00    -0.271 OA
ATOM     45  N6  non d ame     -11.689  10.340  68.939  0.00  0.00    -0.355 N 
ATOM     46  H46 non d ame     -12.667  10.142  68.787  0.00  0.00     0.162 HD
BRANCH  45  47
ATOM     47  C20 non d ame     -11.053  11.479  68.242  0.00  0.00     0.013 C 
ATOM     48  H30 non d ame     -10.054  11.611  68.658  0.00  0.00     0.072 H 
BRANCH  47  49
ATOM     49  C21 non d ame     -11.877  12.726  68.469  0.00  0.00    -0.038 C 
ATOM     50  H31 non d ame     -11.824  13.288  67.536  0.00  0.00     0.036 H 
ATOM     51  H32 non d ame     -12.840  12.378  68.842  0.00  0.00     0.036 H 
BRANCH  49  52
ATOM     52  C22 non d ame     -11.289  13.642  69.565  0.00  0.00     0.018 C 
ATOM     53  H33 non d ame     -11.272  13.041  70.474  0.00  0.00     0.048 H 
ATOM     54  H34 non d ame     -10.358  14.034  69.153  0.00  0.00     0.048 H 
BRANCH  52  55
ATOM     55  C23 non d ame     -12.171  14.880  69.886  0.00  0.00     0.259 C 
ATOM     56  O7  non d ame     -13.094  14.787  70.629  0.00  0.00    -0.265 OA
BRANCH  55  57
ATOM     57  O8  non d ame     -11.871  16.127  69.272  0.00  0.00    -0.317 OA
BRANCH  57  58
ATOM     58  C29 non d ame     -10.473  16.362  69.082  0.00  0.00     0.052 C 
ATOM     59  H47 non d ame     -10.075  16.592  70.071  0.00  0.00     0.082 H 
ATOM     60  H48 non d ame     -10.100  15.497  68.533  0.00  0.00     0.082 H 
BRANCH  58  61
ATOM     61  C35 non d ame     -10.315  17.618  68.185  0.00  0.00    -0.034 A 
ATOM     62  C30 non d ame      -9.950  18.836  68.750  0.00  0.00    -0.075 A 
ATOM     63  C31 non d ame      -9.808  19.965  67.945  0.00  0.00    -0.082 A 
ATOM     64  H49 non d ame      -9.774  18.906  69.824  0.00  0.00     0.084 H 
ATOM     65  C32 non d ame     -10.036  19.874  66.569  0.00  0.00    -0.083 A 
ATOM     66  H50 non d ame      -9.519  20.917  68.390  0.00  0.00     0.083 H 
ATOM     67  C33 non d ame     -10.403  18.657  66.010  0.00  0.00    -0.082 A 
ATOM     68  H51 non d ame      -9.927  20.751  65.932  0.00  0.00     0.083 H 
ATOM     69  C34 non d ame     -10.544  17.526  66.811  0.00  0.00    -0.075 A 
ATOM     70  H52 non d ame     -10.582  18.590  64.937  0.00  0.00     0.083 H 
ATOM     71  H53 non d ame     -10.832  16.574  66.365  0.00  0.00     0.084 H 
ENDBRANCH  58  61
ENDBRANCH  57  58
ENDBRANCH  55  57
ENDBRANCH  52  55
ENDBRANCH  49  52
ENDBRANCH  47  49
BRANCH  47  72
ATOM     72  C24 non d ame     -10.971  11.188  66.745  0.00  0.00    -0.039 C 
ATOM     73  H35 non d ame      -9.973  10.778  66.584  0.00  0.00     0.036 H 
ATOM     74  H36 non d ame     -11.850  10.585  66.518  0.00  0.00     0.036 H 
BRANCH  72  75
ATOM     75  C25 non d ame     -11.077  12.528  65.874  0.00  0.00    -0.001 C 
ATOM     76  C26 non d ame     -12.272  12.374  64.754  0.00  0.00    -0.035 C 
ATOM     77  C27 non d ame     -11.775  12.701  63.538  0.00  0.00     0.085 C 
ATOM     78  H38 non d ame     -12.548  11.326  64.644  0.00  0.00     0.036 H 
ATOM     79  H39 non d ame     -13.043  13.126  64.925  0.00  0.00     0.036 H 
ATOM     80  N5  non d ame     -10.272  12.747  63.673  0.00  0.00    -0.049 N 
ATOM     81  H40 non d ame     -12.047  11.875  62.880  0.00  0.00     0.075 H 
ATOM     82  H41 non d ame     -12.143  13.706  63.333  0.00  0.00     0.075 H 
ATOM     83  C28 non d ame      -9.969  12.775  65.258  0.00  0.00     0.193 C 
ATOM     84  H42 non d ame      -9.924  11.878  63.294  0.00  0.00     0.280 HD
ATOM     85  H43 non d ame      -9.975  13.626  63.274  0.00  0.00     0.280 HD
ATOM     86  H44 non d ame      -9.672  13.701  65.749  0.00  0.00     0.129 H 
ATOM     87  H37 non d ame     -11.091  13.424  66.494  0.00  0.00     0.046 H 
BRANCH  83  88
ATOM     88  O6  non d ame      -8.950  11.827  65.582  0.00  0.00    -0.369 OA
ATOM     89  H45 non d ame      -8.182  12.288  65.927  0.00  0.00     0.212 HD
ENDBRANCH  83  88
ENDBRANCH  72  75
ENDBRANCH  47  72
ENDBRANCH  45  47
ENDBRANCH   1  43
BRANCH   1  90
ATOM     90  C16 non d ame     -11.772   8.655  72.056  0.00  0.00    -0.035 C 
ATOM     91  H21 non d ame     -11.682   7.718  72.607  0.00  0.00     0.037 H 
ATOM     92  H22 non d ame     -11.087   9.477  72.264  0.00  0.00     0.037 H 
BRANCH  90  93
ATOM     93  C17 non d ame     -13.210   9.196  72.337  0.00  0.00    -0.059 C 
ATOM     94  H23 non d ame     -13.389   9.119  73.409  0.00  0.00     0.038 H 
BRANCH  93  95
ATOM     95  C18 non d ame     -13.363  10.697  71.934  0.00  0.00    -0.073 C 
ATOM     96  H24 non d ame     -14.391  10.887  71.624  0.00  0.00     0.028 H 
ATOM     97  H25 non d ame     -13.119  11.329  72.789  0.00  0.00     0.028 H 
ATOM     98  H26 non d ame     -12.687  10.924  71.110  0.00  0.00     0.028 H 
ENDBRANCH  93  95
BRANCH  93  99
ATOM     99  C19 non d ame     -14.264   8.334  71.637  0.00  0.00    -0.073 C 
ATOM    100  H27 non d ame     -14.245   8.534  70.565  0.00  0.00     0.028 H 
ATOM    101  H28 non d ame     -14.048   7.280  71.815  0.00  0.00     0.028 H 
ATOM    102  H29 non d ame     -15.251   8.573  72.034  0.00  0.00     0.028 H 
ENDBRANCH  93  99
ENDBRANCH  90  93
ENDBRANCH   1  90
TORSDOF 26
ENDMDL
MODEL 4
REMARK VINA RESULT:      -6.9      2.681      9.696
REMARK  26 active torsions:
REMARK  status: ('A' for Active; 'I' for Inactive)
REMARK    1  A    between atoms: C2_2  and  C3_3 
REMARK    2  A    between atoms: C4_6  and  C5_7 
REMARK       I    between atoms: C5_7  and  N2_9 
REMARK    3  A    between atoms: N2_9  and  C6_10 
REMARK    4  A    between atoms: C6_10  and  C7_11 
REMARK    5  A    between atoms: C6_10  and  C8_13 
REMARK       I    between atoms: C7_11  and  N3_14 
REMARK    6  A    between atoms: N3_14  and  C9_15 
REMARK    7  A    between atoms: C9_15  and  C10_16 
REMARK    8  A    between atoms: C9_15  and  C11_18 
REMARK       I    between atoms: C10_16  and  N4_21 
REMARK    9  A    between atoms: C11_18  and  C12_19 
REMARK   10  A    between atoms: C11_18  and  C13_20 
REMARK   11  A    between atoms: N4_21  and  C14_22 
REMARK   12  A    between atoms: C14_22  and  C15_23 
REMARK   13  A    between atoms: C14_22  and  C16_25 
REMARK       I    between atoms: C15_23  and  N6_40 
REMARK   14  A    between atoms: C16_25  and  C17_26 
REMARK   15  A    between atoms: C17_26  and  C18_27 
REMARK   16  A    between atoms: C17_26  and  C19_28 
REMARK   17  A    between atoms: C20_29  and  C21_30 
REMARK   18  A    between atoms: C20_29  and  C24_33 
REMARK   19  A    between atoms: C20_29  and  N6_40 
REMARK   20  A    between atoms: C21_30  and  C22_31 
REMARK   21  A    between atoms: C22_31  and  C23_32 
REMARK   22  A    between atoms: C23_32  and  O8_43 
REMARK   23  A    between atoms: C24_33  and  C25_34 
REMARK   24  A    between atoms: C28_38  and  O6_39 
REMARK   25  A    between atoms: C29_42  and  O8_43 
REMARK   26  A    between atoms: C29_42  and  C35_49 
ROOT
ATOM      1  C14 non d ame     -10.027   9.266  66.852  0.00  0.00     0.089 C 
ATOM      2  H20 non d ame     -11.038   8.859  66.875  0.00  0.00     0.087 H 
ENDROOT
BRANCH   1   3
ATOM      3  N4  non d ame     -10.131  10.679  66.521  0.00  0.00    -0.346 N 
ATOM      4  C10 non d ame     -11.264  11.509  67.071  0.00  0.00     0.241 C 
ATOM      5  O4  non d ame     -12.082  11.015  67.775  0.00  0.00    -0.271 OA
ATOM      6  H19 non d ame      -9.426  11.079  65.918  0.00  0.00     0.163 HD
BRANCH   4   7
ATOM      7  C9  non d ame     -11.353  12.971  66.723  0.00  0.00     0.092 C 
ATOM      8  H11 non d ame     -12.395  13.288  66.768  0.00  0.00     0.088 H 
BRANCH   7   9
ATOM      9  N3  non d ame     -10.619  13.756  67.720  0.00  0.00    -0.346 N 
ATOM     10  C7  non d ame     -11.322  14.346  68.833  0.00  0.00     0.240 C 
ATOM     11  O3  non d ame     -12.478  14.199  68.941  0.00  0.00    -0.271 OA
ATOM     12  H10 non d ame      -9.622  13.893  67.639  0.00  0.00     0.163 HD
BRANCH  10  13
ATOM     13  C6  non d ame     -10.536  15.183  69.889  0.00  0.00     0.086 C 
ATOM     14  H6  non d ame      -9.586  14.727  70.166  0.00  0.00     0.086 H 
BRANCH  13  15
ATOM     15  N2  non d ame     -10.223  16.484  69.322  0.00  0.00    -0.343 N 
ATOM     16  C5  non d ame      -8.945  16.682  68.634  0.00  0.00     0.273 C 
ATOM     17  O2  non d ame      -8.175  15.789  68.545  0.00  0.00    -0.266 OA
ATOM     18  H5  non d ame     -10.886  17.242  69.404  0.00  0.00     0.163 HD
BRANCH  16  19
ATOM     19  C4  non d ame      -8.601  18.051  68.027  0.00  0.00     0.154 A 
ATOM     20  C1  non d ame      -7.378  18.779  68.172  0.00  0.00    -0.017 A 
ATOM     21  C2  non d ame      -7.569  19.964  67.427  0.00  0.00     0.077 A 
ATOM     22  H1  non d ame      -6.487  18.491  68.731  0.00  0.00     0.091 H 
ATOM     23  O1  non d ame      -8.765  19.913  66.918  0.00  0.00    -0.218 OA
ATOM     24  N1  non d ame      -9.387  18.806  67.254  0.00  0.00    -0.123 NA
BRANCH  21  25
ATOM     25  C3  non d ame      -6.560  21.092  67.253  0.00  0.00    -0.029 C 
ATOM     26  H2  non d ame      -5.823  20.808  66.502  0.00  0.00     0.036 H 
ATOM     27  H3  non d ame      -7.078  21.995  66.931  0.00  0.00     0.036 H 
ATOM     28  H4  non d ame      -6.058  21.280  68.202  0.00  0.00     0.036 H 
ENDBRANCH  21  25
ENDBRANCH  16  19
ENDBRANCH  13  15
BRANCH  13  29
ATOM     29  C8  non d ame     -11.377  15.350  71.130  0.00  0.00    -0.049 C 
ATOM     30  H7  non d ame     -10.791  15.072  72.006  0.00  0.00     0.030 H 
ATOM     31  H8  non d ame     -11.692  16.389  71.218  0.00  0.00     0.030 H 
ATOM     32  H9  non d ame     -12.254  14.708  71.062  0.00  0.00     0.030 H 
ENDBRANCH  13  29
ENDBRANCH  10  13
ENDBRANCH   7   9
BRANCH   7  33
ATOM     33  C11 non d ame     -10.728  13.209  65.317  0.00  0.00    -0.033 C 
ATOM     34  H12 non d ame      -9.891  12.520  65.209  0.00  0.00     0.042 H 
BRANCH  33  35
ATOM     35  C12 non d ame     -11.748  12.889  64.180  0.00  0.00    -0.071 C 
ATOM     36  H13 non d ame     -11.758  11.815  63.992  0.00  0.00     0.028 H 
ATOM     37  H14 non d ame     -12.744  13.213  64.484  0.00  0.00     0.028 H 
ATOM     38  H15 non d ame     -11.456  13.415  63.272  0.00  0.00     0.028 H 
ENDBRANCH  33  35
BRANCH  33  39
ATOM     39  C13 non d ame     -10.176  14.665  65.190  0.00  0.00    -0.071 C 
ATOM     40  H16 non d ame     -10.013  14.901  64.138  0.00  0.00     0.028 H 
ATOM     41  H17 non d ame     -10.897  15.366  65.612  0.00  0.00     0.028 H 
ATOM     42  H18 non d ame      -9.233  14.744  65.731  0.00  0.00     0.028 H 
ENDBRANCH  33  39
ENDBRANCH   7  33
ENDBRANCH   4   7
ENDBRANCH   1   3
BRANCH   1  43
ATOM     43  C15 non d ame      -9.307   9.129  68.224  0.00  0.00     0.240 C 
ATOM     44  O5  non d ame      -8.275   9.688  68.408  0.00  0.00    -0.271 OA
ATOM     45  N6  non d ame      -9.910   8.308  69.312  0.00  0.00    -0.355 N 
ATOM     46  H46 non d ame     -10.789   7.833  69.170  0.00  0.00     0.162 HD
BRANCH  45  47
ATOM     47  C20 non d ame      -9.214   8.190  70.612  0.00  0.00     0.013 C 
ATOM     48  H30 non d ame      -8.298   8.779  70.557  0.00  0.00     0.072 H 
BRANCH  47  49
ATOM     49  C21 non d ame      -8.880   6.738  70.869  0.00  0.00    -0.038 C 
ATOM     50  H31 non d ame      -7.795   6.699  70.975  0.00  0.00     0.036 H 
ATOM     51  H32 non d ame      -9.520   6.431  71.697  0.00  0.00     0.036 H 
BRANCH  49  52
ATOM     52  C22 non d ame      -9.235   5.821  69.679  0.00  0.00     0.018 C 
ATOM     53  H33 non d ame      -9.702   4.937  70.115  0.00  0.00     0.048 H 
ATOM     54  H34 non d ame      -9.796   6.445  68.983  0.00  0.00     0.048 H 
BRANCH  52  55
ATOM     55  C23 non d ame      -7.998   5.308  68.892  0.00  0.00     0.259 C 
ATOM     56  O7  non d ame      -7.448   4.306  69.218  0.00  0.00    -0.265 OA
BRANCH  55  57
ATOM     57  O8  non d ame      -7.519   6.057  67.781  0.00  0.00    -0.317 OA
BRANCH  57  58
ATOM     58  C29 non d ame      -6.546   5.368  66.990  0.00  0.00     0.052 C 
ATOM     59  H47 non d ame      -5.613   5.914  67.129  0.00  0.00     0.082 H 
ATOM     60  H48 non d ame      -6.614   4.321  67.285  0.00  0.00     0.082 H 
BRANCH  58  61
ATOM     61  C35 non d ame      -6.968   5.486  65.502  0.00  0.00    -0.034 A 
ATOM     62  C30 non d ame      -8.253   5.122  65.111  0.00  0.00    -0.075 A 
ATOM     63  C31 non d ame      -8.632   5.228  63.773  0.00  0.00    -0.082 A 
ATOM     64  H49 non d ame      -8.962   4.754  65.852  0.00  0.00     0.084 H 
ATOM     65  C32 non d ame      -7.720   5.698  62.825  0.00  0.00    -0.083 A 
ATOM     66  H50 non d ame      -9.640   4.945  63.471  0.00  0.00     0.083 H 
ATOM     67  C33 non d ame      -6.438   6.057  63.219  0.00  0.00    -0.082 A 
ATOM     68  H51 non d ame      -8.008   5.785  61.777  0.00  0.00     0.083 H 
ATOM     69  C34 non d ame      -6.056   5.955  64.555  0.00  0.00    -0.075 A 
ATOM     70  H52 non d ame      -5.728   6.422  62.476  0.00  0.00     0.083 H 
ATOM     71  H53 non d ame      -5.047   6.240  64.857  0.00  0.00     0.084 H 
ENDBRANCH  58  61
ENDBRANCH  57  58
ENDBRANCH  55  57
ENDBRANCH  52  55
ENDBRANCH  49  52
ENDBRANCH  47  49
BRANCH  47  72
ATOM     72  C24 non d ame     -10.114   8.712  71.730  0.00  0.00    -0.039 C 
ATOM     73  H35 non d ame      -9.986   8.012  72.556  0.00  0.00     0.036 H 
ATOM     74  H36 non d ame      -9.842   9.760  71.856  0.00  0.00     0.036 H 
BRANCH  72  75
ATOM     75  C25 non d ame     -11.661   8.672  71.313  0.00  0.00    -0.001 C 
ATOM     76  C26 non d ame     -12.235  10.204  71.144  0.00  0.00    -0.035 C 
ATOM     77  C27 non d ame     -13.370  10.327  71.874  0.00  0.00     0.085 C 
ATOM     78  H38 non d ame     -11.552  10.912  71.613  0.00  0.00     0.036 H 
ATOM     79  H39 non d ame     -12.571  10.366  70.120  0.00  0.00     0.036 H 
ATOM     80  N5  non d ame     -13.443   9.123  72.782  0.00  0.00    -0.049 N 
ATOM     81  H40 non d ame     -13.230  11.222  72.481  0.00  0.00     0.075 H 
ATOM     82  H41 non d ame     -14.185  10.278  71.153  0.00  0.00     0.075 H 
ATOM     83  C28 non d ame     -12.370   8.065  72.205  0.00  0.00     0.193 C 
ATOM     84  H42 non d ame     -13.133   9.432  73.692  0.00  0.00     0.280 HD
ATOM     85  H43 non d ame     -14.369   8.736  72.669  0.00  0.00     0.280 HD
ATOM     86  H44 non d ame     -12.700   7.195  71.637  0.00  0.00     0.129 H 
ATOM     87  H37 non d ame     -11.849   7.978  70.493  0.00  0.00     0.046 H 
BRANCH  83  88
ATOM     88  O6  non d ame     -11.569   7.545  73.268  0.00  0.00    -0.369 OA
ATOM     89  H45 non d ame     -10.641   7.646  73.048  0.00  0.00     0.212 HD
ENDBRANCH  83  88
ENDBRANCH  72  75
ENDBRANCH  47  72
ENDBRANCH  45  47
ENDBRANCH   1  43
BRANCH   1  90
ATOM     90  C16 non d ame      -9.214   8.563  65.776  0.00  0.00    -0.035 C 
ATOM     91  H21 non d ame      -8.468   7.978  66.314  0.00  0.00     0.037 H 
ATOM     92  H22 non d ame      -9.946   8.062  65.142  0.00  0.00     0.037 H 
BRANCH  90  93
ATOM     93  C17 non d ame      -8.424   9.541  64.849  0.00  0.00    -0.059 C 
ATOM     94  H23 non d ame      -8.777  10.551  65.056  0.00  0.00     0.038 H 
BRANCH  93  95
ATOM     95  C18 non d ame      -6.887   9.506  65.130  0.00  0.00    -0.073 C 
ATOM     96  H24 non d ame      -6.647   8.625  65.725  0.00  0.00     0.028 H 
ATOM     97  H25 non d ame      -6.346   9.465  64.185  0.00  0.00     0.028 H 
ATOM     98  H26 non d ame      -6.598  10.404  65.676  0.00  0.00     0.028 H 
ENDBRANCH  93  95
BRANCH  93  99
ATOM     99  C19 non d ame      -8.714   9.251  63.374  0.00  0.00    -0.073 C 
ATOM    100  H27 non d ame      -7.919   9.671  62.758  0.00  0.00     0.028 H 
ATOM    101  H28 non d ame      -8.764   8.173  63.219  0.00  0.00     0.028 H 
ATOM    102  H29 non d ame      -9.666   9.702  63.096  0.00  0.00     0.028 H 
ENDBRANCH  93  99
ENDBRANCH  90  93
ENDBRANCH   1  90
TORSDOF 26
ENDMDL
MODEL 5
REMARK VINA RESULT:      -6.8      3.663      7.534
REMARK  26 active torsions:
REMARK  status: ('A' for Active; 'I' for Inactive)
REMARK    1  A    between atoms: C2_2  and  C3_3 
REMARK    2  A    between atoms: C4_6  and  C5_7 
REMARK       I    between atoms: C5_7  and  N2_9 
REMARK    3  A    between atoms: N2_9  and  C6_10 
REMARK    4  A    between atoms: C6_10  and  C7_11 
REMARK    5  A    between atoms: C6_10  and  C8_13 
REMARK       I    between atoms: C7_11  and  N3_14 
REMARK    6  A    between atoms: N3_14  and  C9_15 
REMARK    7  A    between atoms: C9_15  and  C10_16 
REMARK    8  A    between atoms: C9_15  and  C11_18 
REMARK       I    between atoms: C10_16  and  N4_21 
REMARK    9  A    between atoms: C11_18  and  C12_19 
REMARK   10  A    between atoms: C11_18  and  C13_20 
REMARK   11  A    between atoms: N4_21  and  C14_22 
REMARK   12  A    between atoms: C14_22  and  C15_23 
REMARK   13  A    between atoms: C14_22  and  C16_25 
REMARK       I    between atoms: C15_23  and  N6_40 
REMARK   14  A    between atoms: C16_25  and  C17_26 
REMARK   15  A    between atoms: C17_26  and  C18_27 
REMARK   16  A    between atoms: C17_26  and  C19_28 
REMARK   17  A    between atoms: C20_29  and  C21_30 
REMARK   18  A    between atoms: C20_29  and  C24_33 
REMARK   19  A    between atoms: C20_29  and  N6_40 
REMARK   20  A    between atoms: C21_30  and  C22_31 
REMARK   21  A    between atoms: C22_31  and  C23_32 
REMARK   22  A    between atoms: C23_32  and  O8_43 
REMARK   23  A    between atoms: C24_33  and  C25_34 
REMARK   24  A    between atoms: C28_38  and  O6_39 
REMARK   25  A    between atoms: C29_42  and  O8_43 
REMARK   26  A    between atoms: C29_42  and  C35_49 
ROOT
ATOM      1  C14 non d ame     -10.121  11.634  67.966  0.00  0.00     0.089 C 
ATOM      2  H20 non d ame      -9.686  12.031  67.049  0.00  0.00     0.087 H 
ENDROOT
BRANCH   1   3
ATOM      3  N4  non d ame      -9.028  11.351  68.884  0.00  0.00    -0.346 N 
ATOM      4  C10 non d ame      -7.597  11.434  68.412  0.00  0.00     0.241 C 
ATOM      5  O4  non d ame      -7.352  11.726  67.289  0.00  0.00    -0.271 OA
ATOM      6  H19 non d ame      -9.258  11.102  69.835  0.00  0.00     0.163 HD
BRANCH   4   7
ATOM      7  C9  non d ame      -6.478  11.143  69.377  0.00  0.00     0.092 C 
ATOM      8  H11 non d ame      -5.553  10.994  68.819  0.00  0.00     0.088 H 
BRANCH   7   9
ATOM      9  N3  non d ame      -6.274  12.302  70.252  0.00  0.00    -0.346 N 
ATOM     10  C7  non d ame      -5.181  13.210  70.002  0.00  0.00     0.240 C 
ATOM     11  O3  non d ame      -4.456  13.022  69.103  0.00  0.00    -0.271 OA
ATOM     12  H10 non d ame      -6.890  12.475  71.033  0.00  0.00     0.163 HD
BRANCH  10  13
ATOM     13  C6  non d ame      -4.967  14.439  70.939  0.00  0.00     0.086 C 
ATOM     14  H6  non d ame      -3.918  14.718  71.035  0.00  0.00     0.086 H 
BRANCH  13  15
ATOM     15  N2  non d ame      -5.654  15.588  70.373  0.00  0.00    -0.343 N 
ATOM     16  C5  non d ame      -4.978  16.887  70.337  0.00  0.00     0.273 C 
ATOM     17  O2  non d ame      -3.883  16.997  70.769  0.00  0.00    -0.266 OA
ATOM     18  H5  non d ame      -6.590  15.485  70.009  0.00  0.00     0.163 HD
BRANCH  16  19
ATOM     19  C4  non d ame      -5.691  18.110  69.740  0.00  0.00     0.154 A 
ATOM     20  C1  non d ame      -6.741  18.109  68.768  0.00  0.00    -0.017 A 
ATOM     21  C2  non d ame      -7.044  19.473  68.559  0.00  0.00     0.077 A 
ATOM     22  H1  non d ame      -7.211  17.251  68.287  0.00  0.00     0.091 H 
ATOM     23  O1  non d ame      -6.256  20.167  69.327  0.00  0.00    -0.218 OA
ATOM     24  N1  non d ame      -5.457  19.394  70.026  0.00  0.00    -0.123 NA
BRANCH  21  25
ATOM     25  C3  non d ame      -8.099  20.027  67.611  0.00  0.00    -0.029 C 
ATOM     26  H2  non d ame      -8.105  19.442  66.691  0.00  0.00     0.036 H 
ATOM     27  H3  non d ame      -9.079  19.971  68.084  0.00  0.00     0.036 H 
ATOM     28  H4  non d ame      -7.868  21.067  67.377  0.00  0.00     0.036 H 
ENDBRANCH  21  25
ENDBRANCH  16  19
ENDBRANCH  13  15
BRANCH  13  29
ATOM     29  C8  non d ame      -5.517  14.132  72.309  0.00  0.00    -0.049 C 
ATOM     30  H7  non d ame      -5.916  13.118  72.322  0.00  0.00     0.030 H 
ATOM     31  H8  non d ame      -4.720  14.218  73.048  0.00  0.00     0.030 H 
ATOM     32  H9  non d ame      -6.312  14.838  72.547  0.00  0.00     0.030 H 
ENDBRANCH  13  29
ENDBRANCH  10  13
ENDBRANCH   7   9
BRANCH   7  33
ATOM     33  C11 non d ame      -6.846   9.902  70.241  0.00  0.00    -0.033 C 
ATOM     34  H12 non d ame      -7.809  10.104  70.712  0.00  0.00     0.042 H 
BRANCH  33  35
ATOM     35  C12 non d ame      -7.014   8.625  69.360  0.00  0.00    -0.071 C 
ATOM     36  H13 non d ame      -6.381   8.709  68.476  0.00  0.00     0.028 H 
ATOM     37  H14 non d ame      -6.720   7.747  69.935  0.00  0.00     0.028 H 
ATOM     38  H15 non d ame      -8.055   8.529  69.054  0.00  0.00     0.028 H 
ENDBRANCH  33  35
BRANCH  33  39
ATOM     39  C13 non d ame      -5.793   9.676  71.373  0.00  0.00    -0.071 C 
ATOM     40  H16 non d ame      -4.914   9.184  70.958  0.00  0.00     0.028 H 
ATOM     41  H17 non d ame      -5.504  10.637  71.798  0.00  0.00     0.028 H 
ATOM     42  H18 non d ame      -6.227   9.049  72.152  0.00  0.00     0.028 H 
ENDBRANCH  33  39
ENDBRANCH   7  33
ENDBRANCH   4   7
ENDBRANCH   1   3
BRANCH   1  43
ATOM     43  C15 non d ame     -11.087  12.647  68.644  0.00  0.00     0.240 C 
ATOM     44  O5  non d ame     -12.221  12.346  68.834  0.00  0.00    -0.271 OA
ATOM     45  N6  non d ame     -10.596  13.990  69.065  0.00  0.00    -0.355 N 
ATOM     46  H46 non d ame      -9.634  14.255  68.913  0.00  0.00     0.162 HD
BRANCH  45  47
ATOM     47  C20 non d ame     -11.527  14.942  69.710  0.00  0.00     0.013 C 
ATOM     48  H30 non d ame     -12.538  14.551  69.596  0.00  0.00     0.072 H 
BRANCH  47  49
ATOM     49  C21 non d ame     -11.414  16.288  69.031  0.00  0.00    -0.038 C 
ATOM     50  H31 non d ame     -12.246  16.336  68.329  0.00  0.00     0.036 H 
ATOM     51  H32 non d ame     -11.338  17.018  69.838  0.00  0.00     0.036 H 
BRANCH  49  52
ATOM     52  C22 non d ame     -10.126  16.430  68.191  0.00  0.00     0.018 C 
ATOM     53  H33 non d ame      -9.464  17.075  68.771  0.00  0.00     0.048 H 
ATOM     54  H34 non d ame      -9.819  15.413  67.948  0.00  0.00     0.048 H 
BRANCH  52  55
ATOM     55  C23 non d ame     -10.341  17.149  66.831  0.00  0.00     0.259 C 
ATOM     56  O7  non d ame     -10.750  18.264  66.796  0.00  0.00    -0.265 OA
BRANCH  55  57
ATOM     57  O8  non d ame     -10.056  16.455  65.623  0.00  0.00    -0.317 OA
BRANCH  57  58
ATOM     58  C29 non d ame      -9.521  15.142  65.818  0.00  0.00     0.052 C 
ATOM     59  H47 non d ame      -8.615  15.101  65.214  0.00  0.00     0.082 H 
ATOM     60  H48 non d ame      -9.463  15.005  66.897  0.00  0.00     0.082 H 
BRANCH  58  61
ATOM     61  C35 non d ame     -10.540  14.120  65.247  0.00  0.00    -0.034 A 
ATOM     62  C30 non d ame     -10.130  13.180  64.307  0.00  0.00    -0.075 A 
ATOM     63  C31 non d ame     -11.044  12.261  63.793  0.00  0.00    -0.082 A 
ATOM     64  H49 non d ame      -9.092  13.162  63.973  0.00  0.00     0.084 H 
ATOM     65  C32 non d ame     -12.375  12.287  64.221  0.00  0.00    -0.083 A 
ATOM     66  H50 non d ame     -10.720  11.524  63.059  0.00  0.00     0.083 H 
ATOM     67  C33 non d ame     -12.779  13.230  65.157  0.00  0.00    -0.082 A 
ATOM     68  H51 non d ame     -13.096  11.573  63.826  0.00  0.00     0.083 H 
ATOM     69  C34 non d ame     -11.868  14.148  65.674  0.00  0.00    -0.075 A 
ATOM     70  H52 non d ame     -13.818  13.249  65.487  0.00  0.00     0.083 H 
ATOM     71  H53 non d ame     -12.194  14.884  66.410  0.00  0.00     0.084 H 
ENDBRANCH  58  61
ENDBRANCH  57  58
ENDBRANCH  55  57
ENDBRANCH  52  55
ENDBRANCH  49  52
ENDBRANCH  47  49
BRANCH  47  72
ATOM     72  C24 non d ame     -11.177  15.085  71.189  0.00  0.00    -0.039 C 
ATOM     73  H35 non d ame     -10.350  14.394  71.360  0.00  0.00     0.036 H 
ATOM     74  H36 non d ame     -11.035  16.153  71.352  0.00  0.00     0.036 H 
BRANCH  72  75
ATOM     75  C25 non d ame     -12.385  14.619  72.132  0.00  0.00    -0.001 C 
ATOM     76  C26 non d ame     -13.717  14.304  71.221  0.00  0.00    -0.035 C 
ATOM     77  C27 non d ame     -14.770  14.981  71.739  0.00  0.00     0.085 C 
ATOM     78  H38 non d ame     -13.601  14.737  70.227  0.00  0.00     0.036 H 
ATOM     79  H39 non d ame     -14.007  13.259  71.330  0.00  0.00     0.036 H 
ATOM     80  N5  non d ame     -14.211  15.982  72.721  0.00  0.00    -0.049 N 
ATOM     81  H40 non d ame     -15.214  15.517  70.900  0.00  0.00     0.075 H 
ATOM     82  H41 non d ame     -15.354  14.239  72.283  0.00  0.00     0.075 H 
ATOM     83  C28 non d ame     -12.685  15.532  72.994  0.00  0.00     0.193 C 
ATOM     84  H42 non d ame     -14.203  16.874  72.247  0.00  0.00     0.280 HD
ATOM     85  H43 non d ame     -14.737  15.869  73.576  0.00  0.00     0.280 HD
ATOM     86  H44 non d ame     -12.414  15.027  73.921  0.00  0.00     0.129 H 
ATOM     87  H37 non d ame     -12.080  13.853  72.845  0.00  0.00     0.046 H 
BRANCH  83  88
ATOM     88  O6  non d ame     -11.814  16.662  72.907  0.00  0.00    -0.369 OA
ATOM     89  H45 non d ame     -11.526  16.912  73.787  0.00  0.00     0.212 HD
ENDBRANCH  83  88
ENDBRANCH  72  75
ENDBRANCH  47  72
ENDBRANCH  45  47
ENDBRANCH   1  43
BRANCH   1  90
ATOM     90  C16 non d ame     -10.864  10.341  67.667  0.00  0.00    -0.035 C 
ATOM     91  H21 non d ame     -11.185   9.961  68.637  0.00  0.00     0.037 H 
ATOM     92  H22 non d ame     -11.606  10.603  66.912  0.00  0.00     0.037 H 
BRANCH  90  93
ATOM     93  C17 non d ame      -9.963   9.233  67.034  0.00  0.00    -0.059 C 
ATOM     94  H23 non d ame      -9.012   9.237  67.566  0.00  0.00     0.038 H 
BRANCH  93  95
ATOM     95  C18 non d ame     -10.588   7.809  67.184  0.00  0.00    -0.073 C 
ATOM     96  H24 non d ame      -9.813   7.056  67.044  0.00  0.00     0.028 H 
ATOM     97  H25 non d ame     -11.020   7.705  68.180  0.00  0.00     0.028 H 
ATOM     98  H26 non d ame     -11.367   7.674  66.434  0.00  0.00     0.028 H 
ENDBRANCH  93  95
BRANCH  93  99
ATOM     99  C19 non d ame      -9.664   9.545  65.565  0.00  0.00    -0.073 C 
ATOM    100  H27 non d ame      -9.508   8.613  65.021  0.00  0.00     0.028 H 
ATOM    101  H28 non d ame     -10.505  10.084  65.130  0.00  0.00     0.028 H 
ATOM    102  H29 non d ame      -8.766  10.159  65.500  0.00  0.00     0.028 H 
ENDBRANCH  93  99
ENDBRANCH  90  93
ENDBRANCH   1  90
TORSDOF 26
ENDMDL
MODEL 6
REMARK VINA RESULT:      -6.8      2.613      7.958
REMARK  26 active torsions:
REMARK  status: ('A' for Active; 'I' for Inactive)
REMARK    1  A    between atoms: C2_2  and  C3_3 
REMARK    2  A    between atoms: C4_6  and  C5_7 
REMARK       I    between atoms: C5_7  and  N2_9 
REMARK    3  A    between atoms: N2_9  and  C6_10 
REMARK    4  A    between atoms: C6_10  and  C7_11 
REMARK    5  A    between atoms: C6_10  and  C8_13 
REMARK       I    between atoms: C7_11  and  N3_14 
REMARK    6  A    between atoms: N3_14  and  C9_15 
REMARK    7  A    between atoms: C9_15  and  C10_16 
REMARK    8  A    between atoms: C9_15  and  C11_18 
REMARK       I    between atoms: C10_16  and  N4_21 
REMARK    9  A    between atoms: C11_18  and  C12_19 
REMARK   10  A    between atoms: C11_18  and  C13_20 
REMARK   11  A    between atoms: N4_21  and  C14_22 
REMARK   12  A    between atoms: C14_22  and  C15_23 
REMARK   13  A    between atoms: C14_22  and  C16_25 
REMARK       I    between atoms: C15_23  and  N6_40 
REMARK   14  A    between atoms: C16_25  and  C17_26 
REMARK   15  A    between atoms: C17_26  and  C18_27 
REMARK   16  A    between atoms: C17_26  and  C19_28 
REMARK   17  A    between atoms: C20_29  and  C21_30 
REMARK   18  A    between atoms: C20_29  and  C24_33 
REMARK   19  A    between atoms: C20_29  and  N6_40 
REMARK   20  A    between atoms: C21_30  and  C22_31 
REMARK   21  A    between atoms: C22_31  and  C23_32 
REMARK   22  A    between atoms: C23_32  and  O8_43 
REMARK   23  A    between atoms: C24_33  and  C25_34 
REMARK   24  A    between atoms: C28_38  and  O6_39 
REMARK   25  A    between atoms: C29_42  and  O8_43 
REMARK   26  A    between atoms: C29_42  and  C35_49 
ROOT
ATOM      1  C14 non d ame      -9.070   6.581  67.301  0.00  0.00     0.089 C 
ATOM      2  H20 non d ame      -9.289   5.818  66.554  0.00  0.00     0.087 H 
ENDROOT
BRANCH   1   3
ATOM      3  N4  non d ame      -8.942   7.852  66.604  0.00  0.00    -0.346 N 
ATOM      4  C10 non d ame      -8.488   7.891  65.167  0.00  0.00     0.241 C 
ATOM      5  O4  non d ame      -8.229   6.885  64.592  0.00  0.00    -0.271 OA
ATOM      6  H19 non d ame      -9.166   8.697  67.111  0.00  0.00     0.163 HD
BRANCH   4   7
ATOM      7  C9  non d ame      -8.367   9.215  64.459  0.00  0.00     0.092 C 
ATOM      8  H11 non d ame      -8.397   9.050  63.382  0.00  0.00     0.088 H 
BRANCH   7   9
ATOM      9  N3  non d ame      -9.516  10.059  64.801  0.00  0.00    -0.346 N 
ATOM     10  C7  non d ame     -10.099  10.921  63.802  0.00  0.00     0.240 C 
ATOM     11  O3  non d ame      -9.656  10.948  62.719  0.00  0.00    -0.271 OA
ATOM     12  H10 non d ame      -9.908  10.047  65.731  0.00  0.00     0.163 HD
BRANCH  10  13
ATOM     13  C6  non d ame     -11.320  11.819  64.172  0.00  0.00     0.086 C 
ATOM     14  H6  non d ame     -11.764  11.553  65.131  0.00  0.00     0.086 H 
BRANCH  13  15
ATOM     15  N2  non d ame     -10.872  13.197  64.290  0.00  0.00    -0.343 N 
ATOM     16  C5  non d ame     -11.646  14.140  65.101  0.00  0.00     0.273 C 
ATOM     17  O2  non d ame     -12.628  13.781  65.652  0.00  0.00    -0.266 OA
ATOM     18  H5  non d ame     -10.033  13.496  63.813  0.00  0.00     0.163 HD
BRANCH  16  19
ATOM     19  C4  non d ame     -11.183  15.599  65.235  0.00  0.00     0.154 A 
ATOM     20  C1  non d ame     -10.408  16.167  66.296  0.00  0.00    -0.017 A 
ATOM     21  C2  non d ame     -10.257  17.527  65.948  0.00  0.00     0.077 A 
ATOM     22  H1  non d ame     -10.017  15.668  67.183  0.00  0.00     0.091 H 
ATOM     23  O1  non d ame     -10.874  17.709  64.817  0.00  0.00    -0.218 OA
ATOM     24  N1  non d ame     -11.423  16.599  64.382  0.00  0.00    -0.123 NA
BRANCH  21  25
ATOM     25  C3  non d ame      -9.507  18.584  66.748  0.00  0.00    -0.029 C 
ATOM     26  H2  non d ame      -8.489  18.674  66.369  0.00  0.00     0.036 H 
ATOM     27  H3  non d ame     -10.017  19.543  66.650  0.00  0.00     0.036 H 
ATOM     28  H4  non d ame      -9.479  18.294  67.799  0.00  0.00     0.036 H 
ENDBRANCH  21  25
ENDBRANCH  16  19
ENDBRANCH  13  15
BRANCH  13  29
ATOM     29  C8  non d ame     -12.373  11.708  63.100  0.00  0.00    -0.049 C 
ATOM     30  H7  non d ame     -11.969  12.071  62.154  0.00  0.00     0.030 H 
ATOM     31  H8  non d ame     -12.672  10.666  62.990  0.00  0.00     0.030 H 
ATOM     32  H9  non d ame     -13.239  12.308  63.378  0.00  0.00     0.030 H 
ENDBRANCH  13  29
ENDBRANCH  10  13
ENDBRANCH   7   9
BRANCH   7  33
ATOM     33  C11 non d ame      -7.055   9.923  64.906  0.00  0.00    -0.033 C 
ATOM     34  H12 non d ame      -6.413   9.169  65.362  0.00  0.00     0.042 H 
BRANCH  33  35
ATOM     35  C12 non d ame      -6.286  10.518  63.685  0.00  0.00    -0.071 C 
ATOM     36  H13 non d ame      -6.690  11.502  63.445  0.00  0.00     0.028 H 
ATOM     37  H14 non d ame      -5.229  10.611  63.933  0.00  0.00     0.028 H 
ATOM     38  H15 non d ame      -6.402   9.858  62.827  0.00  0.00     0.028 H 
ENDBRANCH  33  35
BRANCH  33  39
ATOM     39  C13 non d ame      -7.349  11.020  65.979  0.00  0.00    -0.071 C 
ATOM     40  H16 non d ame      -8.279  11.531  65.731  0.00  0.00     0.028 H 
ATOM     41  H17 non d ame      -7.442  10.553  66.960  0.00  0.00     0.028 H 
ATOM     42  H18 non d ame      -6.532  11.740  65.996  0.00  0.00     0.028 H 
ENDBRANCH  33  39
ENDBRANCH   7  33
ENDBRANCH   4   7
ENDBRANCH   1   3
BRANCH   1  43
ATOM     43  C15 non d ame     -10.203   6.709  68.359  0.00  0.00     0.240 C 
ATOM     44  O5  non d ame     -11.179   6.037  68.264  0.00  0.00    -0.271 OA
ATOM     45  N6  non d ame     -10.068   7.662  69.497  0.00  0.00    -0.355 N 
ATOM     46  H46 non d ame      -9.242   8.235  69.591  0.00  0.00     0.162 HD
BRANCH  45  47
ATOM     47  C20 non d ame     -11.153   7.771  70.496  0.00  0.00     0.013 C 
ATOM     48  H30 non d ame     -12.016   7.226  70.113  0.00  0.00     0.072 H 
BRANCH  47  49
ATOM     49  C21 non d ame     -11.508   9.227  70.693  0.00  0.00    -0.038 C 
ATOM     50  H31 non d ame     -12.508   9.346  70.277  0.00  0.00     0.036 H 
ATOM     51  H32 non d ame     -11.328   9.434  71.748  0.00  0.00     0.036 H 
BRANCH  49  52
ATOM     52  C22 non d ame     -10.589  10.180  69.898  0.00  0.00     0.018 C 
ATOM     53  H33 non d ame      -9.977  10.690  70.643  0.00  0.00     0.048 H 
ATOM     54  H34 non d ame     -10.115   9.564  69.133  0.00  0.00     0.048 H 
BRANCH  52  55
ATOM     55  C23 non d ame     -11.354  11.297  69.135  0.00  0.00     0.259 C 
ATOM     56  O7  non d ame     -12.296  11.030  68.461  0.00  0.00    -0.265 OA
BRANCH  55  57
ATOM     57  O8  non d ame     -10.909  12.644  69.240  0.00  0.00    -0.317 OA
BRANCH  57  58
ATOM     58  C29 non d ame     -11.955  13.613  69.129  0.00  0.00     0.052 C 
ATOM     59  H47 non d ame     -11.547  14.418  68.517  0.00  0.00     0.082 H 
ATOM     60  H48 non d ame     -12.833  13.063  68.792  0.00  0.00     0.082 H 
BRANCH  58  61
ATOM     61  C35 non d ame     -12.242  14.173  70.548  0.00  0.00    -0.034 A 
ATOM     62  C30 non d ame     -11.667  15.373  70.953  0.00  0.00    -0.075 A 
ATOM     63  C31 non d ame     -11.924  15.876  72.227  0.00  0.00    -0.082 A 
ATOM     64  H49 non d ame     -11.015  15.920  70.271  0.00  0.00     0.084 H 
ATOM     65  C32 non d ame     -12.758  15.172  73.100  0.00  0.00    -0.083 A 
ATOM     66  H50 non d ame     -11.474  16.818  72.540  0.00  0.00     0.083 H 
ATOM     67  C33 non d ame     -13.327  13.973  72.693  0.00  0.00    -0.082 A 
ATOM     68  H51 non d ame     -12.966  15.558  74.098  0.00  0.00     0.083 H 
ATOM     69  C34 non d ame     -13.074  13.468  71.419  0.00  0.00    -0.075 A 
ATOM     70  H52 non d ame     -13.976  13.425  73.377  0.00  0.00     0.083 H 
ATOM     71  H53 non d ame     -13.526  12.526  71.106  0.00  0.00     0.084 H 
ENDBRANCH  58  61
ENDBRANCH  57  58
ENDBRANCH  55  57
ENDBRANCH  52  55
ENDBRANCH  49  52
ENDBRANCH  47  49
BRANCH  47  72
ATOM     72  C24 non d ame     -10.694   7.173  71.824  0.00  0.00    -0.039 C 
ATOM     73  H35 non d ame      -9.649   7.464  71.927  0.00  0.00     0.036 H 
ATOM     74  H36 non d ame     -11.427   7.505  72.560  0.00  0.00     0.036 H 
BRANCH  72  75
ATOM     75  C25 non d ame     -10.739   5.572  71.801  0.00  0.00    -0.001 C 
ATOM     76  C26 non d ame     -11.488   5.013  73.154  0.00  0.00    -0.035 C 
ATOM     77  C27 non d ame     -10.698   4.080  73.736  0.00  0.00     0.085 C 
ATOM     78  H38 non d ame     -11.545   5.802  73.903  0.00  0.00     0.036 H 
ATOM     79  H39 non d ame     -12.384   4.454  72.881  0.00  0.00     0.036 H 
ATOM     80  N5  non d ame      -9.338   4.187  73.089  0.00  0.00    -0.049 N 
ATOM     81  H40 non d ame     -10.618   4.377  74.782  0.00  0.00     0.075 H 
ATOM     82  H41 non d ame     -11.140   3.119  73.475  0.00  0.00     0.075 H 
ATOM     83  C28 non d ame      -9.549   5.072  71.756  0.00  0.00     0.193 C 
ATOM     84  H42 non d ame      -8.756   4.706  73.731  0.00  0.00     0.280 HD
ATOM     85  H43 non d ame      -9.077   3.250  72.815  0.00  0.00     0.280 HD
ATOM     86  H44 non d ame      -9.570   4.598  70.774  0.00  0.00     0.129 H 
ATOM     87  H37 non d ame     -11.087   5.182  70.844  0.00  0.00     0.046 H 
BRANCH  83  88
ATOM     88  O6  non d ame      -8.543   6.082  71.670  0.00  0.00    -0.369 OA
ATOM     89  H45 non d ame      -7.908   5.962  72.381  0.00  0.00     0.212 HD
ENDBRANCH  83  88
ENDBRANCH  72  75
ENDBRANCH  47  72
ENDBRANCH  45  47
ENDBRANCH   1  43
BRANCH   1  90
ATOM     90  C16 non d ame      -7.756   6.262  67.995  0.00  0.00    -0.035 C 
ATOM     91  H21 non d ame      -7.083   7.077  67.729  0.00  0.00     0.037 H 
ATOM     92  H22 non d ame      -8.016   6.089  69.040  0.00  0.00     0.037 H 
BRANCH  90  93
ATOM     93  C17 non d ame      -7.081   4.949  67.485  0.00  0.00    -0.059 C 
ATOM     94  H23 non d ame      -6.688   4.420  68.354  0.00  0.00     0.038 H 
BRANCH  93  95
ATOM     95  C18 non d ame      -8.099   4.002  66.772  0.00  0.00    -0.073 C 
ATOM     96  H24 non d ame      -8.974   3.865  67.407  0.00  0.00     0.028 H 
ATOM     97  H25 non d ame      -8.404   4.445  65.824  0.00  0.00     0.028 H 
ATOM     98  H26 non d ame      -7.628   3.036  66.587  0.00  0.00     0.028 H 
ENDBRANCH  93  95
BRANCH  93  99
ATOM     99  C19 non d ame      -5.896   5.263  66.569  0.00  0.00    -0.073 C 
ATOM    100  H27 non d ame      -5.628   4.371  66.002  0.00  0.00     0.028 H 
ATOM    101  H28 non d ame      -6.171   6.063  65.881  0.00  0.00     0.028 H 
ATOM    102  H29 non d ame      -5.045   5.580  67.172  0.00  0.00     0.028 H 
ENDBRANCH  93  99
ENDBRANCH  90  93
ENDBRANCH   1  90
TORSDOF 26
ENDMDL
MODEL 7
REMARK VINA RESULT:      -6.8      3.441     10.341
REMARK  26 active torsions:
REMARK  status: ('A' for Active; 'I' for Inactive)
REMARK    1  A    between atoms: C2_2  and  C3_3 
REMARK    2  A    between atoms: C4_6  and  C5_7 
REMARK       I    between atoms: C5_7  and  N2_9 
REMARK    3  A    between atoms: N2_9  and  C6_10 
REMARK    4  A    between atoms: C6_10  and  C7_11 
REMARK    5  A    between atoms: C6_10  and  C8_13 
REMARK       I    between atoms: C7_11  and  N3_14 
REMARK    6  A    between atoms: N3_14  and  C9_15 
REMARK    7  A    between atoms: C9_15  and  C10_16 
REMARK    8  A    between atoms: C9_15  and  C11_18 
REMARK       I    between atoms: C10_16  and  N4_21 
REMARK    9  A    between atoms: C11_18  and  C12_19 
REMARK   10  A    between atoms: C11_18  and  C13_20 
REMARK   11  A    between atoms: N4_21  and  C14_22 
REMARK   12  A    between atoms: C14_22  and  C15_23 
REMARK   13  A    between atoms: C14_22  and  C16_25 
REMARK       I    between atoms: C15_23  and  N6_40 
REMARK   14  A    between atoms: C16_25  and  C17_26 
REMARK   15  A    between atoms: C17_26  and  C18_27 
REMARK   16  A    between atoms: C17_26  and  C19_28 
REMARK   17  A    between atoms: C20_29  and  C21_30 
REMARK   18  A    between atoms: C20_29  and  C24_33 
REMARK   19  A    between atoms: C20_29  and  N6_40 
REMARK   20  A    between atoms: C21_30  and  C22_31 
REMARK   21  A    between atoms: C22_31  and  C23_32 
REMARK   22  A    between atoms: C23_32  and  O8_43 
REMARK   23  A    between atoms: C24_33  and  C25_34 
REMARK   24  A    between atoms: C28_38  and  O6_39 
REMARK   25  A    between atoms: C29_42  and  O8_43 
REMARK   26  A    between atoms: C29_42  and  C35_49 
ROOT
ATOM      1  C14 non d ame      -6.605  13.590  67.879  0.00  0.00     0.089 C 
ATOM      2  H20 non d ame      -5.838  13.510  67.108  0.00  0.00     0.087 H 
ENDROOT
BRANCH   1   3
ATOM      3  N4  non d ame      -6.961  14.997  67.997  0.00  0.00    -0.346 N 
ATOM      4  C10 non d ame      -5.986  16.067  67.577  0.00  0.00     0.241 C 
ATOM      5  O4  non d ame      -4.919  15.773  67.148  0.00  0.00    -0.271 OA
ATOM      6  H19 non d ame      -7.873  15.226  68.366  0.00  0.00     0.163 HD
BRANCH   4   7
ATOM      7  C9  non d ame      -6.374  17.517  67.701  0.00  0.00     0.092 C 
ATOM      8  H11 non d ame      -6.098  18.042  66.786  0.00  0.00     0.088 H 
BRANCH   7   9
ATOM      9  N3  non d ame      -7.829  17.625  67.839  0.00  0.00    -0.346 N 
ATOM     10  C7  non d ame      -8.641  17.945  66.690  0.00  0.00     0.240 C 
ATOM     11  O3  non d ame      -8.139  18.121  65.648  0.00  0.00    -0.271 OA
ATOM     12  H10 non d ame      -8.277  17.477  68.732  0.00  0.00     0.163 HD
BRANCH  10  13
ATOM     13  C6  non d ame     -10.189  18.061  66.844  0.00  0.00     0.086 C 
ATOM     14  H6  non d ame     -10.731  17.514  66.073  0.00  0.00     0.086 H 
BRANCH  13  15
ATOM     15  N2  non d ame     -10.580  17.481  68.119  0.00  0.00    -0.343 N 
ATOM     16  C5  non d ame     -11.102  16.113  68.159  0.00  0.00     0.273 C 
ATOM     17  O2  non d ame     -11.205  15.489  67.161  0.00  0.00    -0.266 OA
ATOM     18  H5  non d ame     -10.491  18.023  68.966  0.00  0.00     0.163 HD
BRANCH  16  19
ATOM     19  C4  non d ame     -11.518  15.487  69.499  0.00  0.00     0.154 A 
ATOM     20  C1  non d ame     -12.256  14.277  69.696  0.00  0.00    -0.017 A 
ATOM     21  C2  non d ame     -12.373  14.147  71.098  0.00  0.00     0.077 A 
ATOM     22  H1  non d ame     -12.647  13.598  68.938  0.00  0.00     0.091 H 
ATOM     23  O1  non d ame     -11.769  15.167  71.634  0.00  0.00    -0.218 OA
ATOM     24  N1  non d ame     -11.262  15.963  70.721  0.00  0.00    -0.123 NA
BRANCH  21  25
ATOM     25  C3  non d ame     -13.077  13.020  71.843  0.00  0.00    -0.029 C 
ATOM     26  H2  non d ame     -14.109  12.947  71.501  0.00  0.00     0.036 H 
ATOM     27  H3  non d ame     -12.562  12.080  71.649  0.00  0.00     0.036 H 
ATOM     28  H4  non d ame     -13.062  13.228  72.914  0.00  0.00     0.036 H 
ENDBRANCH  21  25
ENDBRANCH  16  19
ENDBRANCH  13  15
BRANCH  13  29
ATOM     29  C8  non d ame     -10.595  19.512  66.790  0.00  0.00    -0.049 C 
ATOM     30  H7  non d ame      -9.759  20.110  66.429  0.00  0.00     0.030 H 
ATOM     31  H8  non d ame     -11.443  19.627  66.116  0.00  0.00     0.030 H 
ATOM     32  H9  non d ame     -10.876  19.847  67.788  0.00  0.00     0.030 H 
ENDBRANCH  13  29
ENDBRANCH  10  13
ENDBRANCH   7   9
BRANCH   7  33
ATOM     33  C11 non d ame      -5.690  18.131  68.957  0.00  0.00    -0.033 C 
ATOM     34  H12 non d ame      -4.656  18.355  68.692  0.00  0.00     0.042 H 
BRANCH  33  35
ATOM     35  C12 non d ame      -6.368  19.473  69.375  0.00  0.00    -0.071 C 
ATOM     36  H13 non d ame      -5.603  20.234  69.531  0.00  0.00     0.028 H 
ATOM     37  H14 non d ame      -7.046  19.798  68.587  0.00  0.00     0.028 H 
ATOM     38  H15 non d ame      -6.927  19.325  70.298  0.00  0.00     0.028 H 
ENDBRANCH  33  35
BRANCH  33  39
ATOM     39  C13 non d ame      -5.675  17.111  70.140  0.00  0.00    -0.071 C 
ATOM     40  H16 non d ame      -4.752  17.227  70.708  0.00  0.00     0.028 H 
ATOM     41  H17 non d ame      -6.529  17.298  70.792  0.00  0.00     0.028 H 
ATOM     42  H18 non d ame      -5.734  16.097  69.746  0.00  0.00     0.028 H 
ENDBRANCH  33  39
ENDBRANCH   7  33
ENDBRANCH   4   7
ENDBRANCH   1   3
BRANCH   1  43
ATOM     43  C15 non d ame      -7.886  12.784  67.519  0.00  0.00     0.240 C 
ATOM     44  O5  non d ame      -8.938  13.117  67.961  0.00  0.00    -0.271 OA
ATOM     45  N6  non d ame      -7.802  11.600  66.617  0.00  0.00    -0.355 N 
ATOM     46  H46 non d ame      -6.914  11.310  66.232  0.00  0.00     0.162 HD
BRANCH  45  47
ATOM     47  C20 non d ame      -9.028  10.844  66.284  0.00  0.00     0.013 C 
ATOM     48  H30 non d ame      -9.856  11.285  66.840  0.00  0.00     0.072 H 
BRANCH  47  49
ATOM     49  C21 non d ame      -8.849   9.398  66.685  0.00  0.00    -0.038 C 
ATOM     50  H31 non d ame      -9.836   8.943  66.598  0.00  0.00     0.036 H 
ATOM     51  H32 non d ame      -8.021   9.025  66.081  0.00  0.00     0.036 H 
BRANCH  49  52
ATOM     52  C22 non d ame      -8.421   9.233  68.160  0.00  0.00     0.018 C 
ATOM     53  H33 non d ame      -8.033   8.218  68.244  0.00  0.00     0.048 H 
ATOM     54  H34 non d ame      -7.774  10.084  68.376  0.00  0.00     0.048 H 
BRANCH  52  55
ATOM     55  C23 non d ame      -9.601   9.325  69.167  0.00  0.00     0.259 C 
ATOM     56  O7  non d ame      -9.901  10.368  69.651  0.00  0.00    -0.265 OA
BRANCH  55  57
ATOM     57  O8  non d ame     -10.312   8.144  69.517  0.00  0.00    -0.317 OA
BRANCH  57  58
ATOM     58  C29 non d ame     -10.416   7.923  70.926  0.00  0.00     0.052 C 
ATOM     59  H47 non d ame     -10.103   6.891  71.086  0.00  0.00     0.082 H 
ATOM     60  H48 non d ame      -9.865   8.738  71.395  0.00  0.00     0.082 H 
BRANCH  58  61
ATOM     61  C35 non d ame     -11.911   8.049  71.322  0.00  0.00    -0.034 A 
ATOM     62  C30 non d ame     -12.398   9.248  71.833  0.00  0.00    -0.075 A 
ATOM     63  C31 non d ame     -13.741   9.362  72.189  0.00  0.00    -0.082 A 
ATOM     64  H49 non d ame     -11.727  10.099  71.953  0.00  0.00     0.084 H 
ATOM     65  C32 non d ame     -14.598   8.270  72.035  0.00  0.00    -0.083 A 
ATOM     66  H50 non d ame     -14.119  10.304  72.586  0.00  0.00     0.083 H 
ATOM     67  C33 non d ame     -14.108   7.074  71.529  0.00  0.00    -0.082 A 
ATOM     68  H51 non d ame     -15.650   8.350  72.311  0.00  0.00     0.083 H 
ATOM     69  C34 non d ame     -12.767   6.956  71.170  0.00  0.00    -0.075 A 
ATOM     70  H52 non d ame     -14.779   6.222  71.412  0.00  0.00     0.083 H 
ATOM     71  H53 non d ame     -12.389   6.014  70.772  0.00  0.00     0.084 H 
ENDBRANCH  58  61
ENDBRANCH  57  58
ENDBRANCH  55  57
ENDBRANCH  52  55
ENDBRANCH  49  52
ENDBRANCH  47  49
BRANCH  47  72
ATOM     72  C24 non d ame      -9.294  10.927  64.782  0.00  0.00    -0.039 C 
ATOM     73  H35 non d ame      -8.316  11.064  64.321  0.00  0.00     0.036 H 
ATOM     74  H36 non d ame      -9.891  10.047  64.544  0.00  0.00     0.036 H 
BRANCH  72  75
ATOM     75  C25 non d ame     -10.176  12.211  64.407  0.00  0.00    -0.001 C 
ATOM     76  C26 non d ame     -11.373  12.413  65.517  0.00  0.00    -0.035 C 
ATOM     77  C27 non d ame     -12.554  12.537  64.866  0.00  0.00     0.085 C 
ATOM     78  H38 non d ame     -11.498  11.501  66.101  0.00  0.00     0.036 H 
ATOM     79  H39 non d ame     -11.257  13.372  66.021  0.00  0.00     0.036 H 
ATOM     80  N5  non d ame     -12.319  12.112  63.437  0.00  0.00    -0.049 N 
ATOM     81  H40 non d ame     -13.226  11.822  65.343  0.00  0.00     0.075 H 
ATOM     82  H41 non d ame     -12.787  13.601  64.887  0.00  0.00     0.075 H 
ATOM     83  C28 non d ame     -10.716  12.083  63.241  0.00  0.00     0.193 C 
ATOM     84  H42 non d ame     -12.670  11.169  63.357  0.00  0.00     0.280 HD
ATOM     85  H43 non d ame     -12.700  12.844  62.854  0.00  0.00     0.280 HD
ATOM     86  H44 non d ame     -10.210  12.882  62.699  0.00  0.00     0.129 H 
ATOM     87  H37 non d ame      -9.561  13.082  64.177  0.00  0.00     0.046 H 
BRANCH  83  88
ATOM     88  O6  non d ame     -10.321  10.872  62.594  0.00  0.00    -0.369 OA
ATOM     89  H45 non d ame     -10.701  10.841  61.714  0.00  0.00     0.212 HD
ENDBRANCH  83  88
ENDBRANCH  72  75
ENDBRANCH  47  72
ENDBRANCH  45  47
ENDBRANCH   1  43
BRANCH   1  90
ATOM     90  C16 non d ame      -6.052  13.105  69.209  0.00  0.00    -0.035 C 
ATOM     91  H21 non d ame      -6.115  13.963  69.879  0.00  0.00     0.037 H 
ATOM     92  H22 non d ame      -6.606  12.194  69.437  0.00  0.00     0.037 H 
BRANCH  90  93
ATOM     93  C17 non d ame      -4.544  12.702  69.151  0.00  0.00    -0.059 C 
ATOM     94  H23 non d ame      -4.421  11.796  69.744  0.00  0.00     0.038 H 
BRANCH  93  95
ATOM     95  C18 non d ame      -4.074  12.386  67.695  0.00  0.00    -0.073 C 
ATOM     96  H24 non d ame      -3.253  13.050  67.426  0.00  0.00     0.028 H 
ATOM     97  H25 non d ame      -3.738  11.350  67.638  0.00  0.00     0.028 H 
ATOM     98  H26 non d ame      -4.905  12.536  67.005  0.00  0.00     0.028 H 
ENDBRANCH  93  95
BRANCH  93  99
ATOM     99  C19 non d ame      -3.664  13.783  69.784  0.00  0.00    -0.073 C 
ATOM    100  H27 non d ame      -4.062  14.047  70.765  0.00  0.00     0.028 H 
ATOM    101  H28 non d ame      -2.647  13.405  69.894  0.00  0.00     0.028 H 
ATOM    102  H29 non d ame      -3.656  14.665  69.145  0.00  0.00     0.028 H 
ENDBRANCH  93  99
ENDBRANCH  90  93
ENDBRANCH   1  90
TORSDOF 26
ENDMDL
MODEL 8
REMARK VINA RESULT:      -6.7      3.359      9.154
REMARK  26 active torsions:
REMARK  status: ('A' for Active; 'I' for Inactive)
REMARK    1  A    between atoms: C2_2  and  C3_3 
REMARK    2  A    between atoms: C4_6  and  C5_7 
REMARK       I    between atoms: C5_7  and  N2_9 
REMARK    3  A    between atoms: N2_9  and  C6_10 
REMARK    4  A    between atoms: C6_10  and  C7_11 
REMARK    5  A    between atoms: C6_10  and  C8_13 
REMARK       I    between atoms: C7_11  and  N3_14 
REMARK    6  A    between atoms: N3_14  and  C9_15 
REMARK    7  A    between atoms: C9_15  and  C10_16 
REMARK    8  A    between atoms: C9_15  and  C11_18 
REMARK       I    between atoms: C10_16  and  N4_21 
REMARK    9  A    between atoms: C11_18  and  C12_19 
REMARK   10  A    between atoms: C11_18  and  C13_20 
REMARK   11  A    between atoms: N4_21  and  C14_22 
REMARK   12  A    between atoms: C14_22  and  C15_23 
REMARK   13  A    between atoms: C14_22  and  C16_25 
REMARK       I    between atoms: C15_23  and  N6_40 
REMARK   14  A    between atoms: C16_25  and  C17_26 
REMARK   15  A    between atoms: C17_26  and  C18_27 
REMARK   16  A    between atoms: C17_26  and  C19_28 
REMARK   17  A    between atoms: C20_29  and  C21_30 
REMARK   18  A    between atoms: C20_29  and  C24_33 
REMARK   19  A    between atoms: C20_29  and  N6_40 
REMARK   20  A    between atoms: C21_30  and  C22_31 
REMARK   21  A    between atoms: C22_31  and  C23_32 
REMARK   22  A    between atoms: C23_32  and  O8_43 
REMARK   23  A    between atoms: C24_33  and  C25_34 
REMARK   24  A    between atoms: C28_38  and  O6_39 
REMARK   25  A    between atoms: C29_42  and  O8_43 
REMARK   26  A    between atoms: C29_42  and  C35_49 
ROOT
ATOM      1  C14 non d ame      -5.730  13.983  68.999  0.00  0.00     0.089 C 
ATOM      2  H20 non d ame      -4.673  13.990  68.734  0.00  0.00     0.087 H 
ENDROOT
BRANCH   1   3
ATOM      3  N4  non d ame      -6.267  15.300  68.692  0.00  0.00    -0.346 N 
ATOM      4  C10 non d ame      -5.368  16.382  68.149  0.00  0.00     0.241 C 
ATOM      5  O4  non d ame      -4.214  16.170  67.970  0.00  0.00    -0.271 OA
ATOM      6  H19 non d ame      -7.251  15.462  68.854  0.00  0.00     0.163 HD
BRANCH   4   7
ATOM      7  C9  non d ame      -5.942  17.738  67.832  0.00  0.00     0.092 C 
ATOM      8  H11 non d ame      -5.603  18.049  66.844  0.00  0.00     0.088 H 
BRANCH   7   9
ATOM      9  N3  non d ame      -7.404  17.651  67.781  0.00  0.00    -0.346 N 
ATOM     10  C7  non d ame      -8.097  17.890  66.539  0.00  0.00     0.240 C 
ATOM     11  O3  non d ame      -7.494  18.155  65.572  0.00  0.00    -0.271 OA
ATOM     12  H10 non d ame      -7.938  17.424  68.608  0.00  0.00     0.163 HD
BRANCH  10  13
ATOM     13  C6  non d ame      -9.654  17.798  66.491  0.00  0.00     0.086 C 
ATOM     14  H6  non d ame     -10.089  18.417  65.707  0.00  0.00     0.086 H 
BRANCH  13  15
ATOM     15  N2  non d ame     -10.037  16.427  66.199  0.00  0.00    -0.343 N 
ATOM     16  C5  non d ame     -10.873  16.144  65.031  0.00  0.00     0.273 C 
ATOM     17  O2  non d ame     -11.235  17.027  64.333  0.00  0.00    -0.266 OA
ATOM     18  H5  non d ame      -9.725  15.678  66.802  0.00  0.00     0.163 HD
BRANCH  16  19
ATOM     19  C4  non d ame     -11.284  14.699  64.709  0.00  0.00     0.154 A 
ATOM     20  C1  non d ame     -10.424  13.560  64.596  0.00  0.00    -0.017 A 
ATOM     21  C2  non d ame     -11.286  12.483  64.291  0.00  0.00     0.077 A 
ATOM     22  H1  non d ame      -9.341  13.522  64.716  0.00  0.00     0.091 H 
ATOM     23  O1  non d ame     -12.496  12.958  64.240  0.00  0.00    -0.218 OA
ATOM     24  N1  non d ame     -12.520  14.248  64.480  0.00  0.00    -0.123 NA
BRANCH  21  25
ATOM     25  C3  non d ame     -10.873  11.034  64.066  0.00  0.00    -0.029 C 
ATOM     26  H2  non d ame     -11.761  10.401  64.053  0.00  0.00     0.036 H 
ATOM     27  H3  non d ame     -10.352  10.949  63.113  0.00  0.00     0.036 H 
ATOM     28  H4  non d ame     -10.211  10.715  64.872  0.00  0.00     0.036 H 
ENDBRANCH  21  25
ENDBRANCH  16  19
ENDBRANCH  13  15
BRANCH  13  29
ATOM     29  C8  non d ame     -10.226  18.223  67.820  0.00  0.00    -0.049 C 
ATOM     30  H7  non d ame     -10.448  17.339  68.419  0.00  0.00     0.030 H 
ATOM     31  H8  non d ame      -9.502  18.846  68.345  0.00  0.00     0.030 H 
ATOM     32  H9  non d ame     -11.143  18.789  67.656  0.00  0.00     0.030 H 
ENDBRANCH  13  29
ENDBRANCH  10  13
ENDBRANCH   7   9
BRANCH   7  33
ATOM     33  C11 non d ame      -5.524  18.750  68.940  0.00  0.00    -0.033 C 
ATOM     34  H12 non d ame      -4.499  19.059  68.733  0.00  0.00     0.042 H 
BRANCH  33  35
ATOM     35  C12 non d ame      -6.416  20.030  68.906  0.00  0.00    -0.071 C 
ATOM     36  H13 non d ame      -6.774  20.196  67.889  0.00  0.00     0.028 H 
ATOM     37  H14 non d ame      -7.267  19.898  69.573  0.00  0.00     0.028 H 
ATOM     38  H15 non d ame      -5.829  20.889  69.229  0.00  0.00     0.028 H 
ENDBRANCH  33  35
BRANCH  33  39
ATOM     39  C13 non d ame      -5.551  18.078  70.350  0.00  0.00    -0.071 C 
ATOM     40  H16 non d ame      -6.557  17.716  70.561  0.00  0.00     0.028 H 
ATOM     41  H17 non d ame      -4.853  17.241  70.368  0.00  0.00     0.028 H 
ATOM     42  H18 non d ame      -5.262  18.808  71.106  0.00  0.00     0.028 H 
ENDBRANCH  33  39
ENDBRANCH   7  33
ENDBRANCH   4   7
ENDBRANCH   1   3
BRANCH   1  43
ATOM     43  C15 non d ame      -6.531  12.922  68.190  0.00  0.00     0.240 C 
ATOM     44  O5  non d ame      -6.281  12.741  67.042  0.00  0.00    -0.271 OA
ATOM     45  N6  non d ame      -7.603  12.123  68.850  0.00  0.00    -0.355 N 
ATOM     46  H46 non d ame      -7.821  12.264  69.826  0.00  0.00     0.162 HD
BRANCH  45  47
ATOM     47  C20 non d ame      -8.353  11.117  68.068  0.00  0.00     0.013 C 
ATOM     48  H30 non d ame      -7.761  10.865  67.189  0.00  0.00     0.072 H 
BRANCH  47  49
ATOM     49  C21 non d ame      -9.682  11.702  67.645  0.00  0.00    -0.038 C 
ATOM     50  H31 non d ame      -9.441  12.508  66.951  0.00  0.00     0.036 H 
ATOM     51  H32 non d ame     -10.283  10.856  67.312  0.00  0.00     0.036 H 
BRANCH  49  52
ATOM     52  C22 non d ame     -10.451  12.351  68.816  0.00  0.00     0.018 C 
ATOM     53  H33 non d ame     -11.176  11.605  69.143  0.00  0.00     0.048 H 
ATOM     54  H34 non d ame      -9.689  12.709  69.509  0.00  0.00     0.048 H 
BRANCH  52  55
ATOM     55  C23 non d ame     -11.278  13.601  68.407  0.00  0.00     0.259 C 
ATOM     56  O7  non d ame     -12.200  13.498  67.664  0.00  0.00    -0.265 OA
BRANCH  55  57
ATOM     57  O8  non d ame     -10.913  14.877  68.920  0.00  0.00    -0.317 OA
BRANCH  57  58
ATOM     58  C29 non d ame     -12.025  15.734  69.193  0.00  0.00     0.052 C 
ATOM     59  H47 non d ame     -11.645  16.751  69.089  0.00  0.00     0.082 H 
ATOM     60  H48 non d ame     -12.832  15.385  68.550  0.00  0.00     0.082 H 
BRANCH  58  61
ATOM     61  C35 non d ame     -12.446  15.516  70.671  0.00  0.00    -0.034 A 
ATOM     62  C30 non d ame     -11.604  15.919  71.702  0.00  0.00    -0.075 A 
ATOM     63  C31 non d ame     -11.982  15.723  73.029  0.00  0.00    -0.082 A 
ATOM     64  H49 non d ame     -10.648  16.390  71.471  0.00  0.00     0.084 H 
ATOM     65  C32 non d ame     -13.207  15.118  73.324  0.00  0.00    -0.083 A 
ATOM     66  H50 non d ame     -11.321  16.043  73.835  0.00  0.00     0.083 H 
ATOM     67  C33 non d ame     -14.042  14.714  72.291  0.00  0.00    -0.082 A 
ATOM     68  H51 non d ame     -13.511  14.962  74.359  0.00  0.00     0.083 H 
ATOM     69  C34 non d ame     -13.669  14.910  70.963  0.00  0.00    -0.075 A 
ATOM     70  H52 non d ame     -14.997  14.241  72.524  0.00  0.00     0.083 H 
ATOM     71  H53 non d ame     -14.332  14.591  70.158  0.00  0.00     0.084 H 
ENDBRANCH  58  61
ENDBRANCH  57  58
ENDBRANCH  55  57
ENDBRANCH  52  55
ENDBRANCH  49  52
ENDBRANCH  47  49
BRANCH  47  72
ATOM     72  C24 non d ame      -8.593   9.873  68.922  0.00  0.00    -0.039 C 
ATOM     73  H35 non d ame      -7.835   9.909  69.705  0.00  0.00     0.036 H 
ATOM     74  H36 non d ame      -9.650   9.901  69.185  0.00  0.00     0.036 H 
BRANCH  72  75
ATOM     75  C25 non d ame      -8.349   8.527  68.089  0.00  0.00    -0.001 C 
ATOM     76  C26 non d ame      -7.989   8.893  66.526  0.00  0.00    -0.035 C 
ATOM     77  C27 non d ame      -8.800   8.176  65.713  0.00  0.00     0.085 C 
ATOM     78  H38 non d ame      -8.261   9.926  66.312  0.00  0.00     0.036 H 
ATOM     79  H39 non d ame      -6.992   8.529  66.277  0.00  0.00     0.036 H 
ATOM     80  N5  non d ame      -9.898   7.603  66.576  0.00  0.00    -0.049 N 
ATOM     81  H40 non d ame      -9.233   8.900  65.021  0.00  0.00     0.075 H 
ATOM     82  H41 non d ame      -8.185   7.360  65.333  0.00  0.00     0.075 H 
ATOM     83  C28 non d ame      -9.397   7.773  68.101  0.00  0.00     0.193 C 
ATOM     84  H42 non d ame     -10.708   8.190  66.436  0.00  0.00     0.280 HD
ATOM     85  H43 non d ame      -9.946   6.617  66.362  0.00  0.00     0.280 HD
ATOM     86  H44 non d ame      -9.018   6.916  68.658  0.00  0.00     0.129 H 
ATOM     87  H37 non d ame      -7.679   7.838  68.604  0.00  0.00     0.046 H 
BRANCH  83  88
ATOM     88  O6  non d ame     -10.444   8.318  68.906  0.00  0.00    -0.369 OA
ATOM     89  H45 non d ame     -10.070   8.688  69.709  0.00  0.00     0.212 HD
ENDBRANCH  83  88
ENDBRANCH  72  75
ENDBRANCH  47  72
ENDBRANCH  45  47
ENDBRANCH   1  43
BRANCH   1  90
ATOM     90  C16 non d ame      -5.888  13.717  70.487  0.00  0.00    -0.035 C 
ATOM     91  H21 non d ame      -6.907  14.019  70.728  0.00  0.00     0.037 H 
ATOM     92  H22 non d ame      -5.578  12.681  70.630  0.00  0.00     0.037 H 
BRANCH  90  93
ATOM     93  C17 non d ame      -4.947  14.586  71.382  0.00  0.00    -0.059 C 
ATOM     94  H23 non d ame      -5.195  15.632  71.204  0.00  0.00     0.038 H 
BRANCH  93  95
ATOM     95  C18 non d ame      -5.151  14.299  72.904  0.00  0.00    -0.073 C 
ATOM     96  H24 non d ame      -4.582  13.413  73.186  0.00  0.00     0.028 H 
ATOM     97  H25 non d ame      -4.804  15.154  73.484  0.00  0.00     0.028 H 
ATOM     98  H26 non d ame      -6.210  14.131  73.103  0.00  0.00     0.028 H 
ENDBRANCH  93  95
BRANCH  93  99
ATOM     99  C19 non d ame      -3.482  14.392  70.983  0.00  0.00    -0.073 C 
ATOM    100  H27 non d ame      -3.123  15.286  70.472  0.00  0.00     0.028 H 
ATOM    101  H28 non d ame      -2.882  14.219  71.877  0.00  0.00     0.028 H 
ATOM    102  H29 non d ame      -3.396  13.534  70.317  0.00  0.00     0.028 H 
ENDBRANCH  93  99
ENDBRANCH  90  93
ENDBRANCH   1  90
TORSDOF 26
ENDMDL
MODEL 9
REMARK VINA RESULT:      -6.6      3.886      7.813
REMARK  26 active torsions:
REMARK  status: ('A' for Active; 'I' for Inactive)
REMARK    1  A    between atoms: C2_2  and  C3_3 
REMARK    2  A    between atoms: C4_6  and  C5_7 
REMARK       I    between atoms: C5_7  and  N2_9 
REMARK    3  A    between atoms: N2_9  and  C6_10 
REMARK    4  A    between atoms: C6_10  and  C7_11 
REMARK    5  A    between atoms: C6_10  and  C8_13 
REMARK       I    between atoms: C7_11  and  N3_14 
REMARK    6  A    between atoms: N3_14  and  C9_15 
REMARK    7  A    between atoms: C9_15  and  C10_16 
REMARK    8  A    between atoms: C9_15  and  C11_18 
REMARK       I    between atoms: C10_16  and  N4_21 
REMARK    9  A    between atoms: C11_18  and  C12_19 
REMARK   10  A    between atoms: C11_18  and  C13_20 
REMARK   11  A    between atoms: N4_21  and  C14_22 
REMARK   12  A    between atoms: C14_22  and  C15_23 
REMARK   13  A    between atoms: C14_22  and  C16_25 
REMARK       I    between atoms: C15_23  and  N6_40 
REMARK   14  A    between atoms: C16_25  and  C17_26 
REMARK   15  A    between atoms: C17_26  and  C18_27 
REMARK   16  A    between atoms: C17_26  and  C19_28 
REMARK   17  A    between atoms: C20_29  and  C21_30 
REMARK   18  A    between atoms: C20_29  and  C24_33 
REMARK   19  A    between atoms: C20_29  and  N6_40 
REMARK   20  A    between atoms: C21_30  and  C22_31 
REMARK   21  A    between atoms: C22_31  and  C23_32 
REMARK   22  A    between atoms: C23_32  and  O8_43 
REMARK   23  A    between atoms: C24_33  and  C25_34 
REMARK   24  A    between atoms: C28_38  and  O6_39 
REMARK   25  A    between atoms: C29_42  and  O8_43 
REMARK   26  A    between atoms: C29_42  and  C35_49 
ROOT
ATOM      1  C14 non d ame      -5.288  11.002  66.489  0.00  0.00     0.089 C 
ATOM      2  H20 non d ame      -5.080   9.955  66.713  0.00  0.00     0.087 H 
ENDROOT
BRANCH   1   3
ATOM      3  N4  non d ame      -6.116  11.037  65.293  0.00  0.00    -0.346 N 
ATOM      4  C10 non d ame      -7.116   9.940  65.026  0.00  0.00     0.241 C 
ATOM      5  O4  non d ame      -7.233   9.037  65.787  0.00  0.00    -0.271 OA
ATOM      6  H19 non d ame      -5.999  11.813  64.657  0.00  0.00     0.163 HD
BRANCH   4   7
ATOM      7  C9  non d ame      -7.969   9.996  63.785  0.00  0.00     0.092 C 
ATOM      8  H11 non d ame      -8.583   9.097  63.732  0.00  0.00     0.088 H 
BRANCH   7   9
ATOM      9  N3  non d ame      -8.881  11.141  63.870  0.00  0.00    -0.346 N 
ATOM     10  C7  non d ame     -10.167  10.991  64.506  0.00  0.00     0.240 C 
ATOM     11  O3  non d ame     -10.484   9.957  64.953  0.00  0.00    -0.271 OA
ATOM     12  H10 non d ame      -8.622  12.038  63.488  0.00  0.00     0.163 HD
BRANCH  10  13
ATOM     13  C6  non d ame     -11.135  12.212  64.591  0.00  0.00     0.086 C 
ATOM     14  H6  non d ame     -11.898  12.092  65.359  0.00  0.00     0.086 H 
BRANCH  13  15
ATOM     15  N2  non d ame     -10.370  13.396  64.946  0.00  0.00    -0.343 N 
ATOM     16  C5  non d ame     -11.017  14.475  65.696  0.00  0.00     0.273 C 
ATOM     17  O2  non d ame     -12.154  14.381  66.006  0.00  0.00    -0.266 OA
ATOM     18  H5  non d ame      -9.400  13.468  64.674  0.00  0.00     0.163 HD
BRANCH  16  19
ATOM     19  C4  non d ame     -10.221  15.731  66.079  0.00  0.00     0.154 A 
ATOM     20  C1  non d ame     -10.477  16.617  67.174  0.00  0.00    -0.017 A 
ATOM     21  C2  non d ame      -9.468  17.602  67.087  0.00  0.00     0.077 A 
ATOM     22  H1  non d ame     -11.272  16.554  67.917  0.00  0.00     0.091 H 
ATOM     23  O1  non d ame      -8.725  17.307  66.061  0.00  0.00    -0.218 OA
ATOM     24  N1  non d ame      -9.144  16.220  65.457  0.00  0.00    -0.123 NA
BRANCH  21  25
ATOM     25  C3  non d ame      -9.285  18.789  68.024  0.00  0.00    -0.029 C 
ATOM     26  H2  non d ame      -8.297  19.226  67.869  0.00  0.00     0.036 H 
ATOM     27  H3  non d ame     -10.049  19.537  67.815  0.00  0.00     0.036 H 
ATOM     28  H4  non d ame      -9.376  18.455  69.058  0.00  0.00     0.036 H 
ENDBRANCH  21  25
ENDBRANCH  16  19
ENDBRANCH  13  15
BRANCH  13  29
ATOM     29  C8  non d ame     -11.811  12.414  63.259  0.00  0.00    -0.049 C 
ATOM     30  H7  non d ame     -11.842  13.478  63.024  0.00  0.00     0.030 H 
ATOM     31  H8  non d ame     -11.253  11.887  62.484  0.00  0.00     0.030 H 
ATOM     32  H9  non d ame     -12.827  12.023  63.305  0.00  0.00     0.030 H 
ENDBRANCH  13  29
ENDBRANCH  10  13
ENDBRANCH   7   9
BRANCH   7  33
ATOM     33  C11 non d ame      -7.055  10.156  62.535  0.00  0.00    -0.033 C 
ATOM     34  H12 non d ame      -6.265  10.861  62.793  0.00  0.00     0.042 H 
BRANCH  33  35
ATOM     35  C12 non d ame      -6.372   8.806  62.153  0.00  0.00    -0.071 C 
ATOM     36  H13 non d ame      -6.316   8.721  61.068  0.00  0.00     0.028 H 
ATOM     37  H14 non d ame      -5.367   8.777  62.572  0.00  0.00     0.028 H 
ATOM     38  H15 non d ame      -6.957   7.978  62.553  0.00  0.00     0.028 H 
ENDBRANCH  33  35
BRANCH  33  39
ATOM     39  C13 non d ame      -7.856  10.746  61.330  0.00  0.00    -0.071 C 
ATOM     40  H16 non d ame      -8.766  11.221  61.695  0.00  0.00     0.028 H 
ATOM     41  H17 non d ame      -7.243  11.486  60.814  0.00  0.00     0.028 H 
ATOM     42  H18 non d ame      -8.116   9.944  60.639  0.00  0.00     0.028 H 
ENDBRANCH  33  39
ENDBRANCH   7  33
ENDBRANCH   4   7
ENDBRANCH   1   3
BRANCH   1  43
ATOM     43  C15 non d ame      -6.055  11.708  67.644  0.00  0.00     0.240 C 
ATOM     44  O5  non d ame      -5.892  11.352  68.766  0.00  0.00    -0.271 OA
ATOM     45  N6  non d ame      -6.986  12.835  67.351  0.00  0.00    -0.355 N 
ATOM     46  H46 non d ame      -7.129  13.149  66.402  0.00  0.00     0.162 HD
BRANCH  45  47
ATOM     47  C20 non d ame      -7.707  13.497  68.460  0.00  0.00     0.013 C 
ATOM     48  H30 non d ame      -7.387  13.032  69.393  0.00  0.00     0.072 H 
BRANCH  47  49
ATOM     49  C21 non d ame      -9.195  13.307  68.273  0.00  0.00    -0.038 C 
ATOM     50  H31 non d ame      -9.661  13.736  69.160  0.00  0.00     0.036 H 
ATOM     51  H32 non d ame      -9.421  13.714  67.287  0.00  0.00     0.036 H 
BRANCH  49  52
ATOM     52  C22 non d ame      -9.610  11.820  68.238  0.00  0.00     0.018 C 
ATOM     53  H33 non d ame      -9.284  11.445  67.267  0.00  0.00     0.048 H 
ATOM     54  H34 non d ame      -9.212  11.381  69.153  0.00  0.00     0.048 H 
BRANCH  52  55
ATOM     55  C23 non d ame     -11.147  11.598  68.288  0.00  0.00     0.259 C 
ATOM     56  O7  non d ame     -11.633  10.631  67.797  0.00  0.00    -0.265 OA
BRANCH  55  57
ATOM     57  O8  non d ame     -11.972  12.571  68.918  0.00  0.00    -0.317 OA
BRANCH  57  58
ATOM     58  C29 non d ame     -12.360  12.229  70.252  0.00  0.00     0.052 C 
ATOM     59  H47 non d ame     -13.348  11.775  70.164  0.00  0.00     0.082 H 
ATOM     60  H48 non d ame     -11.531  11.653  70.663  0.00  0.00     0.082 H 
BRANCH  58  61
ATOM     61  C35 non d ame     -12.494  13.545  71.064  0.00  0.00    -0.034 A 
ATOM     62  C30 non d ame     -11.813  14.687  70.656  0.00  0.00    -0.075 A 
ATOM     63  C31 non d ame     -11.933  15.869  71.386  0.00  0.00    -0.082 A 
ATOM     64  H49 non d ame     -11.185  14.656  69.766  0.00  0.00     0.084 H 
ATOM     65  C32 non d ame     -12.736  15.905  72.528  0.00  0.00    -0.083 A 
ATOM     66  H50 non d ame     -11.399  16.763  71.063  0.00  0.00     0.083 H 
ATOM     67  C33 non d ame     -13.412  14.762  72.933  0.00  0.00    -0.082 A 
ATOM     68  H51 non d ame     -12.836  16.825  73.104  0.00  0.00     0.083 H 
ATOM     69  C34 non d ame     -13.297  13.579  72.206  0.00  0.00    -0.075 A 
ATOM     70  H52 non d ame     -14.037  14.793  73.826  0.00  0.00     0.083 H 
ATOM     71  H53 non d ame     -13.832  12.686  72.529  0.00  0.00     0.084 H 
ENDBRANCH  58  61
ENDBRANCH  57  58
ENDBRANCH  55  57
ENDBRANCH  52  55
ENDBRANCH  49  52
ENDBRANCH  47  49
BRANCH  47  72
ATOM     72  C24 non d ame      -7.380  14.989  68.471  0.00  0.00    -0.039 C 
ATOM     73  H35 non d ame      -7.621  15.345  67.469  0.00  0.00     0.036 H 
ATOM     74  H36 non d ame      -7.906  15.395  69.334  0.00  0.00     0.036 H 
BRANCH  72  75
ATOM     75  C25 non d ame      -5.817  15.251  68.703  0.00  0.00    -0.001 C 
ATOM     76  C26 non d ame      -5.597  16.157  70.058  0.00  0.00    -0.035 C 
ATOM     77  C27 non d ame      -4.804  17.212  69.754  0.00  0.00     0.085 C 
ATOM     78  H38 non d ame      -6.537  16.621  70.354  0.00  0.00     0.036 H 
ATOM     79  H39 non d ame      -5.010  15.600  70.789  0.00  0.00     0.036 H 
ATOM     80  N5  non d ame      -4.732  17.290  68.248  0.00  0.00    -0.049 N 
ATOM     81  H40 non d ame      -5.330  18.090  70.130  0.00  0.00     0.075 H 
ATOM     82  H41 non d ame      -3.819  16.959  70.144  0.00  0.00     0.075 H 
ATOM     83  C28 non d ame      -5.294  15.879  67.703  0.00  0.00     0.193 C 
ATOM     84  H42 non d ame      -5.371  18.021  67.968  0.00  0.00     0.280 HD
ATOM     85  H43 non d ame      -3.752  17.358  68.011  0.00  0.00     0.280 HD
ATOM     86  H44 non d ame      -4.610  15.118  67.327  0.00  0.00     0.129 H 
ATOM     87  H37 non d ame      -5.227  14.339  68.615  0.00  0.00     0.046 H 
BRANCH  83  88
ATOM     88  O6  non d ame      -6.237  16.097  66.651  0.00  0.00    -0.369 OA
ATOM     89  H45 non d ame      -7.049  16.452  67.019  0.00  0.00     0.212 HD
ENDBRANCH  83  88
ENDBRANCH  72  75
ENDBRANCH  47  72
ENDBRANCH  45  47
ENDBRANCH   1  43
BRANCH   1  90
ATOM     90  C16 non d ame      -3.987  11.739  66.214  0.00  0.00    -0.035 C 
ATOM     91  H21 non d ame      -4.233  12.487  65.461  0.00  0.00     0.037 H 
ATOM     92  H22 non d ame      -3.619  12.050  67.192  0.00  0.00     0.037 H 
BRANCH  90  93
ATOM     93  C17 non d ame      -2.875  10.835  65.592  0.00  0.00    -0.059 C 
ATOM     94  H23 non d ame      -1.924  11.131  66.033  0.00  0.00     0.038 H 
BRANCH  93  95
ATOM     95  C18 non d ame      -3.098   9.322  65.910  0.00  0.00    -0.073 C 
ATOM     96  H24 non d ame      -3.445   9.215  66.937  0.00  0.00     0.028 H 
ATOM     97  H25 non d ame      -3.846   8.914  65.229  0.00  0.00     0.028 H 
ATOM     98  H26 non d ame      -2.160   8.782  65.784  0.00  0.00     0.028 H 
ENDBRANCH  93  95
BRANCH  93  99
ATOM     99  C19 non d ame      -2.767  11.064  64.082  0.00  0.00    -0.073 C 
ATOM    100  H27 non d ame      -2.169  10.269  63.636  0.00  0.00     0.028 H 
ATOM    101  H28 non d ame      -3.764  11.060  63.641  0.00  0.00     0.028 H 
ATOM    102  H29 non d ame      -2.291  12.026  63.893  0.00  0.00     0.028 H 
ENDBRANCH  93  99
ENDBRANCH  90  93
ENDBRANCH   1  90
TORSDOF 26
ENDMDL
MODEL 10
REMARK VINA RESULT:      -6.6      2.959     10.237
REMARK  26 active torsions:
REMARK  status: ('A' for Active; 'I' for Inactive)
REMARK    1  A    between atoms: C2_2  and  C3_3 
REMARK    2  A    between atoms: C4_6  and  C5_7 
REMARK       I    between atoms: C5_7  and  N2_9 
REMARK    3  A    between atoms: N2_9  and  C6_10 
REMARK    4  A    between atoms: C6_10  and  C7_11 
REMARK    5  A    between atoms: C6_10  and  C8_13 
REMARK       I    between atoms: C7_11  and  N3_14 
REMARK    6  A    between atoms: N3_14  and  C9_15 
REMARK    7  A    between atoms: C9_15  and  C10_16 
REMARK    8  A    between atoms: C9_15  and  C11_18 
REMARK       I    between atoms: C10_16  and  N4_21 
REMARK    9  A    between atoms: C11_18  and  C12_19 
REMARK   10  A    between atoms: C11_18  and  C13_20 
REMARK   11  A    between atoms: N4_21  and  C14_22 
REMARK   12  A    between atoms: C14_22  and  C15_23 
REMARK   13  A    between atoms: C14_22  and  C16_25 
REMARK       I    between atoms: C15_23  and  N6_40 
REMARK   14  A    between atoms: C16_25  and  C17_26 
REMARK   15  A    between atoms: C17_26  and  C18_27 
REMARK   16  A    between atoms: C17_26  and  C19_28 
REMARK   17  A    between atoms: C20_29  and  C21_30 
REMARK   18  A    between atoms: C20_29  and  C24_33 
REMARK   19  A    between atoms: C20_29  and  N6_40 
REMARK   20  A    between atoms: C21_30  and  C22_31 
REMARK   21  A    between atoms: C22_31  and  C23_32 
REMARK   22  A    between atoms: C23_32  and  O8_43 
REMARK   23  A    between atoms: C24_33  and  C25_34 
REMARK   24  A    between atoms: C28_38  and  O6_39 
REMARK   25  A    between atoms: C29_42  and  O8_43 
REMARK   26  A    between atoms: C29_42  and  C35_49 
ROOT
ATOM      1  C14 non d ame      -7.239  12.865  68.124  0.00  0.00     0.089 C 
ATOM      2  H20 non d ame      -6.521  12.613  67.343  0.00  0.00     0.087 H 
ENDROOT
BRANCH   1   3
ATOM      3  N4  non d ame      -7.362  14.314  68.156  0.00  0.00    -0.346 N 
ATOM      4  C10 non d ame      -6.215  15.186  67.711  0.00  0.00     0.241 C 
ATOM      5  O4  non d ame      -5.201  14.698  67.333  0.00  0.00    -0.271 OA
ATOM      6  H19 non d ame      -8.232  14.710  68.483  0.00  0.00     0.163 HD
BRANCH   4   7
ATOM      7  C9  non d ame      -6.361  16.685  67.745  0.00  0.00     0.092 C 
ATOM      8  H11 non d ame      -6.113  17.092  66.765  0.00  0.00     0.088 H 
BRANCH   7   9
ATOM      9  N3  non d ame      -7.759  17.033  68.018  0.00  0.00    -0.346 N 
ATOM     10  C7  non d ame      -8.631  17.414  66.934  0.00  0.00     0.240 C 
ATOM     11  O3  non d ame      -8.224  17.447  65.837  0.00  0.00    -0.271 OA
ATOM     12  H10 non d ame      -8.124  17.011  68.959  0.00  0.00     0.163 HD
BRANCH  10  13
ATOM     13  C6  non d ame     -10.117  17.787  67.231  0.00  0.00     0.086 C 
ATOM     14  H6  non d ame     -10.812  17.355  66.511  0.00  0.00     0.086 H 
BRANCH  13  15
ATOM     15  N2  non d ame     -10.484  17.258  68.533  0.00  0.00    -0.343 N 
ATOM     16  C5  non d ame     -11.273  16.027  68.615  0.00  0.00     0.273 C 
ATOM     17  O2  non d ame     -11.609  15.471  67.627  0.00  0.00    -0.266 OA
ATOM     18  H5  non d ame     -10.195  17.740  69.372  0.00  0.00     0.163 HD
BRANCH  16  19
ATOM     19  C4  non d ame     -11.668  15.455  69.986  0.00  0.00     0.154 A 
ATOM     20  C1  non d ame     -11.724  16.156  71.232  0.00  0.00    -0.017 A 
ATOM     21  C2  non d ame     -12.138  15.189  72.175  0.00  0.00     0.077 A 
ATOM     22  H1  non d ame     -11.499  17.206  71.422  0.00  0.00     0.091 H 
ATOM     23  O1  non d ame     -12.299  14.068  71.535  0.00  0.00    -0.218 OA
ATOM     24  N1  non d ame     -12.030  14.198  70.256  0.00  0.00    -0.123 NA
BRANCH  21  25
ATOM     25  C3  non d ame     -12.356  15.418  73.664  0.00  0.00    -0.029 C 
ATOM     26  H2  non d ame     -13.150  14.761  74.021  0.00  0.00     0.036 H 
ATOM     27  H3  non d ame     -11.434  15.201  74.204  0.00  0.00     0.036 H 
ATOM     28  H4  non d ame     -12.640  16.457  73.835  0.00  0.00     0.036 H 
ENDBRANCH  21  25
ENDBRANCH  16  19
ENDBRANCH  13  15
BRANCH  13  29
ATOM     29  C8  non d ame     -10.273  19.287  67.220  0.00  0.00    -0.049 C 
ATOM     30  H7  non d ame      -9.321  19.750  66.960  0.00  0.00     0.030 H 
ATOM     31  H8  non d ame     -11.027  19.568  66.484  0.00  0.00     0.030 H 
ATOM     32  H9  non d ame     -10.584  19.626  68.207  0.00  0.00     0.030 H 
ENDBRANCH  13  29
ENDBRANCH  10  13
ENDBRANCH   7   9
BRANCH   7  33
ATOM     33  C11 non d ame      -5.455  17.269  68.869  0.00  0.00    -0.033 C 
ATOM     34  H12 non d ame      -4.420  17.168  68.542  0.00  0.00     0.042 H 
BRANCH  33  35
ATOM     35  C12 non d ame      -5.732  18.789  69.089  0.00  0.00    -0.071 C 
ATOM     36  H13 non d ame      -6.710  18.917  69.552  0.00  0.00     0.028 H 
ATOM     37  H14 non d ame      -4.964  19.206  69.741  0.00  0.00     0.028 H 
ATOM     38  H15 non d ame      -5.714  19.304  68.129  0.00  0.00     0.028 H 
ENDBRANCH  33  35
BRANCH  33  39
ATOM     39  C13 non d ame      -5.623  16.464  70.197  0.00  0.00    -0.071 C 
ATOM     40  H16 non d ame      -5.817  17.154  71.018  0.00  0.00     0.028 H 
ATOM     41  H17 non d ame      -6.460  15.771  70.100  0.00  0.00     0.028 H 
ATOM     42  H18 non d ame      -4.710  15.904  70.400  0.00  0.00     0.028 H 
ENDBRANCH  33  39
ENDBRANCH   7  33
ENDBRANCH   4   7
ENDBRANCH   1   3
BRANCH   1  43
ATOM     43  C15 non d ame      -8.643  12.254  67.849  0.00  0.00     0.240 C 
ATOM     44  O5  non d ame      -9.605  12.734  68.356  0.00  0.00    -0.271 OA
ATOM     45  N6  non d ame      -8.789  11.077  66.947  0.00  0.00    -0.355 N 
ATOM     46  H46 non d ame      -7.980  10.664  66.507  0.00  0.00     0.162 HD
BRANCH  45  47
ATOM     47  C20 non d ame     -10.132  10.509  66.695  0.00  0.00     0.013 C 
ATOM     48  H30 non d ame     -10.856  11.101  67.254  0.00  0.00     0.072 H 
BRANCH  47  49
ATOM     49  C21 non d ame     -10.163   9.073  67.166  0.00  0.00    -0.038 C 
ATOM     50  H31 non d ame     -10.504   9.110  68.201  0.00  0.00     0.036 H 
ATOM     51  H32 non d ame     -10.745   8.531  66.419  0.00  0.00     0.036 H 
BRANCH  49  52
ATOM     52  C22 non d ame      -8.765   8.419  67.189  0.00  0.00     0.018 C 
ATOM     53  H33 non d ame      -8.216   8.866  66.360  0.00  0.00     0.048 H 
ATOM     54  H34 non d ame      -8.401   8.536  68.210  0.00  0.00     0.048 H 
BRANCH  52  55
ATOM     55  C23 non d ame      -8.784   6.889  66.915  0.00  0.00     0.259 C 
ATOM     56  O7  non d ame      -8.942   6.119  67.806  0.00  0.00    -0.265 OA
BRANCH  55  57
ATOM     57  O8  non d ame      -8.599   6.417  65.586  0.00  0.00    -0.317 OA
BRANCH  57  58
ATOM     58  C29 non d ame      -7.231   6.377  65.168  0.00  0.00     0.052 C 
ATOM     59  H47 non d ame      -6.647   6.671  66.040  0.00  0.00     0.082 H 
ATOM     60  H48 non d ame      -7.087   5.393  64.722  0.00  0.00     0.082 H 
BRANCH  58  61
ATOM     61  C35 non d ame      -7.037   7.449  64.062  0.00  0.00    -0.034 A 
ATOM     62  C30 non d ame      -8.143   8.080  63.501  0.00  0.00    -0.075 A 
ATOM     63  C31 non d ame      -7.968   9.042  62.508  0.00  0.00    -0.082 A 
ATOM     64  H49 non d ame      -9.146   7.820  63.840  0.00  0.00     0.084 H 
ATOM     65  C32 non d ame      -6.682   9.372  62.074  0.00  0.00    -0.083 A 
ATOM     66  H50 non d ame      -8.837   9.537  62.072  0.00  0.00     0.083 H 
ATOM     67  C33 non d ame      -5.581   8.738  62.635  0.00  0.00    -0.082 A 
ATOM     68  H51 non d ame      -6.536  10.124  61.299  0.00  0.00     0.083 H 
ATOM     69  C34 non d ame      -5.751   7.777  63.629  0.00  0.00    -0.075 A 
ATOM     70  H52 non d ame      -4.579   8.996  62.293  0.00  0.00     0.083 H 
ATOM     71  H53 non d ame      -4.881   7.284  64.065  0.00  0.00     0.084 H 
ENDBRANCH  58  61
ENDBRANCH  57  58
ENDBRANCH  55  57
ENDBRANCH  52  55
ENDBRANCH  49  52
ENDBRANCH  47  49
BRANCH  47  72
ATOM     72  C24 non d ame     -10.443  10.563  65.200  0.00  0.00    -0.039 C 
ATOM     73  H35 non d ame      -9.640  10.005  64.717  0.00  0.00     0.036 H 
ATOM     74  H36 non d ame     -11.475  10.224  65.106  0.00  0.00     0.036 H 
BRANCH  72  75
ATOM     75  C25 non d ame     -10.384  12.061  64.636  0.00  0.00    -0.001 C 
ATOM     76  C26 non d ame     -11.476  13.001  65.429  0.00  0.00    -0.035 C 
ATOM     77  C27 non d ame     -12.236  13.652  64.515  0.00  0.00     0.085 C 
ATOM     78  H38 non d ame     -12.194  12.375  65.958  0.00  0.00     0.036 H 
ATOM     79  H39 non d ame     -10.963  13.807  65.954  0.00  0.00     0.036 H 
ATOM     80  N5  non d ame     -11.981  12.994  63.180  0.00  0.00    -0.049 N 
ATOM     81  H40 non d ame     -13.269  13.467  64.811  0.00  0.00     0.075 H 
ATOM     82  H41 non d ame     -11.850  14.670  64.489  0.00  0.00     0.075 H 
ATOM     83  C28 non d ame     -10.654  12.096  63.374  0.00  0.00     0.193 C 
ATOM     84  H42 non d ame     -12.764  12.379  63.010  0.00  0.00     0.280 HD
ATOM     85  H43 non d ame     -11.773  13.739  62.530  0.00  0.00     0.280 HD
ATOM     86  H44 non d ame      -9.696  12.431  62.976  0.00  0.00     0.129 H 
ATOM     87  H37 non d ame      -9.363  12.437  64.568  0.00  0.00     0.046 H 
BRANCH  83  88
ATOM     88  O6  non d ame     -10.858  10.791  62.830  0.00  0.00    -0.369 OA
ATOM     89  H45 non d ame     -11.561  10.350  63.312  0.00  0.00     0.212 HD
ENDBRANCH  83  88
ENDBRANCH  72  75
ENDBRANCH  47  72
ENDBRANCH  45  47
ENDBRANCH   1  43
BRANCH   1  90
ATOM     90  C16 non d ame      -6.725  12.380  69.470  0.00  0.00    -0.035 C 
ATOM     91  H21 non d ame      -6.523  13.285  70.044  0.00  0.00     0.037 H 
ATOM     92  H22 non d ame      -7.470  11.666  69.823  0.00  0.00     0.037 H 
BRANCH  90  93
ATOM     93  C17 non d ame      -5.374  11.602  69.382  0.00  0.00    -0.059 C 
ATOM     94  H23 non d ame      -4.698  12.182  68.756  0.00  0.00     0.038 H 
BRANCH  93  95
ATOM     95  C18 non d ame      -4.700  11.432  70.782  0.00  0.00    -0.073 C 
ATOM     96  H24 non d ame      -3.641  11.211  70.649  0.00  0.00     0.028 H 
ATOM     97  H25 non d ame      -4.810  12.354  71.352  0.00  0.00     0.028 H 
ATOM     98  H26 non d ame      -5.179  10.613  71.319  0.00  0.00     0.028 H 
ENDBRANCH  93  95
BRANCH  93  99
ATOM     99  C19 non d ame      -5.569  10.243  68.704  0.00  0.00    -0.073 C 
ATOM    100  H27 non d ame      -6.592  10.166  68.332  0.00  0.00     0.028 H 
ATOM    101  H28 non d ame      -4.872  10.150  67.871  0.00  0.00     0.028 H 
ATOM    102  H29 non d ame      -5.383   9.447  69.424  0.00  0.00     0.028 H 
ENDBRANCH  93  99
ENDBRANCH  90  93
ENDBRANCH   1  90
TORSDOF 26
ENDMDL
MODEL 11
REMARK VINA RESULT:      -6.6      2.766      7.384
REMARK  26 active torsions:
REMARK  status: ('A' for Active; 'I' for Inactive)
REMARK    1  A    between atoms: C2_2  and  C3_3 
REMARK    2  A    between atoms: C4_6  and  C5_7 
REMARK       I    between atoms: C5_7  and  N2_9 
REMARK    3  A    between atoms: N2_9  and  C6_10 
REMARK    4  A    between atoms: C6_10  and  C7_11 
REMARK    5  A    between atoms: C6_10  and  C8_13 
REMARK       I    between atoms: C7_11  and  N3_14 
REMARK    6  A    between atoms: N3_14  and  C9_15 
REMARK    7  A    between atoms: C9_15  and  C10_16 
REMARK    8  A    between atoms: C9_15  and  C11_18 
REMARK       I    between atoms: C10_16  and  N4_21 
REMARK    9  A    between atoms: C11_18  and  C12_19 
REMARK   10  A    between atoms: C11_18  and  C13_20 
REMARK   11  A    between atoms: N4_21  and  C14_22 
REMARK   12  A    between atoms: C14_22  and  C15_23 
REMARK   13  A    between atoms: C14_22  and  C16_25 
REMARK       I    between atoms: C15_23  and  N6_40 
REMARK   14  A    between atoms: C16_25  and  C17_26 
REMARK   15  A    between atoms: C17_26  and  C18_27 
REMARK   16  A    between atoms: C17_26  and  C19_28 
REMARK   17  A    between atoms: C20_29  and  C21_30 
REMARK   18  A    between atoms: C20_29  and  C24_33 
REMARK   19  A    between atoms: C20_29  and  N6_40 
REMARK   20  A    between atoms: C21_30  and  C22_31 
REMARK   21  A    between atoms: C22_31  and  C23_32 
REMARK   22  A    between atoms: C23_32  and  O8_43 
REMARK   23  A    between atoms: C24_33  and  C25_34 
REMARK   24  A    between atoms: C28_38  and  O6_39 
REMARK   25  A    between atoms: C29_42  and  O8_43 
REMARK   26  A    between atoms: C29_42  and  C35_49 
ROOT
ATOM      1  C14 non d ame      -8.632   5.202  67.613  0.00  0.00     0.089 C 
ATOM      2  H20 non d ame      -9.613   5.154  67.139  0.00  0.00     0.087 H 
ENDROOT
BRANCH   1   3
ATOM      3  N4  non d ame      -7.719   5.827  66.668  0.00  0.00    -0.346 N 
ATOM      4  C10 non d ame      -8.118   7.088  65.944  0.00  0.00     0.241 C 
ATOM      5  O4  non d ame      -9.180   7.580  66.136  0.00  0.00    -0.271 OA
ATOM      6  H19 non d ame      -6.820   5.391  66.516  0.00  0.00     0.163 HD
BRANCH   4   7
ATOM      7  C9  non d ame      -7.158   7.724  64.973  0.00  0.00     0.092 C 
ATOM      8  H11 non d ame      -7.012   7.057  64.124  0.00  0.00     0.088 H 
BRANCH   7   9
ATOM      9  N3  non d ame      -7.739   8.966  64.453  0.00  0.00    -0.346 N 
ATOM     10  C7  non d ame      -8.246   9.014  63.103  0.00  0.00     0.240 C 
ATOM     11  O3  non d ame      -8.192   8.064  62.422  0.00  0.00    -0.271 OA
ATOM     12  H10 non d ame      -7.791   9.794  65.028  0.00  0.00     0.163 HD
BRANCH  10  13
ATOM     13  C6  non d ame      -8.861  10.339  62.554  0.00  0.00     0.086 C 
ATOM     14  H6  non d ame      -9.780  10.176  61.993  0.00  0.00     0.086 H 
BRANCH  13  15
ATOM     15  N2  non d ame      -9.204  11.199  63.675  0.00  0.00    -0.343 N 
ATOM     16  C5  non d ame     -10.590  11.640  63.847  0.00  0.00     0.273 C 
ATOM     17  O2  non d ame     -11.420  11.300  63.077  0.00  0.00    -0.266 OA
ATOM     18  H5  non d ame      -8.487  11.486  64.326  0.00  0.00     0.163 HD
BRANCH  16  19
ATOM     19  C4  non d ame     -10.967  12.548  65.028  0.00  0.00     0.154 A 
ATOM     20  C1  non d ame     -10.395  13.817  65.360  0.00  0.00    -0.017 A 
ATOM     21  C2  non d ame     -11.085  14.234  66.521  0.00  0.00     0.077 A 
ATOM     22  H1  non d ame      -9.602  14.353  64.839  0.00  0.00     0.091 H 
ATOM     23  O1  non d ame     -11.950  13.307  66.811  0.00  0.00    -0.218 OA
ATOM     24  N1  non d ame     -11.900  12.313  65.955  0.00  0.00    -0.123 NA
BRANCH  21  25
ATOM     25  C3  non d ame     -10.858  15.530  67.288  0.00  0.00    -0.029 C 
ATOM     26  H2  non d ame     -11.800  16.072  67.373  0.00  0.00     0.036 H 
ATOM     27  H3  non d ame     -10.479  15.301  68.284  0.00  0.00     0.036 H 
ATOM     28  H4  non d ame     -10.132  16.145  66.756  0.00  0.00     0.036 H 
ENDBRANCH  21  25
ENDBRANCH  16  19
ENDBRANCH  13  15
BRANCH  13  29
ATOM     29  C8  non d ame      -7.860  11.028  61.662  0.00  0.00    -0.049 C 
ATOM     30  H7  non d ame      -7.097  11.509  62.274  0.00  0.00     0.030 H 
ATOM     31  H8  non d ame      -7.391  10.294  61.007  0.00  0.00     0.030 H 
ATOM     32  H9  non d ame      -8.369  11.781  61.060  0.00  0.00     0.030 H 
ENDBRANCH  13  29
ENDBRANCH  10  13
ENDBRANCH   7   9
BRANCH   7  33
ATOM     33  C11 non d ame      -5.821   8.047  65.702  0.00  0.00    -0.033 C 
ATOM     34  H12 non d ame      -5.689   7.305  66.490  0.00  0.00     0.042 H 
BRANCH  33  35
ATOM     35  C12 non d ame      -4.602   7.924  64.734  0.00  0.00    -0.071 C 
ATOM     36  H13 non d ame      -4.925   7.466  63.799  0.00  0.00     0.028 H 
ATOM     37  H14 non d ame      -4.198   8.916  64.532  0.00  0.00     0.028 H 
ATOM     38  H15 non d ame      -3.833   7.305  65.195  0.00  0.00     0.028 H 
ENDBRANCH  33  35
BRANCH  33  39
ATOM     39  C13 non d ame      -5.874   9.458  66.370  0.00  0.00    -0.071 C 
ATOM     40  H16 non d ame      -4.911   9.679  66.830  0.00  0.00     0.028 H 
ATOM     41  H17 non d ame      -6.095  10.211  65.612  0.00  0.00     0.028 H 
ATOM     42  H18 non d ame      -6.652   9.470  67.132  0.00  0.00     0.028 H 
ENDBRANCH  33  39
ENDBRANCH   7  33
ENDBRANCH   4   7
ENDBRANCH   1   3
BRANCH   1  43
ATOM     43  C15 non d ame      -8.651   6.050  68.917  0.00  0.00     0.240 C 
ATOM     44  O5  non d ame      -7.770   5.940  69.707  0.00  0.00    -0.271 OA
ATOM     45  N6  non d ame      -9.765   7.006  69.178  0.00  0.00    -0.355 N 
ATOM     46  H46 non d ame     -10.517   7.111  68.513  0.00  0.00     0.162 HD
BRANCH  45  47
ATOM     47  C20 non d ame      -9.768   7.806  70.422  0.00  0.00     0.013 C 
ATOM     48  H30 non d ame      -8.900   7.513  71.011  0.00  0.00     0.072 H 
BRANCH  47  49
ATOM     49  C21 non d ame     -11.036   7.522  71.195  0.00  0.00    -0.038 C 
ATOM     50  H31 non d ame     -11.817   7.396  70.445  0.00  0.00     0.036 H 
ATOM     51  H32 non d ame     -10.792   6.703  71.871  0.00  0.00     0.036 H 
BRANCH  49  52
ATOM     52  C22 non d ame     -11.473   8.706  72.085  0.00  0.00     0.018 C 
ATOM     53  H33 non d ame     -11.457   8.329  73.108  0.00  0.00     0.048 H 
ATOM     54  H34 non d ame     -10.831   9.541  71.802  0.00  0.00     0.048 H 
BRANCH  52  55
ATOM     55  C23 non d ame     -12.930   9.180  71.826  0.00  0.00     0.259 C 
ATOM     56  O7  non d ame     -13.790   8.392  71.599  0.00  0.00    -0.265 OA
BRANCH  55  57
ATOM     57  O8  non d ame     -13.225  10.572  71.849  0.00  0.00    -0.317 OA
BRANCH  57  58
ATOM     58  C29 non d ame     -12.589  11.319  70.809  0.00  0.00     0.052 C 
ATOM     59  H47 non d ame     -11.529  11.074  70.875  0.00  0.00     0.082 H 
ATOM     60  H48 non d ame     -13.146  11.093  69.900  0.00  0.00     0.082 H 
BRANCH  58  61
ATOM     61  C35 non d ame     -12.764  12.828  71.128  0.00  0.00    -0.034 A 
ATOM     62  C30 non d ame     -13.548  13.226  72.206  0.00  0.00    -0.075 A 
ATOM     63  C31 non d ame     -13.705  14.581  72.492  0.00  0.00    -0.082 A 
ATOM     64  H49 non d ame     -14.038  12.476  72.827  0.00  0.00     0.084 H 
ATOM     65  C32 non d ame     -13.077  15.541  71.694  0.00  0.00    -0.083 A 
ATOM     66  H50 non d ame     -14.318  14.890  73.339  0.00  0.00     0.083 H 
ATOM     67  C33 non d ame     -12.298  15.139  70.617  0.00  0.00    -0.082 A 
ATOM     68  H51 non d ame     -13.194  16.602  71.911  0.00  0.00     0.083 H 
ATOM     69  C34 non d ame     -12.136  13.786  70.328  0.00  0.00    -0.075 A 
ATOM     70  H52 non d ame     -11.811  15.890  69.994  0.00  0.00     0.083 H 
ATOM     71  H53 non d ame     -11.523  13.478  69.481  0.00  0.00     0.084 H 
ENDBRANCH  58  61
ENDBRANCH  57  58
ENDBRANCH  55  57
ENDBRANCH  52  55
ENDBRANCH  49  52
ENDBRANCH  47  49
BRANCH  47  72
ATOM     72  C24 non d ame      -9.701   9.293  70.080  0.00  0.00    -0.039 C 
ATOM     73  H35 non d ame     -10.579   9.489  69.464  0.00  0.00     0.036 H 
ATOM     74  H36 non d ame      -9.580   9.804  71.035  0.00  0.00     0.036 H 
BRANCH  72  75
ATOM     75  C25 non d ame      -8.413   9.639  69.192  0.00  0.00    -0.001 C 
ATOM     76  C26 non d ame      -7.060   9.595  70.127  0.00  0.00    -0.035 C 
ATOM     77  C27 non d ame      -6.370  10.747  69.949  0.00  0.00     0.085 C 
ATOM     78  H38 non d ame      -7.334   9.622  71.181  0.00  0.00     0.036 H 
ATOM     79  H39 non d ame      -6.377   8.829  69.760  0.00  0.00     0.036 H 
ATOM     80  N5  non d ame      -7.290  11.707  69.233  0.00  0.00    -0.049 N 
ATOM     81  H40 non d ame      -6.172  11.126  70.952  0.00  0.00     0.075 H 
ATOM     82  H41 non d ame      -5.542  10.491  69.289  0.00  0.00     0.075 H 
ATOM     83  C28 non d ame      -8.510  10.814  68.667  0.00  0.00     0.193 C 
ATOM     84  H42 non d ame      -7.651  12.336  69.936  0.00  0.00     0.280 HD
ATOM     85  H43 non d ame      -6.768  12.072  68.449  0.00  0.00     0.280 HD
ATOM     86  H44 non d ame      -8.562  10.555  67.609  0.00  0.00     0.129 H 
ATOM     87  H37 non d ame      -8.390   9.074  68.260  0.00  0.00     0.046 H 
BRANCH  83  88
ATOM     88  O6  non d ame      -9.759  11.438  68.968  0.00  0.00    -0.369 OA
ATOM     89  H45 non d ame     -10.448  11.056  68.420  0.00  0.00     0.212 HD
ENDBRANCH  83  88
ENDBRANCH  72  75
ENDBRANCH  47  72
ENDBRANCH  45  47
ENDBRANCH   1  43
BRANCH   1  90
ATOM     90  C16 non d ame      -8.140   3.798  67.924  0.00  0.00    -0.035 C 
ATOM     91  H21 non d ame      -7.695   3.436  66.997  0.00  0.00     0.037 H 
ATOM     92  H22 non d ame      -7.527   3.898  68.819  0.00  0.00     0.037 H 
BRANCH  90  93
ATOM     93  C17 non d ame      -9.285   2.798  68.283  0.00  0.00    -0.059 C 
ATOM     94  H23 non d ame     -10.228   3.251  67.978  0.00  0.00     0.038 H 
BRANCH  93  95
ATOM     95  C18 non d ame      -9.142   1.440  67.522  0.00  0.00    -0.073 C 
ATOM     96  H24 non d ame      -8.148   1.375  67.080  0.00  0.00     0.028 H 
ATOM     97  H25 non d ame      -9.284   0.616  68.222  0.00  0.00     0.028 H 
ATOM     98  H26 non d ame      -9.895   1.383  66.736  0.00  0.00     0.028 H 
ENDBRANCH  93  95
BRANCH  93  99
ATOM     99  C19 non d ame      -9.358   2.570  69.795  0.00  0.00    -0.073 C 
ATOM    100  H27 non d ame     -10.275   3.011  70.185  0.00  0.00     0.028 H 
ATOM    101  H28 non d ame      -9.353   1.499  70.001  0.00  0.00     0.028 H 
ATOM    102  H29 non d ame      -8.497   3.036  70.274  0.00  0.00     0.028 H 
ENDBRANCH  93  99
ENDBRANCH  90  93
ENDBRANCH   1  90
TORSDOF 26
ENDMDL
MODEL 12
REMARK VINA RESULT:      -6.6      2.533      5.310
REMARK  26 active torsions:
REMARK  status: ('A' for Active; 'I' for Inactive)
REMARK    1  A    between atoms: C2_2  and  C3_3 
REMARK    2  A    between atoms: C4_6  and  C5_7 
REMARK       I    between atoms: C5_7  and  N2_9 
REMARK    3  A    between atoms: N2_9  and  C6_10 
REMARK    4  A    between atoms: C6_10  and  C7_11 
REMARK    5  A    between atoms: C6_10  and  C8_13 
REMARK       I    between atoms: C7_11  and  N3_14 
REMARK    6  A    between atoms: N3_14  and  C9_15 
REMARK    7  A    between atoms: C9_15  and  C10_16 
REMARK    8  A    between atoms: C9_15  and  C11_18 
REMARK       I    between atoms: C10_16  and  N4_21 
REMARK    9  A    between atoms: C11_18  and  C12_19 
REMARK   10  A    between atoms: C11_18  and  C13_20 
REMARK   11  A    between atoms: N4_21  and  C14_22 
REMARK   12  A    between atoms: C14_22  and  C15_23 
REMARK   13  A    between atoms: C14_22  and  C16_25 
REMARK       I    between atoms: C15_23  and  N6_40 
REMARK   14  A    between atoms: C16_25  and  C17_26 
REMARK   15  A    between atoms: C17_26  and  C18_27 
REMARK   16  A    between atoms: C17_26  and  C19_28 
REMARK   17  A    between atoms: C20_29  and  C21_30 
REMARK   18  A    between atoms: C20_29  and  C24_33 
REMARK   19  A    between atoms: C20_29  and  N6_40 
REMARK   20  A    between atoms: C21_30  and  C22_31 
REMARK   21  A    between atoms: C22_31  and  C23_32 
REMARK   22  A    between atoms: C23_32  and  O8_43 
REMARK   23  A    between atoms: C24_33  and  C25_34 
REMARK   24  A    between atoms: C28_38  and  O6_39 
REMARK   25  A    between atoms: C29_42  and  O8_43 
REMARK   26  A    between atoms: C29_42  and  C35_49 
ROOT
ATOM      1  C14 non d ame      -8.839  10.127  66.394  0.00  0.00     0.089 C 
ATOM      2  H20 non d ame      -8.072  10.350  67.136  0.00  0.00     0.087 H 
ENDROOT
BRANCH   1   3
ATOM      3  N4  non d ame      -8.951   8.679  66.302  0.00  0.00    -0.346 N 
ATOM      4  C10 non d ame      -7.744   7.806  66.532  0.00  0.00     0.241 C 
ATOM      5  O4  non d ame      -6.692   8.291  66.788  0.00  0.00    -0.271 OA
ATOM      6  H19 non d ame      -9.855   8.286  66.080  0.00  0.00     0.163 HD
BRANCH   4   7
ATOM      7  C9  non d ame      -7.879   6.308  66.437  0.00  0.00     0.092 C 
ATOM      8  H11 non d ame      -6.889   5.856  66.478  0.00  0.00     0.088 H 
BRANCH   7   9
ATOM      9  N3  non d ame      -8.631   5.811  67.594  0.00  0.00    -0.346 N 
ATOM     10  C7  non d ame      -7.961   5.037  68.610  0.00  0.00     0.240 C 
ATOM     11  O3  non d ame      -6.818   4.803  68.511  0.00  0.00    -0.271 OA
ATOM     12  H10 non d ame      -9.618   6.003  67.691  0.00  0.00     0.163 HD
BRANCH  10  13
ATOM     13  C6  non d ame      -8.767   4.508  69.837  0.00  0.00     0.086 C 
ATOM     14  H6  non d ame      -8.154   4.408  70.732  0.00  0.00     0.086 H 
BRANCH  13  15
ATOM     15  N2  non d ame      -9.817   5.460  70.156  0.00  0.00    -0.343 N 
ATOM     16  C5  non d ame      -9.583   6.474  71.187  0.00  0.00     0.273 C 
ATOM     17  O2  non d ame      -8.547   6.514  71.755  0.00  0.00    -0.266 OA
ATOM     18  H5  non d ame     -10.701   5.417  69.668  0.00  0.00     0.163 HD
BRANCH  16  19
ATOM     19  C4  non d ame     -10.684   7.488  71.534  0.00  0.00     0.154 A 
ATOM     20  C1  non d ame     -11.097   8.616  70.757  0.00  0.00    -0.017 A 
ATOM     21  C2  non d ame     -12.132   9.216  71.508  0.00  0.00     0.077 A 
ATOM     22  H1  non d ame     -10.706   8.948  69.795  0.00  0.00     0.091 H 
ATOM     23  O1  non d ame     -12.288   8.507  72.588  0.00  0.00    -0.218 OA
ATOM     24  N1  non d ame     -11.454   7.494  72.626  0.00  0.00    -0.123 NA
BRANCH  21  25
ATOM     25  C3  non d ame     -12.919  10.462  71.125  0.00  0.00    -0.029 C 
ATOM     26  H2  non d ame     -13.986  10.264  71.227  0.00  0.00     0.036 H 
ATOM     27  H3  non d ame     -12.638  11.286  71.780  0.00  0.00     0.036 H 
ATOM     28  H4  non d ame     -12.696  10.729  70.091  0.00  0.00     0.036 H 
ENDBRANCH  21  25
ENDBRANCH  16  19
ENDBRANCH  13  15
BRANCH  13  29
ATOM     29  C8  non d ame      -9.369   3.166  69.505  0.00  0.00    -0.049 C 
ATOM     30  H7  non d ame     -10.228   3.305  68.849  0.00  0.00     0.030 H 
ATOM     31  H8  non d ame      -8.624   2.548  69.004  0.00  0.00     0.030 H 
ATOM     32  H9  non d ame      -9.690   2.676  70.424  0.00  0.00     0.030 H 
ENDBRANCH  13  29
ENDBRANCH  10  13
ENDBRANCH   7   9
BRANCH   7  33
ATOM     33  C11 non d ame      -8.640   5.938  65.130  0.00  0.00    -0.033 C 
ATOM     34  H12 non d ame      -9.356   6.735  64.929  0.00  0.00     0.042 H 
BRANCH  33  35
ATOM     35  C12 non d ame      -7.669   5.861  63.911  0.00  0.00    -0.071 C 
ATOM     36  H13 non d ame      -8.245   5.713  62.997  0.00  0.00     0.028 H 
ATOM     37  H14 non d ame      -7.105   6.791  63.836  0.00  0.00     0.028 H 
ATOM     38  H15 non d ame      -6.981   5.028  64.046  0.00  0.00     0.028 H 
ENDBRANCH  33  35
BRANCH  33  39
ATOM     39  C13 non d ame      -9.436   4.605  65.305  0.00  0.00    -0.071 C 
ATOM     40  H16 non d ame      -9.774   4.517  66.337  0.00  0.00     0.028 H 
ATOM     41  H17 non d ame     -10.299   4.608  64.638  0.00  0.00     0.028 H 
ATOM     42  H18 non d ame      -8.790   3.762  65.060  0.00  0.00     0.028 H 
ENDBRANCH  33  39
ENDBRANCH   7  33
ENDBRANCH   4   7
ENDBRANCH   1   3
BRANCH   1  43
ATOM     43  C15 non d ame     -10.227  10.707  66.793  0.00  0.00     0.240 C 
ATOM     44  O5  non d ame     -11.019  10.016  67.347  0.00  0.00    -0.271 OA
ATOM     45  N6  non d ame     -10.565  12.127  66.491  0.00  0.00    -0.355 N 
ATOM     46  H46 non d ame      -9.898  12.725  66.025  0.00  0.00     0.162 HD
BRANCH  45  47
ATOM     47  C20 non d ame     -11.887  12.664  66.877  0.00  0.00     0.013 C 
ATOM     48  H30 non d ame     -12.588  11.830  66.922  0.00  0.00     0.072 H 
BRANCH  47  49
ATOM     49  C21 non d ame     -12.343  13.666  65.840  0.00  0.00    -0.038 C 
ATOM     50  H31 non d ame     -13.056  13.134  65.210  0.00  0.00     0.036 H 
ATOM     51  H32 non d ame     -12.659  14.545  66.400  0.00  0.00     0.036 H 
BRANCH  49  52
ATOM     52  C22 non d ame     -11.199  14.128  64.911  0.00  0.00     0.018 C 
ATOM     53  H33 non d ame     -10.275  13.904  65.445  0.00  0.00     0.048 H 
ATOM     54  H34 non d ame     -11.397  13.662  63.945  0.00  0.00     0.048 H 
BRANCH  52  55
ATOM     55  C23 non d ame     -11.183  15.660  64.652  0.00  0.00     0.259 C 
ATOM     56  O7  non d ame     -12.006  16.163  63.958  0.00  0.00    -0.265 OA
BRANCH  55  57
ATOM     57  O8  non d ame     -10.164  16.456  65.244  0.00  0.00    -0.317 OA
BRANCH  57  58
ATOM     58  C29 non d ame     -10.611  17.741  65.686  0.00  0.00     0.052 C 
ATOM     59  H47 non d ame     -10.538  18.394  64.816  0.00  0.00     0.082 H 
ATOM     60  H48 non d ame     -11.578  17.570  66.159  0.00  0.00     0.082 H 
BRANCH  58  61
ATOM     61  C35 non d ame      -9.619  18.249  66.766  0.00  0.00    -0.034 A 
ATOM     62  C30 non d ame      -8.262  17.961  66.655  0.00  0.00    -0.075 A 
ATOM     63  C31 non d ame      -7.371  18.417  67.625  0.00  0.00    -0.082 A 
ATOM     64  H49 non d ame      -7.898  17.379  65.809  0.00  0.00     0.084 H 
ATOM     65  C32 non d ame      -7.841  19.161  68.710  0.00  0.00    -0.083 A 
ATOM     66  H50 non d ame      -6.308  18.192  67.535  0.00  0.00     0.083 H 
ATOM     67  C33 non d ame      -9.196  19.444  68.818  0.00  0.00    -0.082 A 
ATOM     68  H51 non d ame      -7.151  19.522  69.473  0.00  0.00     0.083 H 
ATOM     69  C34 non d ame     -10.090  18.992  67.850  0.00  0.00    -0.075 A 
ATOM     70  H52 non d ame      -9.560  20.023  69.667  0.00  0.00     0.083 H 
ATOM     71  H53 non d ame     -11.153  19.218  67.940  0.00  0.00     0.084 H 
ENDBRANCH  58  61
ENDBRANCH  57  58
ENDBRANCH  55  57
ENDBRANCH  52  55
ENDBRANCH  49  52
ENDBRANCH  47  49
BRANCH  47  72
ATOM     72  C24 non d ame     -11.790  13.348  68.239  0.00  0.00    -0.039 C 
ATOM     73  H35 non d ame     -12.820  13.492  68.566  0.00  0.00     0.036 H 
ATOM     74  H36 non d ame     -11.113  12.728  68.827  0.00  0.00     0.036 H 
BRANCH  72  75
ATOM     75  C25 non d ame     -11.122  14.800  68.126  0.00  0.00    -0.001 C 
ATOM     76  C26 non d ame      -9.515  14.705  68.462  0.00  0.00    -0.035 C 
ATOM     77  C27 non d ame      -9.210  15.633  69.400  0.00  0.00     0.085 C 
ATOM     78  H38 non d ame      -9.292  13.760  68.956  0.00  0.00     0.036 H 
ATOM     79  H39 non d ame      -8.933  15.018  67.595  0.00  0.00     0.036 H 
ATOM     80  N5  non d ame     -10.516  16.129  69.972  0.00  0.00    -0.049 N 
ATOM     81  H40 non d ame      -8.664  15.095  70.176  0.00  0.00     0.075 H 
ATOM     82  H41 non d ame      -8.728  16.447  68.859  0.00  0.00     0.075 H 
ATOM     83  C28 non d ame     -11.665  15.630  68.953  0.00  0.00     0.193 C 
ATOM     84  H42 non d ame     -10.641  15.655  70.855  0.00  0.00     0.280 HD
ATOM     85  H43 non d ame     -10.477  17.138  69.942  0.00  0.00     0.280 HD
ATOM     86  H44 non d ame     -12.130  16.328  68.257  0.00  0.00     0.129 H 
ATOM     87  H37 non d ame     -11.407  15.315  67.209  0.00  0.00     0.046 H 
BRANCH  83  88
ATOM     88  O6  non d ame     -12.744  15.039  69.679  0.00  0.00    -0.369 OA
ATOM     89  H45 non d ame     -13.289  14.525  69.079  0.00  0.00     0.212 HD
ENDBRANCH  83  88
ENDBRANCH  72  75
ENDBRANCH  47  72
ENDBRANCH  45  47
ENDBRANCH   1  43
BRANCH   1  90
ATOM     90  C16 non d ame      -8.423  10.681  65.041  0.00  0.00    -0.035 C 
ATOM     91  H21 non d ame      -8.687  11.738  65.068  0.00  0.00     0.037 H 
ATOM     92  H22 non d ame      -7.383  10.382  64.914  0.00  0.00     0.037 H 
BRANCH  90  93
ATOM     93  C17 non d ame      -9.210  10.060  63.842  0.00  0.00    -0.059 C 
ATOM     94  H23 non d ame      -9.866   9.288  64.242  0.00  0.00     0.038 H 
BRANCH  93  95
ATOM     95  C18 non d ame     -10.103  11.116  63.114  0.00  0.00    -0.073 C 
ATOM     96  H24 non d ame      -9.686  11.326  62.130  0.00  0.00     0.028 H 
ATOM     97  H25 non d ame     -11.114  10.722  63.005  0.00  0.00     0.028 H 
ATOM     98  H26 non d ame     -10.132  12.034  63.701  0.00  0.00     0.028 H 
ENDBRANCH  93  95
BRANCH  93  99
ATOM     99  C19 non d ame      -8.256   9.381  62.856  0.00  0.00    -0.073 C 
ATOM    100  H27 non d ame      -8.821   9.010  62.000  0.00  0.00     0.028 H 
ATOM    101  H28 non d ame      -7.512  10.102  62.515  0.00  0.00     0.028 H 
ATOM    102  H29 non d ame      -7.755   8.548  63.349  0.00  0.00     0.028 H 
ENDBRANCH  93  99
ENDBRANCH  90  93
ENDBRANCH   1  90
TORSDOF 26
ENDMDL
MODEL 13
REMARK VINA RESULT:      -6.6      2.430      4.324
REMARK  26 active torsions:
REMARK  status: ('A' for Active; 'I' for Inactive)
REMARK    1  A    between atoms: C2_2  and  C3_3 
REMARK    2  A    between atoms: C4_6  and  C5_7 
REMARK       I    between atoms: C5_7  and  N2_9 
REMARK    3  A    between atoms: N2_9  and  C6_10 
REMARK    4  A    between atoms: C6_10  and  C7_11 
REMARK    5  A    between atoms: C6_10  and  C8_13 
REMARK       I    between atoms: C7_11  and  N3_14 
REMARK    6  A    between atoms: N3_14  and  C9_15 
REMARK    7  A    between atoms: C9_15  and  C10_16 
REMARK    8  A    between atoms: C9_15  and  C11_18 
REMARK       I    between atoms: C10_16  and  N4_21 
REMARK    9  A    between atoms: C11_18  and  C12_19 
REMARK   10  A    between atoms: C11_18  and  C13_20 
REMARK   11  A    between atoms: N4_21  and  C14_22 
REMARK   12  A    between atoms: C14_22  and  C15_23 
REMARK   13  A    between atoms: C14_22  and  C16_25 
REMARK       I    between atoms: C15_23  and  N6_40 
REMARK   14  A    between atoms: C16_25  and  C17_26 
REMARK   15  A    between atoms: C17_26  and  C18_27 
REMARK   16  A    between atoms: C17_26  and  C19_28 
REMARK   17  A    between atoms: C20_29  and  C21_30 
REMARK   18  A    between atoms: C20_29  and  C24_33 
REMARK   19  A    between atoms: C20_29  and  N6_40 
REMARK   20  A    between atoms: C21_30  and  C22_31 
REMARK   21  A    between atoms: C22_31  and  C23_32 
REMARK   22  A    between atoms: C23_32  and  O8_43 
REMARK   23  A    between atoms: C24_33  and  C25_34 
REMARK   24  A    between atoms: C28_38  and  O6_39 
REMARK   25  A    between atoms: C29_42  and  O8_43 
REMARK   26  A    between atoms: C29_42  and  C35_49 
ROOT
ATOM      1  C14 non d ame     -10.171  10.102  68.690  0.00  0.00     0.089 C 
ATOM      2  H20 non d ame      -9.452  10.184  69.506  0.00  0.00     0.087 H 
ENDROOT
BRANCH   1   3
ATOM      3  N4  non d ame     -10.889   8.848  68.863  0.00  0.00    -0.346 N 
ATOM      4  C10 non d ame     -11.008   8.221  70.229  0.00  0.00     0.241 C 
ATOM      5  O4  non d ame     -10.515   8.742  71.174  0.00  0.00    -0.271 OA
ATOM      6  H19 non d ame     -11.300   8.419  68.046  0.00  0.00     0.163 HD
BRANCH   4   7
ATOM      7  C9  non d ame     -11.760   6.926  70.391  0.00  0.00     0.092 C 
ATOM      8  H11 non d ame     -12.508   6.845  69.602  0.00  0.00     0.088 H 
BRANCH   7   9
ATOM      9  N3  non d ame     -10.836   5.800  70.228  0.00  0.00    -0.346 N 
ATOM     10  C7  non d ame     -10.464   5.357  68.907  0.00  0.00     0.240 C 
ATOM     11  O3  non d ame     -10.901   5.895  67.963  0.00  0.00    -0.271 OA
ATOM     12  H10 non d ame     -10.452   5.325  71.033  0.00  0.00     0.163 HD
BRANCH  10  13
ATOM     13  C6  non d ame      -9.482   4.156  68.740  0.00  0.00     0.086 C 
ATOM     14  H6  non d ame      -9.902   3.348  68.142  0.00  0.00     0.086 H 
BRANCH  13  15
ATOM     15  N2  non d ame      -8.291   4.614  68.043  0.00  0.00    -0.343 N 
ATOM     16  C5  non d ame      -8.169   4.390  66.601  0.00  0.00     0.273 C 
ATOM     17  O2  non d ame      -9.032   3.838  66.012  0.00  0.00    -0.266 OA
ATOM     18  H5  non d ame      -7.557   5.083  68.555  0.00  0.00     0.163 HD
BRANCH  16  19
ATOM     19  C4  non d ame      -6.916   4.870  65.851  0.00  0.00     0.154 A 
ATOM     20  C1  non d ame      -6.872   5.655  64.655  0.00  0.00    -0.017 A 
ATOM     21  C2  non d ame      -5.497   5.822  64.380  0.00  0.00     0.077 A 
ATOM     22  H1  non d ame      -7.710   6.043  64.076  0.00  0.00     0.091 H 
ATOM     23  O1  non d ame      -4.837   5.203  65.316  0.00  0.00    -0.218 OA
ATOM     24  N1  non d ame      -5.644   4.640  66.185  0.00  0.00    -0.123 NA
BRANCH  21  25
ATOM     25  C3  non d ame      -4.898   6.586  63.207  0.00  0.00    -0.029 C 
ATOM     26  H2  non d ame      -3.818   6.666  63.338  0.00  0.00     0.036 H 
ATOM     27  H3  non d ame      -5.114   6.056  62.280  0.00  0.00     0.036 H 
ATOM     28  H4  non d ame      -5.333   7.585  63.164  0.00  0.00     0.036 H 
ENDBRANCH  21  25
ENDBRANCH  16  19
ENDBRANCH  13  15
BRANCH  13  29
ATOM     29  C8  non d ame      -9.110   3.616  70.097  0.00  0.00    -0.049 C 
ATOM     30  H7  non d ame      -9.044   2.529  70.050  0.00  0.00     0.030 H 
ATOM     31  H8  non d ame      -8.146   4.026  70.400  0.00  0.00     0.030 H 
ATOM     32  H9  non d ame      -9.871   3.902  70.823  0.00  0.00     0.030 H 
ENDBRANCH  13  29
ENDBRANCH  10  13
ENDBRANCH   7   9
BRANCH   7  33
ATOM     33  C11 non d ame     -12.397   6.869  71.810  0.00  0.00    -0.033 C 
ATOM     34  H12 non d ame     -12.058   7.748  72.358  0.00  0.00     0.042 H 
BRANCH  33  35
ATOM     35  C12 non d ame     -13.955   6.935  71.737  0.00  0.00    -0.071 C 
ATOM     36  H13 non d ame     -14.382   6.360  72.559  0.00  0.00     0.028 H 
ATOM     37  H14 non d ame     -14.279   7.973  71.814  0.00  0.00     0.028 H 
ATOM     38  H15 non d ame     -14.292   6.518  70.788  0.00  0.00     0.028 H 
ENDBRANCH  33  35
BRANCH  33  39
ATOM     39  C13 non d ame     -11.920   5.601  72.588  0.00  0.00    -0.071 C 
ATOM     40  H16 non d ame     -11.692   5.871  73.618  0.00  0.00     0.028 H 
ATOM     41  H17 non d ame     -12.709   4.848  72.575  0.00  0.00     0.028 H 
ATOM     42  H18 non d ame     -11.026   5.199  72.111  0.00  0.00     0.028 H 
ENDBRANCH  33  39
ENDBRANCH   7  33
ENDBRANCH   4   7
ENDBRANCH   1   3
BRANCH   1  43
ATOM     43  C15 non d ame     -11.201  11.268  68.695  0.00  0.00     0.240 C 
ATOM     44  O5  non d ame     -12.354  11.038  68.521  0.00  0.00    -0.271 OA
ATOM     45  N6  non d ame     -10.750  12.670  68.926  0.00  0.00    -0.355 N 
ATOM     46  H46 non d ame      -9.774  12.877  69.079  0.00  0.00     0.162 HD
BRANCH  45  47
ATOM     47  C20 non d ame     -11.742  13.767  68.929  0.00  0.00     0.013 C 
ATOM     48  H30 non d ame     -12.711  13.343  69.193  0.00  0.00     0.072 H 
BRANCH  47  49
ATOM     49  C21 non d ame     -11.808  14.385  67.550  0.00  0.00    -0.038 C 
ATOM     50  H31 non d ame     -12.718  13.995  67.095  0.00  0.00     0.036 H 
ATOM     51  H32 non d ame     -11.691  15.458  67.704  0.00  0.00     0.036 H 
BRANCH  49  52
ATOM     52  C22 non d ame     -10.641  13.944  66.640  0.00  0.00     0.018 C 
ATOM     53  H33 non d ame     -10.243  14.862  66.205  0.00  0.00     0.048 H 
ATOM     54  H34 non d ame     -10.004  13.315  67.261  0.00  0.00     0.048 H 
BRANCH  52  55
ATOM     55  C23 non d ame     -11.082  13.058  65.442  0.00  0.00     0.259 C 
ATOM     56  O7  non d ame     -12.219  12.736  65.316  0.00  0.00    -0.265 OA
BRANCH  55  57
ATOM     57  O8  non d ame     -10.108  12.623  64.501  0.00  0.00    -0.317 OA
BRANCH  57  58
ATOM     58  C29 non d ame     -10.608  11.702  63.528  0.00  0.00     0.052 C 
ATOM     59  H47 non d ame     -11.385  11.130  64.036  0.00  0.00     0.082 H 
ATOM     60  H48 non d ame     -10.857  12.302  62.654  0.00  0.00     0.082 H 
BRANCH  58  61
ATOM     61  C35 non d ame      -9.456  10.734  63.148  0.00  0.00    -0.034 A 
ATOM     62  C30 non d ame      -9.259   9.565  63.876  0.00  0.00    -0.075 A 
ATOM     63  C31 non d ame      -8.224   8.696  63.535  0.00  0.00    -0.082 A 
ATOM     64  H49 non d ame      -9.916   9.330  64.713  0.00  0.00     0.084 H 
ATOM     65  C32 non d ame      -7.382   9.001  62.462  0.00  0.00    -0.083 A 
ATOM     66  H50 non d ame      -8.074   7.779  64.105  0.00  0.00     0.083 H 
ATOM     67  C33 non d ame      -7.580  10.170  61.741  0.00  0.00    -0.082 A 
ATOM     68  H51 non d ame      -6.571   8.327  62.188  0.00  0.00     0.083 H 
ATOM     69  C34 non d ame      -8.615  11.041  62.077  0.00  0.00    -0.075 A 
ATOM     70  H52 non d ame      -6.920  10.407  60.906  0.00  0.00     0.083 H 
ATOM     71  H53 non d ame      -8.765  11.957  61.505  0.00  0.00     0.084 H 
ENDBRANCH  58  61
ENDBRANCH  57  58
ENDBRANCH  55  57
ENDBRANCH  52  55
ENDBRANCH  49  52
ENDBRANCH  47  49
BRANCH  47  72
ATOM     72  C24 non d ame     -11.333  14.830  69.946  0.00  0.00    -0.039 C 
ATOM     73  H35 non d ame     -10.256  14.713  70.071  0.00  0.00     0.036 H 
ATOM     74  H36 non d ame     -11.738  15.768  69.564  0.00  0.00     0.036 H 
BRANCH  72  75
ATOM     75  C25 non d ame     -12.006  14.573  71.376  0.00  0.00    -0.001 C 
ATOM     76  C26 non d ame     -13.488  13.886  71.182  0.00  0.00    -0.035 C 
ATOM     77  C27 non d ame     -14.395  14.598  71.894  0.00  0.00     0.085 C 
ATOM     78  H38 non d ame     -13.823  14.005  70.152  0.00  0.00     0.036 H 
ATOM     79  H39 non d ame     -13.510  12.903  71.653  0.00  0.00     0.036 H 
ATOM     80  N5  non d ame     -13.728  15.893  72.290  0.00  0.00    -0.049 N 
ATOM     81  H40 non d ame     -15.207  14.814  71.198  0.00  0.00     0.075 H 
ATOM     82  H41 non d ame     -14.588  14.009  72.790  0.00  0.00     0.075 H 
ATOM     83  C28 non d ame     -12.149  15.676  72.031  0.00  0.00     0.193 C 
ATOM     84  H42 non d ame     -14.065  16.596  71.648  0.00  0.00     0.280 HD
ATOM     85  H43 non d ame     -13.879  16.001  73.283  0.00  0.00     0.280 HD
ATOM     86  H44 non d ame     -11.471  15.500  72.866  0.00  0.00     0.129 H 
ATOM     87  H37 non d ame     -11.323  14.088  72.073  0.00  0.00     0.046 H 
BRANCH  83  88
ATOM     88  O6  non d ame     -11.607  16.795  71.327  0.00  0.00    -0.369 OA
ATOM     89  H45 non d ame     -11.387  17.490  71.952  0.00  0.00     0.212 HD
ENDBRANCH  83  88
ENDBRANCH  72  75
ENDBRANCH  47  72
ENDBRANCH  45  47
ENDBRANCH   1  43
BRANCH   1  90
ATOM     90  C16 non d ame      -9.437  10.074  67.359  0.00  0.00    -0.035 C 
ATOM     91  H21 non d ame      -9.901   9.268  66.790  0.00  0.00     0.037 H 
ATOM     92  H22 non d ame      -9.477  11.097  66.986  0.00  0.00     0.037 H 
BRANCH  90  93
ATOM     93  C17 non d ame      -7.924   9.709  67.486  0.00  0.00    -0.059 C 
ATOM     94  H23 non d ame      -7.388  10.244  66.702  0.00  0.00     0.038 H 
BRANCH  93  95
ATOM     95  C18 non d ame      -7.324  10.149  68.860  0.00  0.00    -0.073 C 
ATOM     96  H24 non d ame      -7.448  11.225  68.981  0.00  0.00     0.028 H 
ATOM     97  H25 non d ame      -7.843   9.630  69.666  0.00  0.00     0.028 H 
ATOM     98  H26 non d ame      -6.263   9.899  68.890  0.00  0.00     0.028 H 
ENDBRANCH  93  95
BRANCH  93  99
ATOM     99  C19 non d ame      -7.700   8.213  67.249  0.00  0.00    -0.073 C 
ATOM    100  H27 non d ame      -7.133   7.794  68.080  0.00  0.00     0.028 H 
ATOM    101  H28 non d ame      -8.664   7.709  67.175  0.00  0.00     0.028 H 
ATOM    102  H29 non d ame      -7.145   8.071  66.322  0.00  0.00     0.028 H 
ENDBRANCH  93  99
ENDBRANCH  90  93
ENDBRANCH   1  90
TORSDOF 26
ENDMDL
MODEL 14
REMARK VINA RESULT:      -6.6      2.739      7.181
REMARK  26 active torsions:
REMARK  status: ('A' for Active; 'I' for Inactive)
REMARK    1  A    between atoms: C2_2  and  C3_3 
REMARK    2  A    between atoms: C4_6  and  C5_7 
REMARK       I    between atoms: C5_7  and  N2_9 
REMARK    3  A    between atoms: N2_9  and  C6_10 
REMARK    4  A    between atoms: C6_10  and  C7_11 
REMARK    5  A    between atoms: C6_10  and  C8_13 
REMARK       I    between atoms: C7_11  and  N3_14 
REMARK    6  A    between atoms: N3_14  and  C9_15 
REMARK    7  A    between atoms: C9_15  and  C10_16 
REMARK    8  A    between atoms: C9_15  and  C11_18 
REMARK       I    between atoms: C10_16  and  N4_21 
REMARK    9  A    between atoms: C11_18  and  C12_19 
REMARK   10  A    between atoms: C11_18  and  C13_20 
REMARK   11  A    between atoms: N4_21  and  C14_22 
REMARK   12  A    between atoms: C14_22  and  C15_23 
REMARK   13  A    between atoms: C14_22  and  C16_25 
REMARK       I    between atoms: C15_23  and  N6_40 
REMARK   14  A    between atoms: C16_25  and  C17_26 
REMARK   15  A    between atoms: C17_26  and  C18_27 
REMARK   16  A    between atoms: C17_26  and  C19_28 
REMARK   17  A    between atoms: C20_29  and  C21_30 
REMARK   18  A    between atoms: C20_29  and  C24_33 
REMARK   19  A    between atoms: C20_29  and  N6_40 
REMARK   20  A    between atoms: C21_30  and  C22_31 
REMARK   21  A    between atoms: C22_31  and  C23_32 
REMARK   22  A    between atoms: C23_32  and  O8_43 
REMARK   23  A    between atoms: C24_33  and  C25_34 
REMARK   24  A    between atoms: C28_38  and  O6_39 
REMARK   25  A    between atoms: C29_42  and  O8_43 
REMARK   26  A    between atoms: C29_42  and  C35_49 
ROOT
ATOM      1  C14 non d ame      -9.977  12.566  65.836  0.00  0.00     0.089 C 
ATOM      2  H20 non d ame      -9.819  13.054  64.874  0.00  0.00     0.087 H 
ENDROOT
BRANCH   1   3
ATOM      3  N4  non d ame      -9.245  11.308  65.814  0.00  0.00    -0.346 N 
ATOM      4  C10 non d ame      -8.955  10.618  64.506  0.00  0.00     0.241 C 
ATOM      5  O4  non d ame      -9.324  11.092  63.482  0.00  0.00    -0.271 OA
ATOM      6  H19 non d ame      -8.942  10.920  66.696  0.00  0.00     0.163 HD
BRANCH   4   7
ATOM      7  C9  non d ame      -8.192   9.320  64.502  0.00  0.00     0.092 C 
ATOM      8  H11 non d ame      -7.271   9.444  65.071  0.00  0.00     0.088 H 
BRANCH   7   9
ATOM      9  N3  non d ame      -8.982   8.285  65.176  0.00  0.00    -0.346 N 
ATOM     10  C7  non d ame      -8.563   7.782  66.461  0.00  0.00     0.240 C 
ATOM     11  O3  non d ame      -7.592   8.197  66.966  0.00  0.00    -0.271 OA
ATOM     12  H10 non d ame      -9.821   7.916  64.752  0.00  0.00     0.163 HD
BRANCH  10  13
ATOM     13  C6  non d ame      -9.407   6.679  67.172  0.00  0.00     0.086 C 
ATOM     14  H6  non d ame      -9.074   5.670  66.928  0.00  0.00     0.086 H 
BRANCH  13  15
ATOM     15  N2  non d ame      -9.261   6.828  68.611  0.00  0.00    -0.343 N 
ATOM     16  C5  non d ame      -9.392   5.653  69.475  0.00  0.00     0.273 C 
ATOM     17  O2  non d ame      -9.617   4.592  69.003  0.00  0.00    -0.266 OA
ATOM     18  H5  non d ame      -9.071   7.738  69.006  0.00  0.00     0.163 HD
BRANCH  16  19
ATOM     19  C4  non d ame      -9.238   5.795  70.997  0.00  0.00     0.154 A 
ATOM     20  C1  non d ame     -10.144   5.334  72.004  0.00  0.00    -0.017 A 
ATOM     21  C2  non d ame      -9.547   5.709  73.229  0.00  0.00     0.077 A 
ATOM     22  H1  non d ame     -11.089   4.807  71.868  0.00  0.00     0.091 H 
ATOM     23  O1  non d ame      -8.430   6.313  72.947  0.00  0.00    -0.218 OA
ATOM     24  N1  non d ame      -8.228   6.376  71.651  0.00  0.00    -0.123 NA
BRANCH  21  25
ATOM     25  C3  non d ame     -10.109   5.452  74.621  0.00  0.00    -0.029 C 
ATOM     26  H2  non d ame     -10.139   4.379  74.809  0.00  0.00     0.036 H 
ATOM     27  H3  non d ame      -9.472   5.933  75.364  0.00  0.00     0.036 H 
ATOM     28  H4  non d ame     -11.117   5.862  74.688  0.00  0.00     0.036 H 
ENDBRANCH  21  25
ENDBRANCH  16  19
ENDBRANCH  13  15
BRANCH  13  29
ATOM     29  C8  non d ame     -10.856   6.821  66.783  0.00  0.00    -0.049 C 
ATOM     30  H7  non d ame     -11.108   7.878  66.700  0.00  0.00     0.030 H 
ATOM     31  H8  non d ame     -11.024   6.331  65.824  0.00  0.00     0.030 H 
ATOM     32  H9  non d ame     -11.484   6.358  67.543  0.00  0.00     0.030 H 
ENDBRANCH  13  29
ENDBRANCH  10  13
ENDBRANCH   7   9
BRANCH   7  33
ATOM     33  C11 non d ame      -7.918   8.884  63.032  0.00  0.00    -0.033 C 
ATOM     34  H12 non d ame      -8.588   9.455  62.390  0.00  0.00     0.042 H 
BRANCH  33  35
ATOM     35  C12 non d ame      -6.456   9.221  62.603  0.00  0.00    -0.071 C 
ATOM     36  H13 non d ame      -5.949   9.741  63.416  0.00  0.00     0.028 H 
ATOM     37  H14 non d ame      -5.922   8.298  62.375  0.00  0.00     0.028 H 
ATOM     38  H15 non d ame      -6.475   9.858  61.719  0.00  0.00     0.028 H 
ENDBRANCH  33  35
BRANCH  33  39
ATOM     39  C13 non d ame      -8.232   7.366  62.831  0.00  0.00    -0.071 C 
ATOM     40  H16 non d ame      -7.647   6.982  61.996  0.00  0.00     0.028 H 
ATOM     41  H17 non d ame      -7.973   6.818  63.738  0.00  0.00     0.028 H 
ATOM     42  H18 non d ame      -9.293   7.240  62.621  0.00  0.00     0.028 H 
ENDBRANCH  33  39
ENDBRANCH   7  33
ENDBRANCH   4   7
ENDBRANCH   1   3
BRANCH   1  43
ATOM     43  C15 non d ame      -9.453  13.424  67.023  0.00  0.00     0.240 C 
ATOM     44  O5  non d ame      -8.647  12.970  67.770  0.00  0.00    -0.271 OA
ATOM     45  N6  non d ame      -9.949  14.815  67.224  0.00  0.00    -0.355 N 
ATOM     46  H46 non d ame     -10.630  15.213  66.593  0.00  0.00     0.162 HD
BRANCH  45  47
ATOM     47  C20 non d ame      -9.440  15.619  68.356  0.00  0.00     0.013 C 
ATOM     48  H30 non d ame      -8.644  15.051  68.839  0.00  0.00     0.072 H 
BRANCH  47  49
ATOM     49  C21 non d ame     -10.564  15.869  69.336  0.00  0.00    -0.038 C 
ATOM     50  H31 non d ame     -10.175  15.576  70.312  0.00  0.00     0.036 H 
ATOM     51  H32 non d ame     -10.882  16.897  69.162  0.00  0.00     0.036 H 
BRANCH  49  52
ATOM     52  C22 non d ame     -11.798  14.979  69.073  0.00  0.00     0.018 C 
ATOM     53  H33 non d ame     -12.453  15.566  68.429  0.00  0.00     0.048 H 
ATOM     54  H34 non d ame     -11.404  14.024  68.725  0.00  0.00     0.048 H 
BRANCH  52  55
ATOM     55  C23 non d ame     -12.625  14.662  70.350  0.00  0.00     0.259 C 
ATOM     56  O7  non d ame     -13.195  15.528  70.930  0.00  0.00    -0.265 OA
BRANCH  55  57
ATOM     57  O8  non d ame     -12.683  13.323  70.827  0.00  0.00    -0.317 OA
BRANCH  57  58
ATOM     58  C29 non d ame     -11.981  12.382  70.010  0.00  0.00     0.052 C 
ATOM     59  H47 non d ame     -12.496  12.383  69.049  0.00  0.00     0.082 H 
ATOM     60  H48 non d ame     -10.931  12.670  70.065  0.00  0.00     0.082 H 
BRANCH  58  61
ATOM     61  C35 non d ame     -12.140  10.978  70.651  0.00  0.00    -0.034 A 
ATOM     62  C30 non d ame     -13.107  10.764  71.628  0.00  0.00    -0.075 A 
ATOM     63  C31 non d ame     -13.250   9.503  72.204  0.00  0.00    -0.082 A 
ATOM     64  H49 non d ame     -13.754  11.584  71.941  0.00  0.00     0.084 H 
ATOM     65  C32 non d ame     -12.419   8.454  71.803  0.00  0.00    -0.083 A 
ATOM     66  H50 non d ame     -14.011   9.337  72.968  0.00  0.00     0.083 H 
ATOM     67  C33 non d ame     -11.452   8.673  70.830  0.00  0.00    -0.082 A 
ATOM     68  H51 non d ame     -12.524   7.464  72.248  0.00  0.00     0.083 H 
ATOM     69  C34 non d ame     -11.308   9.931  70.250  0.00  0.00    -0.075 A 
ATOM     70  H52 non d ame     -10.804   7.853  70.521  0.00  0.00     0.083 H 
ATOM     71  H53 non d ame     -10.547  10.096  69.486  0.00  0.00     0.084 H 
ENDBRANCH  58  61
ENDBRANCH  57  58
ENDBRANCH  55  57
ENDBRANCH  52  55
ENDBRANCH  49  52
ENDBRANCH  47  49
BRANCH  47  72
ATOM     72  C24 non d ame      -8.904  16.953  67.843  0.00  0.00    -0.039 C 
ATOM     73  H35 non d ame      -8.182  17.283  68.591  0.00  0.00     0.036 H 
ATOM     74  H36 non d ame      -8.579  16.762  66.821  0.00  0.00     0.036 H 
BRANCH  72  75
ATOM     75  C25 non d ame     -10.054  18.066  67.773  0.00  0.00    -0.001 C 
ATOM     76  C26 non d ame     -10.484  18.329  66.207  0.00  0.00    -0.035 C 
ATOM     77  C27 non d ame     -10.437  19.660  65.959  0.00  0.00     0.085 C 
ATOM     78  H38 non d ame      -9.728  17.919  65.538  0.00  0.00     0.036 H 
ATOM     79  H39 non d ame     -11.535  18.079  66.061  0.00  0.00     0.036 H 
ATOM     80  N5  non d ame      -9.702  20.298  67.113  0.00  0.00    -0.049 N 
ATOM     81  H40 non d ame      -9.839  19.767  65.054  0.00  0.00     0.075 H 
ATOM     82  H41 non d ame     -11.474  19.994  65.971  0.00  0.00     0.075 H 
ATOM     83  C28 non d ame      -9.654  19.184  68.280  0.00  0.00     0.193 C 
ATOM     84  H42 non d ame      -8.760  20.469  66.792  0.00  0.00     0.280 HD
ATOM     85  H43 non d ame     -10.276  21.068  67.427  0.00  0.00     0.280 HD
ATOM     86  H44 non d ame     -10.317  19.258  69.143  0.00  0.00     0.129 H 
ATOM     87  H37 non d ame     -10.859  17.874  68.482  0.00  0.00     0.046 H 
BRANCH  83  88
ATOM     88  O6  non d ame      -8.334  19.091  68.819  0.00  0.00    -0.369 OA
ATOM     89  H45 non d ame      -8.191  18.206  69.161  0.00  0.00     0.212 HD
ENDBRANCH  83  88
ENDBRANCH  72  75
ENDBRANCH  47  72
ENDBRANCH  45  47
ENDBRANCH   1  43
BRANCH   1  90
ATOM     90  C16 non d ame     -11.457  12.276  66.029  0.00  0.00    -0.035 C 
ATOM     91  H21 non d ame     -11.558  11.198  65.903  0.00  0.00     0.037 H 
ATOM     92  H22 non d ame     -11.720  12.740  66.980  0.00  0.00     0.037 H 
BRANCH  90  93
ATOM     93  C17 non d ame     -12.371  12.935  64.948  0.00  0.00    -0.059 C 
ATOM     94  H23 non d ame     -13.393  12.923  65.327  0.00  0.00     0.038 H 
BRANCH  93  95
ATOM     95  C18 non d ame     -11.981  14.423  64.674  0.00  0.00    -0.073 C 
ATOM     96  H24 non d ame     -12.756  15.079  65.068  0.00  0.00     0.028 H 
ATOM     97  H25 non d ame     -11.032  14.646  65.163  0.00  0.00     0.028 H 
ATOM     98  H26 non d ame     -11.882  14.580  63.600  0.00  0.00     0.028 H 
ENDBRANCH  93  95
BRANCH  93  99
ATOM     99  C19 non d ame     -12.358  12.121  63.651  0.00  0.00    -0.073 C 
ATOM    100  H27 non d ame     -13.276  12.310  63.094  0.00  0.00     0.028 H 
ATOM    101  H28 non d ame     -11.499  12.414  63.047  0.00  0.00     0.028 H 
ATOM    102  H29 non d ame     -12.290  11.060  63.889  0.00  0.00     0.028 H 
ENDBRANCH  93  99
ENDBRANCH  90  93
ENDBRANCH   1  90
TORSDOF 26
ENDMDL
MODEL 15
REMARK VINA RESULT:      -6.6      2.810      6.628
REMARK  26 active torsions:
REMARK  status: ('A' for Active; 'I' for Inactive)
REMARK    1  A    between atoms: C2_2  and  C3_3 
REMARK    2  A    between atoms: C4_6  and  C5_7 
REMARK       I    between atoms: C5_7  and  N2_9 
REMARK    3  A    between atoms: N2_9  and  C6_10 
REMARK    4  A    between atoms: C6_10  and  C7_11 
REMARK    5  A    between atoms: C6_10  and  C8_13 
REMARK       I    between atoms: C7_11  and  N3_14 
REMARK    6  A    between atoms: N3_14  and  C9_15 
REMARK    7  A    between atoms: C9_15  and  C10_16 
REMARK    8  A    between atoms: C9_15  and  C11_18 
REMARK       I    between atoms: C10_16  and  N4_21 
REMARK    9  A    between atoms: C11_18  and  C12_19 
REMARK   10  A    between atoms: C11_18  and  C13_20 
REMARK   11  A    between atoms: N4_21  and  C14_22 
REMARK   12  A    between atoms: C14_22  and  C15_23 
REMARK   13  A    between atoms: C14_22  and  C16_25 
REMARK       I    between atoms: C15_23  and  N6_40 
REMARK   14  A    between atoms: C16_25  and  C17_26 
REMARK   15  A    between atoms: C17_26  and  C18_27 
REMARK   16  A    between atoms: C17_26  and  C19_28 
REMARK   17  A    between atoms: C20_29  and  C21_30 
REMARK   18  A    between atoms: C20_29  and  C24_33 
REMARK   19  A    between atoms: C20_29  and  N6_40 
REMARK   20  A    between atoms: C21_30  and  C22_31 
REMARK   21  A    between atoms: C22_31  and  C23_32 
REMARK   22  A    between atoms: C23_32  and  O8_43 
REMARK   23  A    between atoms: C24_33  and  C25_34 
REMARK   24  A    between atoms: C28_38  and  O6_39 
REMARK   25  A    between atoms: C29_42  and  O8_43 
REMARK   26  A    between atoms: C29_42  and  C35_49 
ROOT
ATOM      1  C14 non d ame     -12.200  14.283  69.297  0.00  0.00     0.089 C 
ATOM      2  H20 non d ame     -12.850  13.918  68.501  0.00  0.00     0.087 H 
ENDROOT
BRANCH   1   3
ATOM      3  N4  non d ame     -11.387  13.163  69.747  0.00  0.00    -0.346 N 
ATOM      4  C10 non d ame     -11.477  11.829  69.051  0.00  0.00     0.241 C 
ATOM      5  O4  non d ame     -12.213  11.679  68.133  0.00  0.00    -0.271 OA
ATOM      6  H19 non d ame     -10.768  13.311  70.532  0.00  0.00     0.163 HD
BRANCH   4   7
ATOM      7  C9  non d ame     -10.624  10.682  69.527  0.00  0.00     0.092 C 
ATOM      8  H11 non d ame     -10.232  10.913  70.517  0.00  0.00     0.088 H 
BRANCH   7   9
ATOM      9  N3  non d ame     -11.450   9.479  69.657  0.00  0.00    -0.346 N 
ATOM     10  C7  non d ame     -11.495   8.768  70.912  0.00  0.00     0.240 C 
ATOM     11  O3  non d ame     -10.871   9.150  71.825  0.00  0.00    -0.271 OA
ATOM     12  H10 non d ame     -11.993   9.136  68.877  0.00  0.00     0.163 HD
BRANCH  10  13
ATOM     13  C6  non d ame     -12.374   7.486  71.044  0.00  0.00     0.086 C 
ATOM     14  H6  non d ame     -13.435   7.685  70.896  0.00  0.00     0.086 H 
BRANCH  13  15
ATOM     15  N2  non d ame     -11.982   6.537  70.015  0.00  0.00    -0.343 N 
ATOM     16  C5  non d ame     -10.569   6.181  69.864  0.00  0.00     0.273 C 
ATOM     17  O2  non d ame      -9.757   6.665  70.573  0.00  0.00    -0.266 OA
ATOM     18  H5  non d ame     -12.683   6.130  69.412  0.00  0.00     0.163 HD
BRANCH  16  19
ATOM     19  C4  non d ame     -10.140   5.178  68.782  0.00  0.00     0.154 A 
ATOM     20  C1  non d ame      -9.553   3.888  68.982  0.00  0.00    -0.017 A 
ATOM     21  C2  non d ame      -9.350   3.375  67.682  0.00  0.00     0.077 A 
ATOM     22  H1  non d ame      -9.311   3.400  69.926  0.00  0.00     0.091 H 
ATOM     23  O1  non d ame      -9.776   4.272  66.841  0.00  0.00    -0.218 OA
ATOM     24  N1  non d ame     -10.241   5.333  67.459  0.00  0.00    -0.123 NA
BRANCH  21  25
ATOM     25  C3  non d ame      -8.747   2.022  67.330  0.00  0.00    -0.029 C 
ATOM     26  H2  non d ame      -8.839   1.349  68.184  0.00  0.00     0.036 H 
ATOM     27  H3  non d ame      -9.275   1.599  66.476  0.00  0.00     0.036 H 
ATOM     28  H4  non d ame      -7.693   2.147  67.079  0.00  0.00     0.036 H 
ENDBRANCH  21  25
ENDBRANCH  16  19
ENDBRANCH  13  15
BRANCH  13  29
ATOM     29  C8  non d ame     -12.179   6.878  72.409  0.00  0.00    -0.049 C 
ATOM     30  H7  non d ame     -11.722   7.612  73.073  0.00  0.00     0.030 H 
ATOM     31  H8  non d ame     -13.145   6.574  72.813  0.00  0.00     0.030 H 
ATOM     32  H9  non d ame     -11.528   6.008  72.329  0.00  0.00     0.030 H 
ENDBRANCH  13  29
ENDBRANCH  10  13
ENDBRANCH   7   9
BRANCH   7  33
ATOM     33  C11 non d ame      -9.488  10.418  68.495  0.00  0.00    -0.033 C 
ATOM     34  H12 non d ame      -9.486  11.248  67.789  0.00  0.00     0.042 H 
BRANCH  33  35
ATOM     35  C12 non d ame      -8.089  10.388  69.186  0.00  0.00    -0.071 C 
ATOM     36  H13 non d ame      -7.470  11.192  68.788  0.00  0.00     0.028 H 
ATOM     37  H14 non d ame      -8.211  10.521  70.260  0.00  0.00     0.028 H 
ATOM     38  H15 non d ame      -7.609   9.429  68.990  0.00  0.00     0.028 H 
ENDBRANCH  33  35
BRANCH  33  39
ATOM     39  C13 non d ame      -9.754   9.103  67.695  0.00  0.00    -0.071 C 
ATOM     40  H16 non d ame     -10.030   9.350  66.670  0.00  0.00     0.028 H 
ATOM     41  H17 non d ame      -8.850   8.492  67.690  0.00  0.00     0.028 H 
ATOM     42  H18 non d ame     -10.565   8.549  68.167  0.00  0.00     0.028 H 
ENDBRANCH  33  39
ENDBRANCH   7  33
ENDBRANCH   4   7
ENDBRANCH   1   3
BRANCH   1  43
ATOM     43  C15 non d ame     -11.254  15.418  68.809  0.00  0.00     0.240 C 
ATOM     44  O5  non d ame     -11.607  16.551  68.876  0.00  0.00    -0.271 OA
ATOM     45  N6  non d ame      -9.905  15.092  68.266  0.00  0.00    -0.355 N 
ATOM     46  H46 non d ame      -9.592  14.133  68.209  0.00  0.00     0.162 HD
BRANCH  45  47
ATOM     47  C20 non d ame      -9.017  16.182  67.807  0.00  0.00     0.013 C 
ATOM     48  H30 non d ame      -9.464  17.129  68.109  0.00  0.00     0.072 H 
BRANCH  47  49
ATOM     49  C21 non d ame      -8.894  16.126  66.301  0.00  0.00    -0.038 C 
ATOM     50  H31 non d ame      -7.904  16.521  66.072  0.00  0.00     0.036 H 
ATOM     51  H32 non d ame      -9.151  15.103  66.023  0.00  0.00     0.036 H 
BRANCH  49  52
ATOM     52  C22 non d ame      -9.908  17.042  65.582  0.00  0.00     0.018 C 
ATOM     53  H33 non d ame     -10.324  17.687  66.357  0.00  0.00     0.048 H 
ATOM     54  H34 non d ame      -9.367  17.478  64.742  0.00  0.00     0.048 H 
BRANCH  52  55
ATOM     55  C23 non d ame     -11.114  16.279  64.967  0.00  0.00     0.259 C 
ATOM     56  O7  non d ame     -11.610  16.653  63.954  0.00  0.00    -0.265 OA
BRANCH  55  57
ATOM     57  O8  non d ame     -11.628  15.134  65.635  0.00  0.00    -0.317 OA
BRANCH  57  58
ATOM     58  C29 non d ame     -12.246  14.181  64.765  0.00  0.00     0.052 C 
ATOM     59  H47 non d ame     -13.133  13.831  65.293  0.00  0.00     0.082 H 
ATOM     60  H48 non d ame     -12.347  14.682  63.802  0.00  0.00     0.082 H 
BRANCH  58  61
ATOM     61  C35 non d ame     -11.272  12.985  64.595  0.00  0.00    -0.034 A 
ATOM     62  C30 non d ame     -11.424  12.109  63.525  0.00  0.00    -0.075 A 
ATOM     63  C31 non d ame     -10.549  11.034  63.373  0.00  0.00    -0.082 A 
ATOM     64  H49 non d ame     -12.227  12.265  62.805  0.00  0.00     0.084 H 
ATOM     65  C32 non d ame      -9.520  10.835  64.298  0.00  0.00    -0.083 A 
ATOM     66  H50 non d ame     -10.669  10.351  62.531  0.00  0.00     0.083 H 
ATOM     67  C33 non d ame      -9.375  11.710  65.366  0.00  0.00    -0.082 A 
ATOM     68  H51 non d ame      -8.832   9.998  64.186  0.00  0.00     0.083 H 
ATOM     69  C34 non d ame     -10.245  12.786  65.521  0.00  0.00    -0.075 A 
ATOM     70  H52 non d ame      -8.573  11.550  66.087  0.00  0.00     0.083 H 
ATOM     71  H53 non d ame     -10.124  13.470  66.362  0.00  0.00     0.084 H 
ENDBRANCH  58  61
ENDBRANCH  57  58
ENDBRANCH  55  57
ENDBRANCH  52  55
ENDBRANCH  49  52
ENDBRANCH  47  49
BRANCH  47  72
ATOM     72  C24 non d ame      -7.635  16.023  68.438  0.00  0.00    -0.039 C 
ATOM     73  H35 non d ame      -7.796  15.436  69.343  0.00  0.00     0.036 H 
ATOM     74  H36 non d ame      -6.996  15.636  67.644  0.00  0.00     0.036 H 
BRANCH  72  75
ATOM     75  C25 non d ame      -7.025  17.433  68.891  0.00  0.00    -0.001 C 
ATOM     76  C26 non d ame      -8.114  18.632  68.608  0.00  0.00    -0.035 C 
ATOM     77  C27 non d ame      -7.505  19.618  67.908  0.00  0.00     0.085 C 
ATOM     78  H38 non d ame      -8.890  18.279  67.930  0.00  0.00     0.036 H 
ATOM     79  H39 non d ame      -8.388  19.117  69.545  0.00  0.00     0.036 H 
ATOM     80  N5  non d ame      -6.196  19.059  67.405  0.00  0.00    -0.049 N 
ATOM     81  H40 non d ame      -8.158  19.816  67.056  0.00  0.00     0.075 H 
ATOM     82  H41 non d ame      -7.300  20.406  68.632  0.00  0.00     0.075 H 
ATOM     83  C28 non d ame      -5.941  17.703  68.243  0.00  0.00     0.193 C 
ATOM     84  H42 non d ame      -6.342  18.816  66.435  0.00  0.00     0.280 HD
ATOM     85  H43 non d ame      -5.484  19.730  67.655  0.00  0.00     0.280 HD
ATOM     86  H44 non d ame      -5.214  17.682  69.055  0.00  0.00     0.129 H 
ATOM     87  H37 non d ame      -6.581  17.390  69.886  0.00  0.00     0.046 H 
BRANCH  83  88
ATOM     88  O6  non d ame      -5.561  16.644  67.362  0.00  0.00    -0.369 OA
ATOM     89  H45 non d ame      -4.637  16.428  67.502  0.00  0.00     0.212 HD
ENDBRANCH  83  88
ENDBRANCH  72  75
ENDBRANCH  47  72
ENDBRANCH  45  47
ENDBRANCH   1  43
BRANCH   1  90
ATOM     90  C16 non d ame     -13.042  14.784  70.460  0.00  0.00    -0.035 C 
ATOM     91  H21 non d ame     -12.960  15.871  70.428  0.00  0.00     0.037 H 
ATOM     92  H22 non d ame     -14.014  14.307  70.339  0.00  0.00     0.037 H 
BRANCH  90  93
ATOM     93  C17 non d ame     -12.504  14.342  71.858  0.00  0.00    -0.059 C 
ATOM     94  H23 non d ame     -11.612  13.738  71.694  0.00  0.00     0.038 H 
BRANCH  93  95
ATOM     95  C18 non d ame     -12.097  15.562  72.745  0.00  0.00    -0.073 C 
ATOM     96  H24 non d ame     -11.957  16.440  72.114  0.00  0.00     0.028 H 
ATOM     97  H25 non d ame     -12.883  15.760  73.475  0.00  0.00     0.028 H 
ATOM     98  H26 non d ame     -11.166  15.338  73.267  0.00  0.00     0.028 H 
ENDBRANCH  93  95
BRANCH  93  99
ATOM     99  C19 non d ame     -13.524  13.460  72.582  0.00  0.00    -0.073 C 
ATOM    100  H27 non d ame     -14.418  14.043  72.803  0.00  0.00     0.028 H 
ATOM    101  H28 non d ame     -13.789  12.615  71.946  0.00  0.00     0.028 H 
ATOM    102  H29 non d ame     -13.091  13.091  73.512  0.00  0.00     0.028 H 
ENDBRANCH  93  99
ENDBRANCH  90  93
ENDBRANCH   1  90
TORSDOF 26
ENDMDL
MODEL 16
REMARK VINA RESULT:      -6.5      2.869      4.345
REMARK  26 active torsions:
REMARK  status: ('A' for Active; 'I' for Inactive)
REMARK    1  A    between atoms: C2_2  and  C3_3 
REMARK    2  A    between atoms: C4_6  and  C5_7 
REMARK       I    between atoms: C5_7  and  N2_9 
REMARK    3  A    between atoms: N2_9  and  C6_10 
REMARK    4  A    between atoms: C6_10  and  C7_11 
REMARK    5  A    between atoms: C6_10  and  C8_13 
REMARK       I    between atoms: C7_11  and  N3_14 
REMARK    6  A    between atoms: N3_14  and  C9_15 
REMARK    7  A    between atoms: C9_15  and  C10_16 
REMARK    8  A    between atoms: C9_15  and  C11_18 
REMARK       I    between atoms: C10_16  and  N4_21 
REMARK    9  A    between atoms: C11_18  and  C12_19 
REMARK   10  A    between atoms: C11_18  and  C13_20 
REMARK   11  A    between atoms: N4_21  and  C14_22 
REMARK   12  A    between atoms: C14_22  and  C15_23 
REMARK   13  A    between atoms: C14_22  and  C16_25 
REMARK       I    between atoms: C15_23  and  N6_40 
REMARK   14  A    between atoms: C16_25  and  C17_26 
REMARK   15  A    between atoms: C17_26  and  C18_27 
REMARK   16  A    between atoms: C17_26  and  C19_28 
REMARK   17  A    between atoms: C20_29  and  C21_30 
REMARK   18  A    between atoms: C20_29  and  C24_33 
REMARK   19  A    between atoms: C20_29  and  N6_40 
REMARK   20  A    between atoms: C21_30  and  C22_31 
REMARK   21  A    between atoms: C22_31  and  C23_32 
REMARK   22  A    between atoms: C23_32  and  O8_43 
REMARK   23  A    between atoms: C24_33  and  C25_34 
REMARK   24  A    between atoms: C28_38  and  O6_39 
REMARK   25  A    between atoms: C29_42  and  O8_43 
REMARK   26  A    between atoms: C29_42  and  C35_49 
ROOT
ATOM      1  C14 non d ame     -10.708   8.695  69.305  0.00  0.00     0.089 C 
ATOM      2  H20 non d ame     -11.779   8.522  69.414  0.00  0.00     0.087 H 
ENDROOT
BRANCH   1   3
ATOM      3  N4  non d ame     -10.081   7.408  69.044  0.00  0.00    -0.346 N 
ATOM      4  C10 non d ame     -10.786   6.127  69.414  0.00  0.00     0.241 C 
ATOM      5  O4  non d ame     -11.857   6.158  69.925  0.00  0.00    -0.271 OA
ATOM      6  H19 non d ame      -9.168   7.403  68.611  0.00  0.00     0.163 HD
BRANCH   4   7
ATOM      7  C9  non d ame     -10.125   4.804  69.131  0.00  0.00     0.092 C 
ATOM      8  H11 non d ame     -10.801   4.183  68.544  0.00  0.00     0.088 H 
BRANCH   7   9
ATOM      9  N3  non d ame      -8.923   5.022  68.320  0.00  0.00    -0.346 N 
ATOM     10  C7  non d ame      -8.840   4.466  66.992  0.00  0.00     0.240 C 
ATOM     11  O3  non d ame      -9.730   3.840  66.560  0.00  0.00    -0.271 OA
ATOM     12  H10 non d ame      -8.146   5.558  68.679  0.00  0.00     0.163 HD
BRANCH  10  13
ATOM     13  C6  non d ame      -7.557   4.698  66.134  0.00  0.00     0.086 C 
ATOM     14  H6  non d ame      -7.528   4.073  65.242  0.00  0.00     0.086 H 
BRANCH  13  15
ATOM     15  N2  non d ame      -7.539   6.078  65.677  0.00  0.00    -0.343 N 
ATOM     16  C5  non d ame      -7.829   6.376  64.272  0.00  0.00     0.273 C 
ATOM     17  O2  non d ame      -8.072   5.499  63.518  0.00  0.00    -0.266 OA
ATOM     18  H5  non d ame      -7.328   6.821  66.328  0.00  0.00     0.163 HD
BRANCH  16  19
ATOM     19  C4  non d ame      -7.815   7.830  63.775  0.00  0.00     0.154 A 
ATOM     20  C1  non d ame      -7.867   8.280  62.418  0.00  0.00    -0.017 A 
ATOM     21  C2  non d ame      -7.827   9.690  62.501  0.00  0.00     0.077 A 
ATOM     22  H1  non d ame      -7.925   7.677  61.512  0.00  0.00     0.091 H 
ATOM     23  O1  non d ame      -7.762  10.002  63.762  0.00  0.00    -0.218 OA
ATOM     24  N1  non d ame      -7.753   8.933  64.525  0.00  0.00    -0.123 NA
BRANCH  21  25
ATOM     25  C3  non d ame      -7.857  10.663  61.330  0.00  0.00    -0.029 C 
ATOM     26  H2  non d ame      -6.837  10.905  61.032  0.00  0.00     0.036 H 
ATOM     27  H3  non d ame      -8.382  10.206  60.491  0.00  0.00     0.036 H 
ATOM     28  H4  non d ame      -8.375  11.575  61.628  0.00  0.00     0.036 H 
ENDBRANCH  21  25
ENDBRANCH  16  19
ENDBRANCH  13  15
BRANCH  13  29
ATOM     29  C8  non d ame      -6.334   4.415  66.968  0.00  0.00    -0.049 C 
ATOM     30  H7  non d ame      -6.515   3.541  67.595  0.00  0.00     0.030 H 
ATOM     31  H8  non d ame      -5.484   4.222  66.313  0.00  0.00     0.030 H 
ATOM     32  H9  non d ame      -6.118   5.275  67.601  0.00  0.00     0.030 H 
ENDBRANCH  13  29
ENDBRANCH  10  13
ENDBRANCH   7   9
BRANCH   7  33
ATOM     33  C11 non d ame      -9.725   4.127  70.474  0.00  0.00    -0.033 C 
ATOM     34  H12 non d ame     -10.620   4.069  71.093  0.00  0.00     0.042 H 
BRANCH  33  35
ATOM     35  C12 non d ame      -9.217   2.669  70.247  0.00  0.00    -0.071 C 
ATOM     36  H13 non d ame     -10.064   2.020  70.024  0.00  0.00     0.028 H 
ATOM     37  H14 non d ame      -8.519   2.654  69.410  0.00  0.00     0.028 H 
ATOM     38  H15 non d ame      -8.714   2.314  71.146  0.00  0.00     0.028 H 
ENDBRANCH  33  35
BRANCH  33  39
ATOM     39  C13 non d ame      -8.664   4.983  71.239  0.00  0.00    -0.071 C 
ATOM     40  H16 non d ame      -8.895   4.980  72.304  0.00  0.00     0.028 H 
ATOM     41  H17 non d ame      -7.672   4.558  71.081  0.00  0.00     0.028 H 
ATOM     42  H18 non d ame      -8.685   6.006  70.864  0.00  0.00     0.028 H 
ENDBRANCH  33  39
ENDBRANCH   7  33
ENDBRANCH   4   7
ENDBRANCH   1   3
BRANCH   1  43
ATOM     43  C15 non d ame     -10.384   9.653  68.123  0.00  0.00     0.240 C 
ATOM     44  O5  non d ame     -10.167   9.206  67.043  0.00  0.00    -0.271 OA
ATOM     45  N6  non d ame     -10.355  11.128  68.335  0.00  0.00    -0.355 N 
ATOM     46  H46 non d ame     -10.542  11.519  69.247  0.00  0.00     0.162 HD
BRANCH  45  47
ATOM     47  C20 non d ame     -10.047  12.025  67.201  0.00  0.00     0.013 C 
ATOM     48  H30 non d ame      -9.686  11.411  66.376  0.00  0.00     0.072 H 
BRANCH  47  49
ATOM     49  C21 non d ame      -8.978  13.010  67.618  0.00  0.00    -0.038 C 
ATOM     50  H31 non d ame      -9.259  13.343  68.617  0.00  0.00     0.036 H 
ATOM     51  H32 non d ame      -8.029  12.498  67.460  0.00  0.00     0.036 H 
BRANCH  49  52
ATOM     52  C22 non d ame      -8.947  14.273  66.730  0.00  0.00     0.018 C 
ATOM     53  H33 non d ame      -8.515  13.956  65.780  0.00  0.00     0.048 H 
ATOM     54  H34 non d ame      -9.958  14.680  66.759  0.00  0.00     0.048 H 
BRANCH  52  55
ATOM     55  C23 non d ame      -8.018  15.396  67.270  0.00  0.00     0.259 C 
ATOM     56  O7  non d ame      -7.172  15.862  66.579  0.00  0.00    -0.265 OA
BRANCH  55  57
ATOM     57  O8  non d ame      -8.183  15.853  68.607  0.00  0.00    -0.317 OA
BRANCH  57  58
ATOM     58  C29 non d ame      -9.450  16.465  68.861  0.00  0.00     0.052 C 
ATOM     59  H47 non d ame     -10.185  15.848  68.344  0.00  0.00     0.082 H 
ATOM     60  H48 non d ame      -9.507  16.589  69.942  0.00  0.00     0.082 H 
BRANCH  58  61
ATOM     61  C35 non d ame      -9.443  17.872  68.206  0.00  0.00    -0.034 A 
ATOM     62  C30 non d ame     -10.479  18.252  67.359  0.00  0.00    -0.075 A 
ATOM     63  C31 non d ame     -10.472  19.515  66.770  0.00  0.00    -0.082 A 
ATOM     64  H49 non d ame     -11.296  17.559  67.156  0.00  0.00     0.084 H 
ATOM     65  C32 non d ame      -9.422  20.400  67.030  0.00  0.00    -0.083 A 
ATOM     66  H50 non d ame     -11.286  19.811  66.108  0.00  0.00     0.083 H 
ATOM     67  C33 non d ame      -8.389  20.016  67.873  0.00  0.00    -0.082 A 
ATOM     68  H51 non d ame      -9.409  21.390  66.574  0.00  0.00     0.083 H 
ATOM     69  C34 non d ame      -8.392  18.755  68.465  0.00  0.00    -0.075 A 
ATOM     70  H52 non d ame      -7.570  20.708  68.072  0.00  0.00     0.083 H 
ATOM     71  H53 non d ame      -7.578  18.460  69.128  0.00  0.00     0.084 H 
ENDBRANCH  58  61
ENDBRANCH  57  58
ENDBRANCH  55  57
ENDBRANCH  52  55
ENDBRANCH  49  52
ENDBRANCH  47  49
BRANCH  47  72
ATOM     72  C24 non d ame     -11.306  12.784  66.786  0.00  0.00    -0.039 C 
ATOM     73  H35 non d ame     -12.017  12.633  67.599  0.00  0.00     0.036 H 
ATOM     74  H36 non d ame     -10.969  13.790  66.537  0.00  0.00     0.036 H 
BRANCH  72  75
ATOM     75  C25 non d ame     -11.963  12.164  65.463  0.00  0.00    -0.001 C 
ATOM     76  C26 non d ame     -10.811  11.402  64.570  0.00  0.00    -0.035 C 
ATOM     77  C27 non d ame     -10.874  11.857  63.296  0.00  0.00     0.085 C 
ATOM     78  H38 non d ame      -9.819  11.707  64.901  0.00  0.00     0.036 H 
ATOM     79  H39 non d ame     -11.052  10.343  64.475  0.00  0.00     0.036 H 
ATOM     80  N5  non d ame     -11.741  13.093  63.311  0.00  0.00    -0.049 N 
ATOM     81  H40 non d ame      -9.854  12.142  63.037  0.00  0.00     0.075 H 
ATOM     82  H41 non d ame     -11.381  11.075  62.732  0.00  0.00     0.075 H 
ATOM     83  C28 non d ame     -12.503  13.083  64.735  0.00  0.00     0.193 C 
ATOM     84  H42 non d ame     -11.113  13.883  63.288  0.00  0.00     0.280 HD
ATOM     85  H43 non d ame     -12.427  12.971  62.579  0.00  0.00     0.280 HD
ATOM     86  H44 non d ame     -13.553  12.796  64.799  0.00  0.00     0.129 H 
ATOM     87  H37 non d ame     -12.874  11.606  65.677  0.00  0.00     0.046 H 
BRANCH  83  88
ATOM     88  O6  non d ame     -12.422  14.372  65.345  0.00  0.00    -0.369 OA
ATOM     89  H45 non d ame     -12.120  15.014  64.699  0.00  0.00     0.212 HD
ENDBRANCH  83  88
ENDBRANCH  72  75
ENDBRANCH  47  72
ENDBRANCH  45  47
ENDBRANCH   1  43
BRANCH   1  90
ATOM     90  C16 non d ame     -10.145   9.268  70.596  0.00  0.00    -0.035 C 
ATOM     91  H21 non d ame      -9.290   8.638  70.843  0.00  0.00     0.037 H 
ATOM     92  H22 non d ame     -10.001  10.331  70.401  0.00  0.00     0.037 H 
BRANCH  90  93
ATOM     93  C17 non d ame     -11.128   9.170  71.806  0.00  0.00    -0.059 C 
ATOM     94  H23 non d ame     -10.949  10.033  72.448  0.00  0.00     0.038 H 
BRANCH  93  95
ATOM     95  C18 non d ame     -12.623   9.214  71.355  0.00  0.00    -0.073 C 
ATOM     96  H24 non d ame     -12.741   9.949  70.560  0.00  0.00     0.028 H 
ATOM     97  H25 non d ame     -12.921   8.231  70.989  0.00  0.00     0.028 H 
ATOM     98  H26 non d ame     -13.250   9.491  72.203  0.00  0.00     0.028 H 
ENDBRANCH  93  95
BRANCH  93  99
ATOM     99  C19 non d ame     -10.847   7.917  72.639  0.00  0.00    -0.073 C 
ATOM    100  H27 non d ame     -10.870   7.038  71.994  0.00  0.00     0.028 H 
ATOM    101  H28 non d ame      -9.863   8.002  73.102  0.00  0.00     0.028 H 
ATOM    102  H29 non d ame     -11.605   7.819  73.415  0.00  0.00     0.028 H 
ENDBRANCH  93  99
ENDBRANCH  90  93
ENDBRANCH   1  90
TORSDOF 26
ENDMDL
MODEL 17
REMARK VINA RESULT:      -6.5      3.544      7.867
REMARK  26 active torsions:
REMARK  status: ('A' for Active; 'I' for Inactive)
REMARK    1  A    between atoms: C2_2  and  C3_3 
REMARK    2  A    between atoms: C4_6  and  C5_7 
REMARK       I    between atoms: C5_7  and  N2_9 
REMARK    3  A    between atoms: N2_9  and  C6_10 
REMARK    4  A    between atoms: C6_10  and  C7_11 
REMARK    5  A    between atoms: C6_10  and  C8_13 
REMARK       I    between atoms: C7_11  and  N3_14 
REMARK    6  A    between atoms: N3_14  and  C9_15 
REMARK    7  A    between atoms: C9_15  and  C10_16 
REMARK    8  A    between atoms: C9_15  and  C11_18 
REMARK       I    between atoms: C10_16  and  N4_21 
REMARK    9  A    between atoms: C11_18  and  C12_19 
REMARK   10  A    between atoms: C11_18  and  C13_20 
REMARK   11  A    between atoms: N4_21  and  C14_22 
REMARK   12  A    between atoms: C14_22  and  C15_23 
REMARK   13  A    between atoms: C14_22  and  C16_25 
REMARK       I    between atoms: C15_23  and  N6_40 
REMARK   14  A    between atoms: C16_25  and  C17_26 
REMARK   15  A    between atoms: C17_26  and  C18_27 
REMARK   16  A    between atoms: C17_26  and  C19_28 
REMARK   17  A    between atoms: C20_29  and  C21_30 
REMARK   18  A    between atoms: C20_29  and  C24_33 
REMARK   19  A    between atoms: C20_29  and  N6_40 
REMARK   20  A    between atoms: C21_30  and  C22_31 
REMARK   21  A    between atoms: C22_31  and  C23_32 
REMARK   22  A    between atoms: C23_32  and  O8_43 
REMARK   23  A    between atoms: C24_33  and  C25_34 
REMARK   24  A    between atoms: C28_38  and  O6_39 
REMARK   25  A    between atoms: C29_42  and  O8_43 
REMARK   26  A    between atoms: C29_42  and  C35_49 
ROOT
ATOM      1  C14 non d ame      -6.810  10.107  63.373  0.00  0.00     0.089 C 
ATOM      2  H20 non d ame      -6.284  10.928  62.885  0.00  0.00     0.087 H 
ENDROOT
BRANCH   1   3
ATOM      3  N4  non d ame      -6.392  10.086  64.767  0.00  0.00    -0.346 N 
ATOM      4  C10 non d ame      -5.123  10.780  65.192  0.00  0.00     0.241 C 
ATOM      5  O4  non d ame      -4.452  11.346  64.394  0.00  0.00    -0.271 OA
ATOM      6  H19 non d ame      -6.976   9.597  65.431  0.00  0.00     0.163 HD
BRANCH   4   7
ATOM      7  C9  non d ame      -4.708  10.753  66.640  0.00  0.00     0.092 C 
ATOM      8  H11 non d ame      -3.786  11.322  66.760  0.00  0.00     0.088 H 
BRANCH   7   9
ATOM      9  N3  non d ame      -5.734  11.412  67.455  0.00  0.00    -0.346 N 
ATOM     10  C7  non d ame      -5.646  12.828  67.715  0.00  0.00     0.240 C 
ATOM     11  O3  non d ame      -4.757  13.451  67.278  0.00  0.00    -0.271 OA
ATOM     12  H10 non d ame      -6.505  10.886  67.840  0.00  0.00     0.163 HD
BRANCH  10  13
ATOM     13  C6  non d ame      -6.739  13.523  68.585  0.00  0.00     0.086 C 
ATOM     14  H6  non d ame      -6.470  13.571  69.640  0.00  0.00     0.086 H 
BRANCH  13  15
ATOM     15  N2  non d ame      -6.899  14.895  68.134  0.00  0.00    -0.343 N 
ATOM     16  C5  non d ame      -6.159  15.966  68.805  0.00  0.00     0.273 C 
ATOM     17  O2  non d ame      -5.441  15.714  69.710  0.00  0.00    -0.266 OA
ATOM     18  H5  non d ame      -7.517  15.102  67.362  0.00  0.00     0.163 HD
BRANCH  16  19
ATOM     19  C4  non d ame      -6.317  17.421  68.337  0.00  0.00     0.154 A 
ATOM     20  C1  non d ame      -6.277  17.906  66.992  0.00  0.00    -0.017 A 
ATOM     21  C2  non d ame      -6.472  19.301  67.102  0.00  0.00     0.077 A 
ATOM     22  H1  non d ame      -6.128  17.334  66.076  0.00  0.00     0.091 H 
ATOM     23  O1  non d ame      -6.609  19.574  68.366  0.00  0.00    -0.218 OA
ATOM     24  N1  non d ame      -6.522  18.494  69.107  0.00  0.00    -0.123 NA
BRANCH  21  25
ATOM     25  C3  non d ame      -6.515  20.299  65.952  0.00  0.00    -0.029 C 
ATOM     26  H2  non d ame      -6.489  19.762  65.003  0.00  0.00     0.036 H 
ATOM     27  H3  non d ame      -7.433  20.883  66.013  0.00  0.00     0.036 H 
ATOM     28  H4  non d ame      -5.655  20.966  66.016  0.00  0.00     0.036 H 
ENDBRANCH  21  25
ENDBRANCH  16  19
ENDBRANCH  13  15
BRANCH  13  29
ATOM     29  C8  non d ame      -8.043  12.779  68.448  0.00  0.00    -0.049 C 
ATOM     30  H7  non d ame      -7.994  12.115  67.586  0.00  0.00     0.030 H 
ATOM     31  H8  non d ame      -8.223  12.192  69.349  0.00  0.00     0.030 H 
ATOM     32  H9  non d ame      -8.855  13.493  68.310  0.00  0.00     0.030 H 
ENDBRANCH  13  29
ENDBRANCH  10  13
ENDBRANCH   7   9
BRANCH   7  33
ATOM     33  C11 non d ame      -4.549   9.276  67.107  0.00  0.00    -0.033 C 
ATOM     34  H12 non d ame      -4.689   8.639  66.233  0.00  0.00     0.042 H 
BRANCH  33  35
ATOM     35  C12 non d ame      -3.115   9.006  67.660  0.00  0.00    -0.071 C 
ATOM     36  H13 non d ame      -2.450   8.750  66.835  0.00  0.00     0.028 H 
ATOM     37  H14 non d ame      -2.745   9.900  68.161  0.00  0.00     0.028 H 
ATOM     38  H15 non d ame      -3.150   8.179  68.369  0.00  0.00     0.028 H 
ENDBRANCH  33  35
BRANCH  33  39
ATOM     39  C13 non d ame      -5.642   8.901  68.158  0.00  0.00    -0.071 C 
ATOM     40  H16 non d ame      -6.486   9.584  68.065  0.00  0.00     0.028 H 
ATOM     41  H17 non d ame      -5.981   7.879  67.982  0.00  0.00     0.028 H 
ATOM     42  H18 non d ame      -5.222   8.977  69.161  0.00  0.00     0.028 H 
ENDBRANCH  33  39
ENDBRANCH   7  33
ENDBRANCH   4   7
ENDBRANCH   1   3
BRANCH   1  43
ATOM     43  C15 non d ame      -8.355  10.286  63.322  0.00  0.00     0.240 C 
ATOM     44  O5  non d ame      -8.974   9.816  62.423  0.00  0.00    -0.271 OA
ATOM     45  N6  non d ame      -9.063  11.036  64.398  0.00  0.00    -0.355 N 
ATOM     46  H46 non d ame      -8.547  11.435  65.169  0.00  0.00     0.162 HD
BRANCH  45  47
ATOM     47  C20 non d ame     -10.531  11.196  64.336  0.00  0.00     0.013 C 
ATOM     48  H30 non d ame     -10.924  10.433  63.663  0.00  0.00     0.072 H 
BRANCH  47  49
ATOM     49  C21 non d ame     -10.862  12.572  63.805  0.00  0.00    -0.038 C 
ATOM     50  H31 non d ame     -10.155  12.754  62.995  0.00  0.00     0.036 H 
ATOM     51  H32 non d ame     -11.933  12.560  63.602  0.00  0.00     0.036 H 
BRANCH  49  52
ATOM     52  C22 non d ame     -10.629  13.688  64.847  0.00  0.00     0.018 C 
ATOM     53  H33 non d ame     -11.046  13.312  65.781  0.00  0.00     0.048 H 
ATOM     54  H34 non d ame      -9.568  13.934  64.784  0.00  0.00     0.048 H 
BRANCH  52  55
ATOM     55  C23 non d ame     -11.392  15.005  64.535  0.00  0.00     0.259 C 
ATOM     56  O7  non d ame     -12.425  14.980  63.948  0.00  0.00    -0.265 OA
BRANCH  55  57
ATOM     57  O8  non d ame     -10.837  16.248  64.950  0.00  0.00    -0.317 OA
BRANCH  57  58
ATOM     58  C29 non d ame     -10.032  16.161  66.129  0.00  0.00     0.052 C 
ATOM     59  H47 non d ame     -10.534  15.441  66.776  0.00  0.00     0.082 H 
ATOM     60  H48 non d ame      -9.018  15.967  65.781  0.00  0.00     0.082 H 
BRANCH  58  61
ATOM     61  C35 non d ame     -10.055  17.547  66.827  0.00  0.00    -0.034 A 
ATOM     62  C30 non d ame     -10.183  18.706  66.070  0.00  0.00    -0.075 A 
ATOM     63  C31 non d ame     -10.203  19.951  66.696  0.00  0.00    -0.082 A 
ATOM     64  H49 non d ame     -10.268  18.640  64.985  0.00  0.00     0.084 H 
ATOM     65  C32 non d ame     -10.091  20.035  68.087  0.00  0.00    -0.083 A 
ATOM     66  H50 non d ame     -10.306  20.858  66.100  0.00  0.00     0.083 H 
ATOM     67  C33 non d ame      -9.960  18.875  68.839  0.00  0.00    -0.082 A 
ATOM     68  H51 non d ame     -10.107  21.004  68.585  0.00  0.00     0.083 H 
ATOM     69  C34 non d ame      -9.942  17.628  68.217  0.00  0.00    -0.075 A 
ATOM     70  H52 non d ame      -9.871  18.943  69.923  0.00  0.00     0.083 H 
ATOM     71  H53 non d ame      -9.840  16.722  68.814  0.00  0.00     0.084 H 
ENDBRANCH  58  61
ENDBRANCH  57  58
ENDBRANCH  55  57
ENDBRANCH  52  55
ENDBRANCH  49  52
ENDBRANCH  47  49
BRANCH  47  72
ATOM     72  C24 non d ame     -11.129  11.030  65.732  0.00  0.00    -0.039 C 
ATOM     73  H35 non d ame     -11.219  12.041  66.130  0.00  0.00     0.036 H 
ATOM     74  H36 non d ame     -12.020  10.418  65.595  0.00  0.00     0.036 H 
BRANCH  72  75
ATOM     75  C25 non d ame     -10.146  10.223  66.705  0.00  0.00    -0.001 C 
ATOM     76  C26 non d ame      -9.917   8.699  66.132  0.00  0.00    -0.035 C 
ATOM     77  C27 non d ame     -10.160   7.816  67.130  0.00  0.00     0.085 C 
ATOM     78  H38 non d ame     -10.678   8.461  65.390  0.00  0.00     0.036 H 
ATOM     79  H39 non d ame      -8.863   8.540  65.903  0.00  0.00     0.036 H 
ATOM     80  N5  non d ame     -10.849   8.579  68.236  0.00  0.00    -0.049 N 
ATOM     81  H40 non d ame     -10.857   7.088  66.713  0.00  0.00     0.075 H 
ATOM     82  H41 non d ame      -9.179   7.494  67.479  0.00  0.00     0.075 H 
ATOM     83  C28 non d ame     -10.632  10.143  67.899  0.00  0.00     0.193 C 
ATOM     84  H42 non d ame     -11.834   8.367  68.159  0.00  0.00     0.280 HD
ATOM     85  H43 non d ame     -10.351   8.362  69.087  0.00  0.00     0.280 HD
ATOM     86  H44 non d ame      -9.900  10.732  68.451  0.00  0.00     0.129 H 
ATOM     87  H37 non d ame      -9.254  10.797  66.960  0.00  0.00     0.046 H 
BRANCH  83  88
ATOM     88  O6  non d ame     -11.867  10.850  68.027  0.00  0.00    -0.369 OA
ATOM     89  H45 non d ame     -12.234  11.013  67.155  0.00  0.00     0.212 HD
ENDBRANCH  83  88
ENDBRANCH  72  75
ENDBRANCH  47  72
ENDBRANCH  45  47
ENDBRANCH   1  43
BRANCH   1  90
ATOM     90  C16 non d ame      -6.426   8.789  62.720  0.00  0.00    -0.035 C 
ATOM     91  H21 non d ame      -7.223   8.577  62.008  0.00  0.00     0.037 H 
ATOM     92  H22 non d ame      -5.404   8.929  62.369  0.00  0.00     0.037 H 
BRANCH  90  93
ATOM     93  C17 non d ame      -6.391   7.585  63.714  0.00  0.00    -0.059 C 
ATOM     94  H23 non d ame      -6.293   7.989  64.721  0.00  0.00     0.038 H 
BRANCH  93  95
ATOM     95  C18 non d ame      -7.705   6.741  63.665  0.00  0.00    -0.073 C 
ATOM     96  H24 non d ame      -7.643   6.020  62.849  0.00  0.00     0.028 H 
ATOM     97  H25 non d ame      -7.832   6.212  64.609  0.00  0.00     0.028 H 
ATOM     98  H26 non d ame      -8.555   7.403  63.501  0.00  0.00     0.028 H 
ENDBRANCH  93  95
BRANCH  93  99
ATOM     99  C19 non d ame      -5.166   6.701  63.459  0.00  0.00    -0.073 C 
ATOM    100  H27 non d ame      -5.396   5.980  62.674  0.00  0.00     0.028 H 
ATOM    101  H28 non d ame      -4.328   7.325  63.147  0.00  0.00     0.028 H 
ATOM    102  H29 non d ame      -4.904   6.171  64.374  0.00  0.00     0.028 H 
ENDBRANCH  93  99
ENDBRANCH  90  93
ENDBRANCH   1  90
TORSDOF 26
ENDMDL
MODEL 18
REMARK VINA RESULT:      -6.5      2.493      5.856
REMARK  26 active torsions:
REMARK  status: ('A' for Active; 'I' for Inactive)
REMARK    1  A    between atoms: C2_2  and  C3_3 
REMARK    2  A    between atoms: C4_6  and  C5_7 
REMARK       I    between atoms: C5_7  and  N2_9 
REMARK    3  A    between atoms: N2_9  and  C6_10 
REMARK    4  A    between atoms: C6_10  and  C7_11 
REMARK    5  A    between atoms: C6_10  and  C8_13 
REMARK       I    between atoms: C7_11  and  N3_14 
REMARK    6  A    between atoms: N3_14  and  C9_15 
REMARK    7  A    between atoms: C9_15  and  C10_16 
REMARK    8  A    between atoms: C9_15  and  C11_18 
REMARK       I    between atoms: C10_16  and  N4_21 
REMARK    9  A    between atoms: C11_18  and  C12_19 
REMARK   10  A    between atoms: C11_18  and  C13_20 
REMARK   11  A    between atoms: N4_21  and  C14_22 
REMARK   12  A    between atoms: C14_22  and  C15_23 
REMARK   13  A    between atoms: C14_22  and  C16_25 
REMARK       I    between atoms: C15_23  and  N6_40 
REMARK   14  A    between atoms: C16_25  and  C17_26 
REMARK   15  A    between atoms: C17_26  and  C18_27 
REMARK   16  A    between atoms: C17_26  and  C19_28 
REMARK   17  A    between atoms: C20_29  and  C21_30 
REMARK   18  A    between atoms: C20_29  and  C24_33 
REMARK   19  A    between atoms: C20_29  and  N6_40 
REMARK   20  A    between atoms: C21_30  and  C22_31 
REMARK   21  A    between atoms: C22_31  and  C23_32 
REMARK   22  A    between atoms: C23_32  and  O8_43 
REMARK   23  A    between atoms: C24_33  and  C25_34 
REMARK   24  A    between atoms: C28_38  and  O6_39 
REMARK   25  A    between atoms: C29_42  and  O8_43 
REMARK   26  A    between atoms: C29_42  and  C35_49 
ROOT
ATOM      1  C14 non d ame      -8.801   9.699  64.866  0.00  0.00     0.089 C 
ATOM      2  H20 non d ame      -7.769   9.965  65.095  0.00  0.00     0.087 H 
ENDROOT
BRANCH   1   3
ATOM      3  N4  non d ame      -9.097   8.452  65.555  0.00  0.00    -0.346 N 
ATOM      4  C10 non d ame      -7.981   7.522  65.959  0.00  0.00     0.241 C 
ATOM      5  O4  non d ame      -6.852   7.797  65.715  0.00  0.00    -0.271 OA
ATOM      6  H19 non d ame     -10.064   8.236  65.752  0.00  0.00     0.163 HD
BRANCH   4   7
ATOM      7  C9  non d ame      -8.305   6.238  66.677  0.00  0.00     0.092 C 
ATOM      8  H11 non d ame      -7.421   5.600  66.688  0.00  0.00     0.088 H 
BRANCH   7   9
ATOM      9  N3  non d ame      -8.645   6.531  68.073  0.00  0.00    -0.346 N 
ATOM     10  C7  non d ame      -7.641   6.405  69.100  0.00  0.00     0.240 C 
ATOM     11  O3  non d ame      -6.555   6.068  68.822  0.00  0.00    -0.271 OA
ATOM     12  H10 non d ame      -9.578   6.821  68.328  0.00  0.00     0.163 HD
BRANCH  10  13
ATOM     13  C6  non d ame      -8.009   6.715  70.585  0.00  0.00     0.086 C 
ATOM     14  H6  non d ame      -7.434   7.544  70.997  0.00  0.00     0.086 H 
BRANCH  13  15
ATOM     15  N2  non d ame      -9.408   7.106  70.651  0.00  0.00    -0.343 N 
ATOM     16  C5  non d ame      -9.806   8.215  71.521  0.00  0.00     0.273 C 
ATOM     17  O2  non d ame      -8.995   8.784  72.165  0.00  0.00    -0.266 OA
ATOM     18  H5  non d ame     -10.095   6.612  70.100  0.00  0.00     0.163 HD
BRANCH  16  19
ATOM     19  C4  non d ame     -11.281   8.639  71.600  0.00  0.00     0.154 A 
ATOM     20  C1  non d ame     -12.410   7.798  71.856  0.00  0.00    -0.017 A 
ATOM     21  C2  non d ame     -13.525   8.667  71.825  0.00  0.00     0.077 A 
ATOM     22  H1  non d ame     -12.420   6.723  72.037  0.00  0.00     0.091 H 
ATOM     23  O1  non d ame     -13.076   9.863  71.580  0.00  0.00    -0.218 OA
ATOM     24  N1  non d ame     -11.770   9.873  71.445  0.00  0.00    -0.123 NA
BRANCH  21  25
ATOM     25  C3  non d ame     -14.980   8.273  72.039  0.00  0.00    -0.029 C 
ATOM     26  H2  non d ame     -15.464   9.008  72.683  0.00  0.00     0.036 H 
ATOM     27  H3  non d ame     -15.492   8.240  71.077  0.00  0.00     0.036 H 
ATOM     28  H4  non d ame     -15.026   7.291  72.509  0.00  0.00     0.036 H 
ENDBRANCH  21  25
ENDBRANCH  16  19
ENDBRANCH  13  15
BRANCH  13  29
ATOM     29  C8  non d ame      -7.774   5.490  71.430  0.00  0.00    -0.049 C 
ATOM     30  H7  non d ame      -6.848   5.006  71.120  0.00  0.00     0.030 H 
ATOM     31  H8  non d ame      -7.699   5.780  72.478  0.00  0.00     0.030 H 
ATOM     32  H9  non d ame      -8.605   4.797  71.303  0.00  0.00     0.030 H 
ENDBRANCH  13  29
ENDBRANCH  10  13
ENDBRANCH   7   9
BRANCH   7  33
ATOM     33  C11 non d ame      -9.517   5.548  65.985  0.00  0.00    -0.033 C 
ATOM     34  H12 non d ame      -9.636   6.003  65.002  0.00  0.00     0.042 H 
BRANCH  33  35
ATOM     35  C12 non d ame      -9.256   4.025  65.768  0.00  0.00    -0.071 C 
ATOM     36  H13 non d ame      -8.385   3.893  65.126  0.00  0.00     0.028 H 
ATOM     37  H14 non d ame      -9.072   3.548  66.731  0.00  0.00     0.028 H 
ATOM     38  H15 non d ame     -10.127   3.571  65.297  0.00  0.00     0.028 H 
ENDBRANCH  33  35
BRANCH  33  39
ATOM     39  C13 non d ame     -10.833   5.788  66.792  0.00  0.00    -0.071 C 
ATOM     40  H16 non d ame     -11.129   4.864  67.287  0.00  0.00     0.028 H 
ATOM     41  H17 non d ame     -10.665   6.564  67.540  0.00  0.00     0.028 H 
ATOM     42  H18 non d ame     -11.623   6.106  66.111  0.00  0.00     0.028 H 
ENDBRANCH  33  39
ENDBRANCH   7  33
ENDBRANCH   4   7
ENDBRANCH   1   3
BRANCH   1  43
ATOM     43  C15 non d ame      -9.807  10.783  65.348  0.00  0.00     0.240 C 
ATOM     44  O5  non d ame     -10.881  10.460  65.741  0.00  0.00    -0.271 OA
ATOM     45  N6  non d ame      -9.428  12.225  65.329  0.00  0.00    -0.355 N 
ATOM     46  H46 non d ame      -8.517  12.511  65.002  0.00  0.00     0.162 HD
BRANCH  45  47
ATOM     47  C20 non d ame     -10.395  13.243  65.793  0.00  0.00     0.013 C 
ATOM     48  H30 non d ame     -11.397  12.892  65.545  0.00  0.00     0.072 H 
BRANCH  47  49
ATOM     49  C21 non d ame     -10.118  14.552  65.089  0.00  0.00    -0.038 C 
ATOM     50  H31 non d ame      -9.272  14.359  64.430  0.00  0.00     0.036 H 
ATOM     51  H32 non d ame     -11.074  14.870  64.671  0.00  0.00     0.036 H 
BRANCH  49  52
ATOM     52  C22 non d ame      -9.672  15.670  66.057  0.00  0.00     0.018 C 
ATOM     53  H33 non d ame     -10.022  15.364  67.043  0.00  0.00     0.048 H 
ATOM     54  H34 non d ame      -8.605  15.808  65.876  0.00  0.00     0.048 H 
BRANCH  52  55
ATOM     55  C23 non d ame     -10.336  17.046  65.774  0.00  0.00     0.259 C 
ATOM     56  O7  non d ame     -10.979  17.214  64.789  0.00  0.00    -0.265 OA
BRANCH  55  57
ATOM     57  O8  non d ame     -10.157  18.110  66.701  0.00  0.00    -0.317 OA
BRANCH  57  58
ATOM     58  C29 non d ame      -9.340  19.177  66.212  0.00  0.00     0.052 C 
ATOM     59  H47 non d ame      -8.898  18.809  65.285  0.00  0.00     0.082 H 
ATOM     60  H48 non d ame      -9.981  20.057  66.198  0.00  0.00     0.082 H 
BRANCH  58  61
ATOM     61  C35 non d ame      -8.200  19.416  67.237  0.00  0.00    -0.034 A 
ATOM     62  C30 non d ame      -7.402  20.551  67.139  0.00  0.00    -0.075 A 
ATOM     63  C31 non d ame      -6.378  20.766  68.061  0.00  0.00    -0.082 A 
ATOM     64  H49 non d ame      -7.578  21.272  66.341  0.00  0.00     0.084 H 
ATOM     65  C32 non d ame      -6.152  19.840  69.082  0.00  0.00    -0.083 A 
ATOM     66  H50 non d ame      -5.755  21.658  67.983  0.00  0.00     0.083 H 
ATOM     67  C33 non d ame      -6.949  18.707  69.174  0.00  0.00    -0.082 A 
ATOM     68  H51 non d ame      -5.354  20.000  69.807  0.00  0.00     0.083 H 
ATOM     69  C34 non d ame      -7.975  18.489  68.256  0.00  0.00    -0.075 A 
ATOM     70  H52 non d ame      -6.768  17.984  69.970  0.00  0.00     0.083 H 
ATOM     71  H53 non d ame      -8.597  17.597  68.336  0.00  0.00     0.084 H 
ENDBRANCH  58  61
ENDBRANCH  57  58
ENDBRANCH  55  57
ENDBRANCH  52  55
ENDBRANCH  49  52
ENDBRANCH  47  49
BRANCH  47  72
ATOM     72  C24 non d ame     -10.259  13.436  67.301  0.00  0.00    -0.039 C 
ATOM     73  H35 non d ame      -9.590  12.643  67.636  0.00  0.00     0.036 H 
ATOM     74  H36 non d ame      -9.976  14.480  67.436  0.00  0.00     0.036 H 
BRANCH  72  75
ATOM     75  C25 non d ame     -11.657  13.224  68.055  0.00  0.00    -0.001 C 
ATOM     76  C26 non d ame     -11.986  14.528  69.001  0.00  0.00    -0.035 C 
ATOM     77  C27 non d ame     -12.281  14.097  70.251  0.00  0.00     0.085 C 
ATOM     78  H38 non d ame     -11.085  15.124  69.143  0.00  0.00     0.036 H 
ATOM     79  H39 non d ame     -12.909  15.006  68.672  0.00  0.00     0.036 H 
ATOM     80  N5  non d ame     -11.866  12.648  70.327  0.00  0.00    -0.049 N 
ATOM     81  H40 non d ame     -11.649  14.684  70.919  0.00  0.00     0.075 H 
ATOM     82  H41 non d ame     -13.366  14.160  70.332  0.00  0.00     0.075 H 
ATOM     83  C28 non d ame     -11.630  12.172  68.803  0.00  0.00     0.193 C 
ATOM     84  H42 non d ame     -10.979  12.629  70.811  0.00  0.00     0.280 HD
ATOM     85  H43 non d ame     -12.656  12.143  70.703  0.00  0.00     0.280 HD
ATOM     86  H44 non d ame     -12.369  11.550  68.296  0.00  0.00     0.129 H 
ATOM     87  H37 non d ame     -12.444  12.891  67.378  0.00  0.00     0.046 H 
BRANCH  83  88
ATOM     88  O6  non d ame     -10.395  11.464  68.693  0.00  0.00    -0.369 OA
ATOM     89  H45 non d ame     -10.462  10.628  69.161  0.00  0.00     0.212 HD
ENDBRANCH  83  88
ENDBRANCH  72  75
ENDBRANCH  47  72
ENDBRANCH  45  47
ENDBRANCH   1  43
BRANCH   1  90
ATOM     90  C16 non d ame      -8.957   9.487  63.368  0.00  0.00    -0.035 C 
ATOM     91  H21 non d ame      -9.202   8.431  63.250  0.00  0.00     0.037 H 
ATOM     92  H22 non d ame      -9.664  10.250  63.041  0.00  0.00     0.037 H 
BRANCH  90  93
ATOM     93  C17 non d ame      -7.642   9.728  62.561  0.00  0.00    -0.059 C 
ATOM     94  H23 non d ame      -7.304   8.763  62.185  0.00  0.00     0.038 H 
BRANCH  93  95
ATOM     95  C18 non d ame      -7.869  10.665  61.331  0.00  0.00    -0.073 C 
ATOM     96  H24 non d ame      -8.909  10.599  61.012  0.00  0.00     0.028 H 
ATOM     97  H25 non d ame      -7.639  11.693  61.611  0.00  0.00     0.028 H 
ATOM     98  H26 non d ame      -7.217  10.356  60.514  0.00  0.00     0.028 H 
ENDBRANCH  93  95
BRANCH  93  99
ATOM     99  C19 non d ame      -6.537  10.276  63.467  0.00  0.00    -0.073 C 
ATOM    100  H27 non d ame      -6.476   9.672  64.373  0.00  0.00     0.028 H 
ATOM    101  H28 non d ame      -5.583  10.238  62.940  0.00  0.00     0.028 H 
ATOM    102  H29 non d ame      -6.764  11.308  63.733  0.00  0.00     0.028 H 
ENDBRANCH  93  99
ENDBRANCH  90  93
ENDBRANCH   1  90
TORSDOF 26
ENDMDL
MODEL 19
REMARK VINA RESULT:      -6.5      2.799      5.470
REMARK  26 active torsions:
REMARK  status: ('A' for Active; 'I' for Inactive)
REMARK    1  A    between atoms: C2_2  and  C3_3 
REMARK    2  A    between atoms: C4_6  and  C5_7 
REMARK       I    between atoms: C5_7  and  N2_9 
REMARK    3  A    between atoms: N2_9  and  C6_10 
REMARK    4  A    between atoms: C6_10  and  C7_11 
REMARK    5  A    between atoms: C6_10  and  C8_13 
REMARK       I    between atoms: C7_11  and  N3_14 
REMARK    6  A    between atoms: N3_14  and  C9_15 
REMARK    7  A    between atoms: C9_15  and  C10_16 
REMARK    8  A    between atoms: C9_15  and  C11_18 
REMARK       I    between atoms: C10_16  and  N4_21 
REMARK    9  A    between atoms: C11_18  and  C12_19 
REMARK   10  A    between atoms: C11_18  and  C13_20 
REMARK   11  A    between atoms: N4_21  and  C14_22 
REMARK   12  A    between atoms: C14_22  and  C15_23 
REMARK   13  A    between atoms: C14_22  and  C16_25 
REMARK       I    between atoms: C15_23  and  N6_40 
REMARK   14  A    between atoms: C16_25  and  C17_26 
REMARK   15  A    between atoms: C17_26  and  C18_27 
REMARK   16  A    between atoms: C17_26  and  C19_28 
REMARK   17  A    between atoms: C20_29  and  C21_30 
REMARK   18  A    between atoms: C20_29  and  C24_33 
REMARK   19  A    between atoms: C20_29  and  N6_40 
REMARK   20  A    between atoms: C21_30  and  C22_31 
REMARK   21  A    between atoms: C22_31  and  C23_32 
REMARK   22  A    between atoms: C23_32  and  O8_43 
REMARK   23  A    between atoms: C24_33  and  C25_34 
REMARK   24  A    between atoms: C28_38  and  O6_39 
REMARK   25  A    between atoms: C29_42  and  O8_43 
REMARK   26  A    between atoms: C29_42  and  C35_49 
ROOT
ATOM      1  C14 non d ame     -10.244  10.559  67.986  0.00  0.00     0.089 C 
ATOM      2  H20 non d ame      -9.860  10.952  68.928  0.00  0.00     0.087 H 
ENDROOT
BRANCH   1   3
ATOM      3  N4  non d ame     -10.788   9.236  68.252  0.00  0.00    -0.346 N 
ATOM      4  C10 non d ame     -10.648   8.615  69.619  0.00  0.00     0.241 C 
ATOM      5  O4  non d ame     -10.091   9.199  70.489  0.00  0.00    -0.271 OA
ATOM      6  H19 non d ame     -11.257   8.755  67.497  0.00  0.00     0.163 HD
BRANCH   4   7
ATOM      7  C9  non d ame     -11.223   7.247  69.878  0.00  0.00     0.092 C 
ATOM      8  H11 non d ame     -12.151   7.136  69.317  0.00  0.00     0.088 H 
BRANCH   7   9
ATOM      9  N3  non d ame     -10.294   6.225  69.386  0.00  0.00    -0.346 N 
ATOM     10  C7  non d ame     -10.402   5.746  68.030  0.00  0.00     0.240 C 
ATOM     11  O3  non d ame     -11.232   6.170  67.322  0.00  0.00    -0.271 OA
ATOM     12  H10 non d ame      -9.574   5.849  69.986  0.00  0.00     0.163 HD
BRANCH  10  13
ATOM     13  C6  non d ame      -9.413   4.656  67.513  0.00  0.00     0.086 C 
ATOM     14  H6  non d ame      -9.691   4.264  66.535  0.00  0.00     0.086 H 
BRANCH  13  15
ATOM     15  N2  non d ame      -8.094   5.250  67.363  0.00  0.00    -0.343 N 
ATOM     16  C5  non d ame      -7.540   5.446  66.022  0.00  0.00     0.273 C 
ATOM     17  O2  non d ame      -8.161   5.121  65.070  0.00  0.00    -0.266 OA
ATOM     18  H5  non d ame      -7.569   5.522  68.182  0.00  0.00     0.163 HD
BRANCH  16  19
ATOM     19  C4  non d ame      -6.148   6.074  65.848  0.00  0.00     0.154 A 
ATOM     20  C1  non d ame      -5.709   7.349  66.327  0.00  0.00    -0.017 A 
ATOM     21  C2  non d ame      -4.363   7.450  65.910  0.00  0.00     0.077 A 
ATOM     22  H1  non d ame      -6.279   8.087  66.892  0.00  0.00     0.091 H 
ATOM     23  O1  non d ame      -4.073   6.356  65.268  0.00  0.00    -0.218 OA
ATOM     24  N1  non d ame      -5.099   5.537  65.219  0.00  0.00    -0.123 NA
BRANCH  21  25
ATOM     25  C3  non d ame      -3.425   8.623  66.165  0.00  0.00    -0.029 C 
ATOM     26  H2  non d ame      -4.009   9.535  66.288  0.00  0.00     0.036 H 
ATOM     27  H3  non d ame      -2.848   8.436  67.070  0.00  0.00     0.036 H 
ATOM     28  H4  non d ame      -2.747   8.737  65.319  0.00  0.00     0.036 H 
ENDBRANCH  21  25
ENDBRANCH  16  19
ENDBRANCH  13  15
BRANCH  13  29
ATOM     29  C8  non d ame      -9.357   3.516  68.498  0.00  0.00    -0.049 C 
ATOM     30  H7  non d ame      -9.407   2.569  67.961  0.00  0.00     0.030 H 
ATOM     31  H8  non d ame      -8.424   3.567  69.060  0.00  0.00     0.030 H 
ATOM     32  H9  non d ame     -10.200   3.589  69.185  0.00  0.00     0.030 H 
ENDBRANCH  13  29
ENDBRANCH  10  13
ENDBRANCH   7   9
BRANCH   7  33
ATOM     33  C11 non d ame     -11.437   7.056  71.408  0.00  0.00    -0.033 C 
ATOM     34  H12 non d ame     -10.875   7.838  71.919  0.00  0.00     0.042 H 
BRANCH  33  35
ATOM     35  C12 non d ame     -12.939   7.227  71.797  0.00  0.00    -0.071 C 
ATOM     36  H13 non d ame     -13.224   6.444  72.500  0.00  0.00     0.028 H 
ATOM     37  H14 non d ame     -13.084   8.202  72.263  0.00  0.00     0.028 H 
ATOM     38  H15 non d ame     -13.556   7.156  70.903  0.00  0.00     0.028 H 
ENDBRANCH  33  35
BRANCH  33  39
ATOM     39  C13 non d ame     -10.883   5.674  71.882  0.00  0.00    -0.071 C 
ATOM     40  H16 non d ame     -10.228   5.820  72.740  0.00  0.00     0.028 H 
ATOM     41  H17 non d ame     -11.714   5.027  72.165  0.00  0.00     0.028 H 
ATOM     42  H18 non d ame     -10.322   5.210  71.071  0.00  0.00     0.028 H 
ENDBRANCH  33  39
ENDBRANCH   7  33
ENDBRANCH   4   7
ENDBRANCH   1   3
BRANCH   1  43
ATOM     43  C15 non d ame     -11.373  11.450  67.394  0.00  0.00     0.240 C 
ATOM     44  O5  non d ame     -12.356  11.657  68.030  0.00  0.00    -0.271 OA
ATOM     45  N6  non d ame     -11.226  12.052  66.039  0.00  0.00    -0.355 N 
ATOM     46  H46 non d ame     -10.394  11.887  65.491  0.00  0.00     0.162 HD
BRANCH  45  47
ATOM     47  C20 non d ame     -12.309  12.898  65.491  0.00  0.00     0.013 C 
ATOM     48  H30 non d ame     -13.250  12.561  65.925  0.00  0.00     0.072 H 
BRANCH  47  49
ATOM     49  C21 non d ame     -12.349  12.746  63.987  0.00  0.00    -0.038 C 
ATOM     50  H31 non d ame     -13.406  12.730  63.721  0.00  0.00     0.036 H 
ATOM     51  H32 non d ame     -11.699  13.528  63.595  0.00  0.00     0.036 H 
BRANCH  49  52
ATOM     52  C22 non d ame     -11.758  11.404  63.504  0.00  0.00     0.018 C 
ATOM     53  H33 non d ame     -11.882  10.710  64.336  0.00  0.00     0.048 H 
ATOM     54  H34 non d ame     -12.236  11.198  62.546  0.00  0.00     0.048 H 
BRANCH  52  55
ATOM     55  C23 non d ame     -10.231  11.459  63.218  0.00  0.00     0.259 C 
ATOM     56  O7  non d ame      -9.619  12.461  63.401  0.00  0.00    -0.265 OA
BRANCH  55  57
ATOM     57  O8  non d ame      -9.574  10.301  62.719  0.00  0.00    -0.317 OA
BRANCH  57  58
ATOM     58  C29 non d ame      -8.981   9.485  63.735  0.00  0.00     0.052 C 
ATOM     59  H47 non d ame      -9.020  10.078  64.649  0.00  0.00     0.082 H 
ATOM     60  H48 non d ame      -9.499   8.528  63.684  0.00  0.00     0.082 H 
BRANCH  58  61
ATOM     61  C35 non d ame      -7.493   9.258  63.359  0.00  0.00    -0.034 A 
ATOM     62  C30 non d ame      -6.564  10.278  63.543  0.00  0.00    -0.075 A 
ATOM     63  C31 non d ame      -5.227  10.074  63.205  0.00  0.00    -0.082 A 
ATOM     64  H49 non d ame      -6.884  11.236  63.953  0.00  0.00     0.084 H 
ATOM     65  C32 non d ame      -4.820   8.845  62.679  0.00  0.00    -0.083 A 
ATOM     66  H50 non d ame      -4.502  10.874  63.353  0.00  0.00     0.083 H 
ATOM     67  C33 non d ame      -5.751   7.832  62.493  0.00  0.00    -0.082 A 
ATOM     68  H51 non d ame      -3.777   8.678  62.413  0.00  0.00     0.083 H 
ATOM     69  C34 non d ame      -7.088   8.031  62.832  0.00  0.00    -0.075 A 
ATOM     70  H52 non d ame      -5.430   6.875  62.080  0.00  0.00     0.083 H 
ATOM     71  H53 non d ame      -7.813   7.230  62.684  0.00  0.00     0.084 H 
ENDBRANCH  58  61
ENDBRANCH  57  58
ENDBRANCH  55  57
ENDBRANCH  52  55
ENDBRANCH  49  52
ENDBRANCH  47  49
BRANCH  47  72
ATOM     72  C24 non d ame     -12.053  14.360  65.849  0.00  0.00    -0.039 C 
ATOM     73  H35 non d ame     -12.248  14.921  64.935  0.00  0.00     0.036 H 
ATOM     74  H36 non d ame     -12.649  14.549  66.742  0.00  0.00     0.036 H 
BRANCH  72  75
ATOM     75  C25 non d ame     -10.520  14.615  66.241  0.00  0.00    -0.001 C 
ATOM     76  C26 non d ame     -10.423  15.177  67.783  0.00  0.00    -0.035 C 
ATOM     77  C27 non d ame      -9.669  16.302  67.791  0.00  0.00     0.085 C 
ATOM     78  H38 non d ame     -11.401  15.524  68.117  0.00  0.00     0.036 H 
ATOM     79  H39 non d ame      -9.851  14.483  68.399  0.00  0.00     0.036 H 
ATOM     80  N5  non d ame      -9.516  16.741  66.354  0.00  0.00    -0.049 N 
ATOM     81  H40 non d ame     -10.259  17.046  68.328  0.00  0.00     0.075 H 
ATOM     82  H41 non d ame      -8.696  15.998  68.175  0.00  0.00     0.075 H 
ATOM     83  C28 non d ame      -9.975  15.481  65.454  0.00  0.00     0.193 C 
ATOM     84  H42 non d ame     -10.174  17.494  66.213  0.00  0.00     0.280 HD
ATOM     85  H43 non d ame      -8.529  16.898  66.207  0.00  0.00     0.280 HD
ATOM     86  H44 non d ame      -9.233  14.857  64.956  0.00  0.00     0.129 H 
ATOM     87  H37 non d ame      -9.882  13.771  65.979  0.00  0.00     0.046 H 
BRANCH  83  88
ATOM     88  O6  non d ame     -10.866  15.911  64.424  0.00  0.00    -0.369 OA
ATOM     89  H45 non d ame     -10.954  16.866  64.455  0.00  0.00     0.212 HD
ENDBRANCH  83  88
ENDBRANCH  72  75
ENDBRANCH  47  72
ENDBRANCH  45  47
ENDBRANCH   1  43
BRANCH   1  90
ATOM     90  C16 non d ame      -9.110  10.436  66.980  0.00  0.00    -0.035 C 
ATOM     91  H21 non d ame      -8.624   9.487  67.207  0.00  0.00     0.037 H 
ATOM     92  H22 non d ame      -9.571  10.592  66.005  0.00  0.00     0.037 H 
BRANCH  90  93
ATOM     93  C17 non d ame      -8.015  11.540  67.132  0.00  0.00    -0.059 C 
ATOM     94  H23 non d ame      -8.129  12.236  66.302  0.00  0.00     0.038 H 
BRANCH  93  95
ATOM     95  C18 non d ame      -8.175  12.350  68.459  0.00  0.00    -0.073 C 
ATOM     96  H24 non d ame      -9.124  12.886  68.444  0.00  0.00     0.028 H 
ATOM     97  H25 non d ame      -8.157  11.665  69.307  0.00  0.00     0.028 H 
ATOM     98  H26 non d ame      -7.356  13.063  68.550  0.00  0.00     0.028 H 
ENDBRANCH  93  95
BRANCH  93  99
ATOM     99  C19 non d ame      -6.612  10.935  67.029  0.00  0.00    -0.073 C 
ATOM    100  H27 non d ame      -6.010  11.268  67.876  0.00  0.00     0.028 H 
ATOM    101  H28 non d ame      -6.684   9.847  67.039  0.00  0.00     0.028 H 
ATOM    102  H29 non d ame      -6.144  11.260  66.101  0.00  0.00     0.028 H 
ENDBRANCH  93  99
ENDBRANCH  90  93
ENDBRANCH   1  90
TORSDOF 26
ENDMDL
MODEL 20
REMARK VINA RESULT:      -6.5      2.704      6.600
REMARK  26 active torsions:
REMARK  status: ('A' for Active; 'I' for Inactive)
REMARK    1  A    between atoms: C2_2  and  C3_3 
REMARK    2  A    between atoms: C4_6  and  C5_7 
REMARK       I    between atoms: C5_7  and  N2_9 
REMARK    3  A    between atoms: N2_9  and  C6_10 
REMARK    4  A    between atoms: C6_10  and  C7_11 
REMARK    5  A    between atoms: C6_10  and  C8_13 
REMARK       I    between atoms: C7_11  and  N3_14 
REMARK    6  A    between atoms: N3_14  and  C9_15 
REMARK    7  A    between atoms: C9_15  and  C10_16 
REMARK    8  A    between atoms: C9_15  and  C11_18 
REMARK       I    between atoms: C10_16  and  N4_21 
REMARK    9  A    between atoms: C11_18  and  C12_19 
REMARK   10  A    between atoms: C11_18  and  C13_20 
REMARK   11  A    between atoms: N4_21  and  C14_22 
REMARK   12  A    between atoms: C14_22  and  C15_23 
REMARK   13  A    between atoms: C14_22  and  C16_25 
REMARK       I    between atoms: C15_23  and  N6_40 
REMARK   14  A    between atoms: C16_25  and  C17_26 
REMARK   15  A    between atoms: C17_26  and  C18_27 
REMARK   16  A    between atoms: C17_26  and  C19_28 
REMARK   17  A    between atoms: C20_29  and  C21_30 
REMARK   18  A    between atoms: C20_29  and  C24_33 
REMARK   19  A    between atoms: C20_29  and  N6_40 
REMARK   20  A    between atoms: C21_30  and  C22_31 
REMARK   21  A    between atoms: C22_31  and  C23_32 
REMARK   22  A    between atoms: C23_32  and  O8_43 
REMARK   23  A    between atoms: C24_33  and  C25_34 
REMARK   24  A    between atoms: C28_38  and  O6_39 
REMARK   25  A    between atoms: C29_42  and  O8_43 
REMARK   26  A    between atoms: C29_42  and  C35_49 
ROOT
ATOM      1  C14 non d ame      -8.165   8.708  64.789  0.00  0.00     0.089 C 
ATOM      2  H20 non d ame      -7.078   8.672  64.869  0.00  0.00     0.087 H 
ENDROOT
BRANCH   1   3
ATOM      3  N4  non d ame      -8.709   7.814  65.800  0.00  0.00    -0.346 N 
ATOM      4  C10 non d ame      -7.787   6.989  66.663  0.00  0.00     0.241 C 
ATOM      5  O4  non d ame      -6.611   7.061  66.524  0.00  0.00    -0.271 OA
ATOM      6  H19 non d ame      -9.713   7.766  65.901  0.00  0.00     0.163 HD
BRANCH   4   7
ATOM      7  C9  non d ame      -8.367   6.073  67.708  0.00  0.00     0.092 C 
ATOM      8  H11 non d ame      -7.663   5.266  67.908  0.00  0.00     0.088 H 
BRANCH   7   9
ATOM      9  N3  non d ame      -8.547   6.812  68.962  0.00  0.00    -0.346 N 
ATOM     10  C7  non d ame      -7.703   6.524  70.095  0.00  0.00     0.240 C 
ATOM     11  O3  non d ame      -6.875   5.701  70.016  0.00  0.00    -0.271 OA
ATOM     12  H10 non d ame      -9.258   7.525  69.045  0.00  0.00     0.163 HD
BRANCH  10  13
ATOM     13  C6  non d ame      -7.901   7.312  71.427  0.00  0.00     0.086 C 
ATOM     14  H6  non d ame      -7.506   8.327  71.380  0.00  0.00     0.086 H 
BRANCH  13  15
ATOM     15  N2  non d ame      -9.324   7.432  71.697  0.00  0.00    -0.343 N 
ATOM     16  C5  non d ame     -10.057   8.597  71.199  0.00  0.00     0.273 C 
ATOM     17  O2  non d ame      -9.493   9.434  70.584  0.00  0.00    -0.266 OA
ATOM     18  H5  non d ame      -9.798   6.713  72.226  0.00  0.00     0.163 HD
BRANCH  16  19
ATOM     19  C4  non d ame     -11.562   8.735  71.475  0.00  0.00     0.154 A 
ATOM     20  C1  non d ame     -12.543   7.693  71.464  0.00  0.00    -0.017 A 
ATOM     21  C2  non d ame     -13.761   8.337  71.778  0.00  0.00     0.077 A 
ATOM     22  H1  non d ame     -12.394   6.633  71.259  0.00  0.00     0.091 H 
ATOM     23  O1  non d ame     -13.499   9.600  71.949  0.00  0.00    -0.218 OA
ATOM     24  N1  non d ame     -12.223   9.857  71.777  0.00  0.00    -0.123 NA
BRANCH  21  25
ATOM     25  C3  non d ame     -15.127   7.674  71.896  0.00  0.00    -0.029 C 
ATOM     26  H2  non d ame     -15.855   8.402  72.253  0.00  0.00     0.036 H 
ATOM     27  H3  non d ame     -15.435   7.301  70.919  0.00  0.00     0.036 H 
ATOM     28  H4  non d ame     -15.068   6.843  72.600  0.00  0.00     0.036 H 
ENDBRANCH  21  25
ENDBRANCH  16  19
ENDBRANCH  13  15
BRANCH  13  29
ATOM     29  C8  non d ame      -7.221   6.578  72.555  0.00  0.00    -0.049 C 
ATOM     30  H7  non d ame      -7.959   5.996  73.107  0.00  0.00     0.030 H 
ATOM     31  H8  non d ame      -6.462   5.909  72.147  0.00  0.00     0.030 H 
ATOM     32  H9  non d ame      -6.750   7.297  73.225  0.00  0.00     0.030 H 
ENDBRANCH  13  29
ENDBRANCH  10  13
ENDBRANCH   7   9
BRANCH   7  33
ATOM     33  C11 non d ame      -9.747   5.539  67.222  0.00  0.00    -0.033 C 
ATOM     34  H12 non d ame     -10.006   6.081  66.312  0.00  0.00     0.042 H 
BRANCH  33  35
ATOM     35  C12 non d ame      -9.674   4.023  66.861  0.00  0.00    -0.071 C 
ATOM     36  H13 non d ame      -9.236   3.906  65.870  0.00  0.00     0.028 H 
ATOM     37  H14 non d ame      -9.056   3.504  67.594  0.00  0.00     0.028 H 
ATOM     38  H15 non d ame     -10.678   3.600  66.867  0.00  0.00     0.028 H 
ENDBRANCH  33  35
BRANCH  33  39
ATOM     39  C13 non d ame     -10.859   5.816  68.283  0.00  0.00    -0.071 C 
ATOM     40  H16 non d ame     -11.756   6.182  67.783  0.00  0.00     0.028 H 
ATOM     41  H17 non d ame     -11.091   4.894  68.816  0.00  0.00     0.028 H 
ATOM     42  H18 non d ame     -10.507   6.566  68.992  0.00  0.00     0.028 H 
ENDBRANCH  33  39
ENDBRANCH   7  33
ENDBRANCH   4   7
ENDBRANCH   1   3
BRANCH   1  43
ATOM     43  C15 non d ame      -8.724  10.138  65.040  0.00  0.00     0.240 C 
ATOM     44  O5  non d ame      -8.704  10.942  64.166  0.00  0.00    -0.271 OA
ATOM     45  N6  non d ame      -9.293  10.502  66.369  0.00  0.00    -0.355 N 
ATOM     46  H46 non d ame      -9.320   9.826  67.118  0.00  0.00     0.162 HD
BRANCH  45  47
ATOM     47  C20 non d ame      -9.823  11.865  66.591  0.00  0.00     0.013 C 
ATOM     48  H30 non d ame      -9.298  12.542  65.918  0.00  0.00     0.072 H 
BRANCH  47  49
ATOM     49  C21 non d ame      -9.576  12.269  68.027  0.00  0.00    -0.038 C 
ATOM     50  H31 non d ame     -10.525  12.663  68.390  0.00  0.00     0.036 H 
ATOM     51  H32 non d ame      -9.128  11.397  68.505  0.00  0.00     0.036 H 
BRANCH  49  52
ATOM     52  C22 non d ame      -8.548  13.414  68.159  0.00  0.00     0.018 C 
ATOM     53  H33 non d ame      -7.986  13.204  69.070  0.00  0.00     0.048 H 
ATOM     54  H34 non d ame      -8.033  13.461  67.199  0.00  0.00     0.048 H 
BRANCH  52  55
ATOM     55  C23 non d ame      -9.193  14.813  68.367  0.00  0.00     0.259 C 
ATOM     56  O7  non d ame      -8.532  15.798  68.302  0.00  0.00    -0.265 OA
BRANCH  55  57
ATOM     57  O8  non d ame     -10.584  14.903  68.651  0.00  0.00    -0.317 OA
BRANCH  57  58
ATOM     58  C29 non d ame     -10.918  15.908  69.613  0.00  0.00     0.052 C 
ATOM     59  H47 non d ame      -9.971  16.219  70.055  0.00  0.00     0.082 H 
ATOM     60  H48 non d ame     -11.535  16.632  69.082  0.00  0.00     0.082 H 
BRANCH  58  61
ATOM     61  C35 non d ame     -11.782  15.244  70.718  0.00  0.00    -0.034 A 
ATOM     62  C30 non d ame     -11.997  15.903  71.924  0.00  0.00    -0.075 A 
ATOM     63  C31 non d ame     -12.773  15.307  72.917  0.00  0.00    -0.082 A 
ATOM     64  H49 non d ame     -11.557  16.886  72.092  0.00  0.00     0.084 H 
ATOM     65  C32 non d ame     -13.333  14.045  72.701  0.00  0.00    -0.083 A 
ATOM     66  H50 non d ame     -12.941  15.826  73.861  0.00  0.00     0.083 H 
ATOM     67  C33 non d ame     -13.114  13.390  71.497  0.00  0.00    -0.082 A 
ATOM     68  H51 non d ame     -13.942  13.572  73.472  0.00  0.00     0.083 H 
ATOM     69  C34 non d ame     -12.341  13.983  70.501  0.00  0.00    -0.075 A 
ATOM     70  H52 non d ame     -13.551  12.405  71.332  0.00  0.00     0.083 H 
ATOM     71  H53 non d ame     -12.174  13.463  69.557  0.00  0.00     0.084 H 
ENDBRANCH  58  61
ENDBRANCH  57  58
ENDBRANCH  55  57
ENDBRANCH  52  55
ENDBRANCH  49  52
ENDBRANCH  47  49
BRANCH  47  72
ATOM     72  C24 non d ame     -11.323  11.889  66.306  0.00  0.00    -0.039 C 
ATOM     73  H35 non d ame     -11.539  10.944  65.807  0.00  0.00     0.036 H 
ATOM     74  H36 non d ame     -11.796  12.122  67.260  0.00  0.00     0.036 H 
BRANCH  72  75
ATOM     75  C25 non d ame     -11.713  13.061  65.285  0.00  0.00    -0.001 C 
ATOM     76  C26 non d ame     -10.350  13.774  64.704  0.00  0.00    -0.035 C 
ATOM     77  C27 non d ame     -10.455  15.115  64.868  0.00  0.00     0.085 C 
ATOM     78  H38 non d ame      -9.495  13.508  65.326  0.00  0.00     0.036 H 
ATOM     79  H39 non d ame     -10.296  13.653  63.622  0.00  0.00     0.036 H 
ATOM     80  N5  non d ame     -11.617  15.356  65.801  0.00  0.00    -0.049 N 
ATOM     81  H40 non d ame      -9.533  15.422  65.362  0.00  0.00     0.075 H 
ATOM     82  H41 non d ame     -10.703  15.509  63.883  0.00  0.00     0.075 H 
ATOM     83  C28 non d ame     -12.432  13.964  65.863  0.00  0.00     0.193 C 
ATOM     84  H42 non d ame     -11.220  15.537  66.712  0.00  0.00     0.280 HD
ATOM     85  H43 non d ame     -12.201  16.051  65.357  0.00  0.00     0.280 HD
ATOM     86  H44 non d ame     -13.371  13.847  65.321  0.00  0.00     0.129 H 
ATOM     87  H37 non d ame     -12.456  12.742  64.554  0.00  0.00     0.046 H 
BRANCH  83  88
ATOM     88  O6  non d ame     -12.731  13.628  67.220  0.00  0.00    -0.369 OA
ATOM     89  H45 non d ame     -12.300  12.801  67.447  0.00  0.00     0.212 HD
ENDBRANCH  83  88
ENDBRANCH  72  75
ENDBRANCH  47  72
ENDBRANCH  45  47
ENDBRANCH   1  43
BRANCH   1  90
ATOM     90  C16 non d ame      -8.597   8.224  63.414  0.00  0.00    -0.035 C 
ATOM     91  H21 non d ame      -9.512   7.656  63.583  0.00  0.00     0.037 H 
ATOM     92  H22 non d ame      -8.617   9.116  62.788  0.00  0.00     0.037 H 
BRANCH  90  93
ATOM     93  C17 non d ame      -7.582   7.241  62.749  0.00  0.00    -0.059 C 
ATOM     94  H23 non d ame      -7.663   7.362  61.669  0.00  0.00     0.038 H 
BRANCH  93  95
ATOM     95  C18 non d ame      -6.106   7.554  63.154  0.00  0.00    -0.073 C 
ATOM     96  H24 non d ame      -6.027   7.586  64.240  0.00  0.00     0.028 H 
ATOM     97  H25 non d ame      -5.450   6.775  62.764  0.00  0.00     0.028 H 
ATOM     98  H26 non d ame      -5.812   8.518  62.739  0.00  0.00     0.028 H 
ENDBRANCH  93  95
BRANCH  93  99
ATOM     99  C19 non d ame      -7.939   5.787  63.071  0.00  0.00    -0.073 C 
ATOM    100  H27 non d ame      -8.463   5.745  64.026  0.00  0.00     0.028 H 
ATOM    101  H28 non d ame      -8.581   5.388  62.286  0.00  0.00     0.028 H 
ATOM    102  H29 non d ame      -7.026   5.194  63.131  0.00  0.00     0.028 H 
ENDBRANCH  93  99
ENDBRANCH  90  93
ENDBRANCH   1  90
TORSDOF 26
ENDMDL
