MODEL 1
REMARK VINA RESULT:      -6.7      0.000      0.000
REMARK  26 active torsions:
REMARK  status: ('A' for Active; 'I' for Inactive)
REMARK    1  A    between atoms: C2_2  and  C3_3 
REMARK    2  A    between atoms: C4_6  and  C5_7 
REMARK       I    between atoms: C5_7  and  N2_9 
REMARK    3  A    between atoms: N2_9  and  C6_10 
REMARK    4  A    between atoms: C6_10  and  C7_11 
REMARK    5  A    between atoms: C6_10  and  C8_13 
REMARK       I    between atoms: C7_11  and  N3_14 
REMARK    6  A    between atoms: N3_14  and  C9_15 
REMARK    7  A    between atoms: C9_15  and  C10_16 
REMARK    8  A    between atoms: C9_15  and  C11_18 
REMARK       I    between atoms: C10_16  and  N4_21 
REMARK    9  A    between atoms: C11_18  and  C12_19 
REMARK   10  A    between atoms: C11_18  and  C13_20 
REMARK   11  A    between atoms: N4_21  and  C14_22 
REMARK   12  A    between atoms: C14_22  and  C15_23 
REMARK   13  A    between atoms: C14_22  and  C16_25 
REMARK       I    between atoms: C15_23  and  N6_40 
REMARK   14  A    between atoms: C16_25  and  C17_26 
REMARK   15  A    between atoms: C17_26  and  C18_27 
REMARK   16  A    between atoms: C17_26  and  C19_28 
REMARK   17  A    between atoms: C20_29  and  C21_30 
REMARK   18  A    between atoms: C20_29  and  C24_33 
REMARK   19  A    between atoms: C20_29  and  N6_40 
REMARK   20  A    between atoms: C21_30  and  C22_31 
REMARK   21  A    between atoms: C22_31  and  C23_32 
REMARK   22  A    between atoms: C23_32  and  O8_43 
REMARK   23  A    between atoms: C24_33  and  C25_34 
REMARK   24  A    between atoms: C28_38  and  O6_39 
REMARK   25  A    between atoms: C29_42  and  O8_43 
REMARK   26  A    between atoms: C29_42  and  C35_49 
ROOT
ATOM      1  C14 non d ame      -7.428   6.220  63.700  0.00  0.00     0.089 C 
ATOM      2  H20 non d ame      -7.674   6.232  62.638  0.00  0.00     0.087 H 
ENDROOT
BRANCH   1   3
ATOM      3  N4  non d ame      -7.171   7.594  64.106  0.00  0.00    -0.346 N 
ATOM      4  C10 non d ame      -7.872   8.736  63.414  0.00  0.00     0.241 C 
ATOM      5  O4  non d ame      -8.636   8.525  62.531  0.00  0.00    -0.271 OA
ATOM      6  H19 non d ame      -6.515   7.753  64.858  0.00  0.00     0.163 HD
BRANCH   4   7
ATOM      7  C9  non d ame      -7.598  10.152  63.850  0.00  0.00     0.092 C 
ATOM      8  H11 non d ame      -7.337  10.752  62.978  0.00  0.00     0.088 H 
BRANCH   7   9
ATOM      9  N3  non d ame      -8.816  10.730  64.425  0.00  0.00    -0.346 N 
ATOM     10  C7  non d ame      -9.671  11.562  63.614  0.00  0.00     0.240 C 
ATOM     11  O3  non d ame      -9.393  11.777  62.498  0.00  0.00    -0.271 OA
ATOM     12  H10 non d ame      -9.068  10.555  65.388  0.00  0.00     0.163 HD
BRANCH  10  13
ATOM     13  C6  non d ame     -10.965  12.177  64.233  0.00  0.00     0.086 C 
ATOM     14  H6  non d ame     -11.112  11.890  65.274  0.00  0.00     0.086 H 
BRANCH  13  15
ATOM     15  N2  non d ame     -10.853  13.627  64.214  0.00  0.00    -0.343 N 
ATOM     16  C5  non d ame     -10.927  14.372  65.473  0.00  0.00     0.273 C 
ATOM     17  O2  non d ame     -11.079  13.797  66.494  0.00  0.00    -0.266 OA
ATOM     18  H5  non d ame     -10.726  14.110  63.337  0.00  0.00     0.163 HD
BRANCH  16  19
ATOM     19  C4  non d ame     -10.808  15.904  65.468  0.00  0.00     0.154 A 
ATOM     20  C1  non d ame     -10.250  16.732  66.493  0.00  0.00    -0.017 A 
ATOM     21  C2  non d ame     -10.380  18.051  66.006  0.00  0.00     0.077 A 
ATOM     22  H1  non d ame      -9.817  16.422  67.445  0.00  0.00     0.091 H 
ATOM     23  O1  non d ame     -10.946  17.979  64.837  0.00  0.00    -0.218 OA
ATOM     24  N1  non d ame     -11.206  16.737  64.502  0.00  0.00    -0.123 NA
BRANCH  21  25
ATOM     25  C3  non d ame      -9.937  19.323  66.719  0.00  0.00    -0.029 C 
ATOM     26  H2  non d ame      -8.935  19.596  66.386  0.00  0.00     0.036 H 
ATOM     27  H3  non d ame     -10.631  20.130  66.484  0.00  0.00     0.036 H 
ATOM     28  H4  non d ame      -9.929  19.152  67.796  0.00  0.00     0.036 H 
ENDBRANCH  21  25
ENDBRANCH  16  19
ENDBRANCH  13  15
BRANCH  13  29
ATOM     29  C8  non d ame     -12.165  11.742  63.432  0.00  0.00    -0.049 C 
ATOM     30  H7  non d ame     -12.144  12.224  62.455  0.00  0.00     0.030 H 
ATOM     31  H8  non d ame     -12.143  10.659  63.304  0.00  0.00     0.030 H 
ATOM     32  H9  non d ame     -13.076  12.027  63.958  0.00  0.00     0.030 H 
ENDBRANCH  13  29
ENDBRANCH  10  13
ENDBRANCH   7   9
BRANCH   7  33
ATOM     33  C11 non d ame      -6.469  10.155  64.922  0.00  0.00    -0.033 C 
ATOM     34  H12 non d ame      -6.301   9.121  65.225  0.00  0.00     0.042 H 
BRANCH  33  35
ATOM     35  C12 non d ame      -5.129  10.697  64.335  0.00  0.00    -0.071 C 
ATOM     36  H13 non d ame      -5.174  11.784  64.269  0.00  0.00     0.028 H 
ATOM     37  H14 non d ame      -4.304  10.407  64.986  0.00  0.00     0.028 H 
ATOM     38  H15 non d ame      -4.973  10.278  63.341  0.00  0.00     0.028 H 
ENDBRANCH  33  35
BRANCH  33  39
ATOM     39  C13 non d ame      -6.902  10.964  66.187  0.00  0.00    -0.071 C 
ATOM     40  H16 non d ame      -6.558  10.449  67.083  0.00  0.00     0.028 H 
ATOM     41  H17 non d ame      -6.461  11.961  66.149  0.00  0.00     0.028 H 
ATOM     42  H18 non d ame      -7.988  11.048  66.210  0.00  0.00     0.028 H 
ENDBRANCH  33  39
ENDBRANCH   7  33
ENDBRANCH   4   7
ENDBRANCH   1   3
BRANCH   1  43
ATOM     43  C15 non d ame      -8.592   5.658  64.566  0.00  0.00     0.240 C 
ATOM     44  O5  non d ame      -9.135   4.651  64.244  0.00  0.00    -0.271 OA
ATOM     45  N6  non d ame      -9.023   6.370  65.803  0.00  0.00    -0.355 N 
ATOM     46  H46 non d ame      -8.566   7.223  66.089  0.00  0.00     0.162 HD
BRANCH  45  47
ATOM     47  C20 non d ame     -10.130   5.821  66.616  0.00  0.00     0.013 C 
ATOM     48  H30 non d ame     -10.781   5.250  65.954  0.00  0.00     0.072 H 
BRANCH  47  49
ATOM     49  C21 non d ame     -10.901   6.960  67.243  0.00  0.00    -0.038 C 
ATOM     50  H31 non d ame     -11.937   6.822  66.931  0.00  0.00     0.036 H 
ATOM     51  H32 non d ame     -10.643   6.942  68.302  0.00  0.00     0.036 H 
BRANCH  49  52
ATOM     52  C22 non d ame     -10.467   8.343  66.711  0.00  0.00     0.018 C 
ATOM     53  H33 non d ame      -9.389   8.277  66.561  0.00  0.00     0.048 H 
ATOM     54  H34 non d ame     -11.122   8.554  65.866  0.00  0.00     0.048 H 
BRANCH  52  55
ATOM     55  C23 non d ame     -10.687   9.501  67.723  0.00  0.00     0.259 C 
ATOM     56  O7  non d ame     -11.478  10.359  67.496  0.00  0.00    -0.265 OA
BRANCH  55  57
ATOM     57  O8  non d ame      -9.923   9.534  68.922  0.00  0.00    -0.317 OA
BRANCH  57  58
ATOM     58  C29 non d ame     -10.644  10.016  70.060  0.00  0.00     0.052 C 
ATOM     59  H47 non d ame     -10.029  10.808  70.485  0.00  0.00     0.082 H 
ATOM     60  H48 non d ame     -11.648  10.240  69.699  0.00  0.00     0.082 H 
BRANCH  58  61
ATOM     61  C35 non d ame     -10.740   8.860  71.091  0.00  0.00    -0.034 A 
ATOM     62  C30 non d ame     -11.831   7.997  71.071  0.00  0.00    -0.075 A 
ATOM     63  C31 non d ame     -11.917   6.959  71.998  0.00  0.00    -0.082 A 
ATOM     64  H49 non d ame     -12.618   8.133  70.329  0.00  0.00     0.084 H 
ATOM     65  C32 non d ame     -10.908   6.787  72.949  0.00  0.00    -0.083 A 
ATOM     66  H50 non d ame     -12.772   6.283  71.978  0.00  0.00     0.083 H 
ATOM     67  C33 non d ame      -9.823   7.653  72.967  0.00  0.00    -0.082 A 
ATOM     68  H51 non d ame     -10.967   5.978  73.677  0.00  0.00     0.083 H 
ATOM     69  C34 non d ame      -9.732   8.690  72.042  0.00  0.00    -0.075 A 
ATOM     70  H52 non d ame      -9.038   7.518  73.712  0.00  0.00     0.083 H 
ATOM     71  H53 non d ame      -8.876   9.366  72.062  0.00  0.00     0.084 H 
ENDBRANCH  58  61
ENDBRANCH  57  58
ENDBRANCH  55  57
ENDBRANCH  52  55
ENDBRANCH  49  52
ENDBRANCH  47  49
BRANCH  47  72
ATOM     72  C24 non d ame      -9.567   4.921  67.714  0.00  0.00    -0.039 C 
ATOM     73  H35 non d ame     -10.284   4.106  67.816  0.00  0.00     0.036 H 
ATOM     74  H36 non d ame      -8.540   4.709  67.417  0.00  0.00     0.036 H 
BRANCH  72  75
ATOM     75  C25 non d ame      -9.506   5.676  69.125  0.00  0.00    -0.001 C 
ATOM     76  C26 non d ame      -8.080   6.483  69.267  0.00  0.00    -0.035 C 
ATOM     77  C27 non d ame      -7.503   6.147  70.445  0.00  0.00     0.085 C 
ATOM     78  H38 non d ame      -7.370   6.122  68.523  0.00  0.00     0.036 H 
ATOM     79  H39 non d ame      -8.265   7.553  69.370  0.00  0.00     0.036 H 
ATOM     80  N5  non d ame      -8.242   4.939  70.970  0.00  0.00    -0.049 N 
ATOM     81  H40 non d ame      -6.481   5.859  70.198  0.00  0.00     0.075 H 
ATOM     82  H41 non d ame      -7.686   6.991  71.110  0.00  0.00     0.075 H 
ATOM     83  C28 non d ame      -9.602   4.841  70.106  0.00  0.00     0.193 C 
ATOM     84  H42 non d ame      -7.667   4.137  70.756  0.00  0.00     0.280 HD
ATOM     85  H43 non d ame      -8.484   5.146  71.928  0.00  0.00     0.280 HD
ATOM     86  H44 non d ame     -10.555   5.151  70.537  0.00  0.00     0.129 H 
ATOM     87  H37 non d ame     -10.417   6.237  69.334  0.00  0.00     0.046 H 
BRANCH  83  88
ATOM     88  O6  non d ame      -9.804   3.501  69.656  0.00  0.00    -0.369 OA
ATOM     89  H45 non d ame      -9.648   3.454  68.710  0.00  0.00     0.212 HD
ENDBRANCH  83  88
ENDBRANCH  72  75
ENDBRANCH  47  72
ENDBRANCH  45  47
ENDBRANCH   1  43
BRANCH   1  90
ATOM     90  C16 non d ame      -6.174   5.393  63.930  0.00  0.00    -0.035 C 
ATOM     91  H21 non d ame      -6.502   4.354  63.891  0.00  0.00     0.037 H 
ATOM     92  H22 non d ame      -5.448   5.761  63.205  0.00  0.00     0.037 H 
BRANCH  90  93
ATOM     93  C17 non d ame      -5.534   5.602  65.339  0.00  0.00    -0.059 C 
ATOM     94  H23 non d ame      -6.068   6.417  65.827  0.00  0.00     0.038 H 
BRANCH  93  95
ATOM     95  C18 non d ame      -5.672   4.334  66.243  0.00  0.00    -0.073 C 
ATOM     96  H24 non d ame      -5.846   4.640  67.274  0.00  0.00     0.028 H 
ATOM     97  H25 non d ame      -6.510   3.730  65.896  0.00  0.00     0.028 H 
ATOM     98  H26 non d ame      -4.754   3.748  66.187  0.00  0.00     0.028 H 
ENDBRANCH  93  95
BRANCH  93  99
ATOM     99  C19 non d ame      -4.069   6.027  65.217  0.00  0.00    -0.073 C 
ATOM    100  H27 non d ame      -3.615   6.058  66.208  0.00  0.00     0.028 H 
ATOM    101  H28 non d ame      -3.533   5.309  64.595  0.00  0.00     0.028 H 
ATOM    102  H29 non d ame      -4.014   7.015  64.761  0.00  0.00     0.028 H 
ENDBRANCH  93  99
ENDBRANCH  90  93
ENDBRANCH   1  90
TORSDOF 26
ENDMDL
MODEL 2
REMARK VINA RESULT:      -6.3      3.075      8.801
REMARK  26 active torsions:
REMARK  status: ('A' for Active; 'I' for Inactive)
REMARK    1  A    between atoms: C2_2  and  C3_3 
REMARK    2  A    between atoms: C4_6  and  C5_7 
REMARK       I    between atoms: C5_7  and  N2_9 
REMARK    3  A    between atoms: N2_9  and  C6_10 
REMARK    4  A    between atoms: C6_10  and  C7_11 
REMARK    5  A    between atoms: C6_10  and  C8_13 
REMARK       I    between atoms: C7_11  and  N3_14 
REMARK    6  A    between atoms: N3_14  and  C9_15 
REMARK    7  A    between atoms: C9_15  and  C10_16 
REMARK    8  A    between atoms: C9_15  and  C11_18 
REMARK       I    between atoms: C10_16  and  N4_21 
REMARK    9  A    between atoms: C11_18  and  C12_19 
REMARK   10  A    between atoms: C11_18  and  C13_20 
REMARK   11  A    between atoms: N4_21  and  C14_22 
REMARK   12  A    between atoms: C14_22  and  C15_23 
REMARK   13  A    between atoms: C14_22  and  C16_25 
REMARK       I    between atoms: C15_23  and  N6_40 
REMARK   14  A    between atoms: C16_25  and  C17_26 
REMARK   15  A    between atoms: C17_26  and  C18_27 
REMARK   16  A    between atoms: C17_26  and  C19_28 
REMARK   17  A    between atoms: C20_29  and  C21_30 
REMARK   18  A    between atoms: C20_29  and  C24_33 
REMARK   19  A    between atoms: C20_29  and  N6_40 
REMARK   20  A    between atoms: C21_30  and  C22_31 
REMARK   21  A    between atoms: C22_31  and  C23_32 
REMARK   22  A    between atoms: C23_32  and  O8_43 
REMARK   23  A    between atoms: C24_33  and  C25_34 
REMARK   24  A    between atoms: C28_38  and  O6_39 
REMARK   25  A    between atoms: C29_42  and  O8_43 
REMARK   26  A    between atoms: C29_42  and  C35_49 
ROOT
ATOM      1  C14 non d ame     -10.053  12.366  65.014  0.00  0.00     0.089 C 
ATOM      2  H20 non d ame     -10.121  12.628  63.958  0.00  0.00     0.087 H 
ENDROOT
BRANCH   1   3
ATOM      3  N4  non d ame      -9.149  11.231  65.127  0.00  0.00    -0.346 N 
ATOM      4  C10 non d ame      -9.065  10.212  64.019  0.00  0.00     0.241 C 
ATOM      5  O4  non d ame      -9.737  10.325  63.047  0.00  0.00    -0.271 OA
ATOM      6  H19 non d ame      -8.588  11.152  65.963  0.00  0.00     0.163 HD
BRANCH   4   7
ATOM      7  C9  non d ame      -8.120   9.046  64.150  0.00  0.00     0.092 C 
ATOM      8  H11 non d ame      -7.173   9.397  64.561  0.00  0.00     0.088 H 
BRANCH   7   9
ATOM      9  N3  non d ame      -8.671   8.074  65.098  0.00  0.00    -0.346 N 
ATOM     10  C7  non d ame      -8.143   7.996  66.438  0.00  0.00     0.240 C 
ATOM     11  O3  non d ame      -7.274   8.707  66.769  0.00  0.00    -0.271 OA
ATOM     12  H10 non d ame      -9.420   7.453  64.827  0.00  0.00     0.163 HD
BRANCH  10  13
ATOM     13  C6  non d ame      -8.731   6.957  67.443  0.00  0.00     0.086 C 
ATOM     14  H6  non d ame      -8.014   6.655  68.206  0.00  0.00     0.086 H 
BRANCH  13  15
ATOM     15  N2  non d ame      -9.854   7.560  68.142  0.00  0.00    -0.343 N 
ATOM     16  C5  non d ame      -9.633   8.208  69.437  0.00  0.00     0.273 C 
ATOM     17  O2  non d ame      -8.550   8.235  69.909  0.00  0.00    -0.266 OA
ATOM     18  H5  non d ame     -10.777   7.530  67.732  0.00  0.00     0.163 HD
BRANCH  16  19
ATOM     19  C4  non d ame     -10.810   8.851  70.186  0.00  0.00     0.154 A 
ATOM     20  C1  non d ame     -11.731   8.203  71.070  0.00  0.00    -0.017 A 
ATOM     21  C2  non d ame     -12.611   9.225  71.491  0.00  0.00     0.077 A 
ATOM     22  H1  non d ame     -11.756   7.153  71.361  0.00  0.00     0.091 H 
ATOM     23  O1  non d ame     -12.231  10.326  70.912  0.00  0.00    -0.218 OA
ATOM     24  N1  non d ame     -11.183  10.133  70.145  0.00  0.00    -0.123 NA
BRANCH  21  25
ATOM     25  C3  non d ame     -13.786   9.065  72.446  0.00  0.00    -0.029 C 
ATOM     26  H2  non d ame     -14.564   9.784  72.189  0.00  0.00     0.036 H 
ATOM     27  H3  non d ame     -14.185   8.054  72.366  0.00  0.00     0.036 H 
ATOM     28  H4  non d ame     -13.450   9.243  73.469  0.00  0.00     0.036 H 
ENDBRANCH  21  25
ENDBRANCH  16  19
ENDBRANCH  13  15
BRANCH  13  29
ATOM     29  C8  non d ame      -9.188   5.732  66.692  0.00  0.00    -0.049 C 
ATOM     30  H7  non d ame     -10.271   5.638  66.774  0.00  0.00     0.030 H 
ATOM     31  H8  non d ame      -8.910   5.823  65.643  0.00  0.00     0.030 H 
ATOM     32  H9  non d ame      -8.715   4.848  67.119  0.00  0.00     0.030 H 
ENDBRANCH  13  29
ENDBRANCH  10  13
ENDBRANCH   7   9
BRANCH   7  33
ATOM     33  C11 non d ame      -7.940   8.367  62.761  0.00  0.00    -0.033 C 
ATOM     34  H12 non d ame      -8.802   8.633  62.150  0.00  0.00     0.042 H 
BRANCH  33  35
ATOM     35  C12 non d ame      -6.666   8.896  62.030  0.00  0.00    -0.071 C 
ATOM     36  H13 non d ame      -6.124   8.057  61.592  0.00  0.00     0.028 H 
ATOM     37  H14 non d ame      -6.961   9.588  61.242  0.00  0.00     0.028 H 
ATOM     38  H15 non d ame      -6.025   9.409  62.745  0.00  0.00     0.028 H 
ENDBRANCH  33  35
BRANCH  33  39
ATOM     39  C13 non d ame      -7.908   6.811  62.899  0.00  0.00    -0.071 C 
ATOM     40  H16 non d ame      -7.242   6.532  63.715  0.00  0.00     0.028 H 
ATOM     41  H17 non d ame      -8.913   6.444  63.109  0.00  0.00     0.028 H 
ATOM     42  H18 non d ame      -7.547   6.371  61.969  0.00  0.00     0.028 H 
ENDBRANCH  33  39
ENDBRANCH   7  33
ENDBRANCH   4   7
ENDBRANCH   1   3
BRANCH   1  43
ATOM     43  C15 non d ame      -9.491  13.534  65.874  0.00  0.00     0.240 C 
ATOM     44  O5  non d ame      -9.604  14.655  65.495  0.00  0.00    -0.271 OA
ATOM     45  N6  non d ame      -8.818  13.256  67.175  0.00  0.00    -0.355 N 
ATOM     46  H46 non d ame      -8.720  12.309  67.510  0.00  0.00     0.162 HD
BRANCH  45  47
ATOM     47  C20 non d ame      -8.290  14.378  67.981  0.00  0.00     0.013 C 
ATOM     48  H30 non d ame      -8.318  15.276  67.365  0.00  0.00     0.072 H 
BRANCH  47  49
ATOM     49  C21 non d ame      -6.866  14.074  68.388  0.00  0.00    -0.038 C 
ATOM     50  H31 non d ame      -6.908  13.836  69.451  0.00  0.00     0.036 H 
ATOM     51  H32 non d ame      -6.509  13.329  67.676  0.00  0.00     0.036 H 
BRANCH  49  52
ATOM     52  C22 non d ame      -5.930  15.294  68.250  0.00  0.00     0.018 C 
ATOM     53  H33 non d ame      -4.923  14.885  68.164  0.00  0.00     0.048 H 
ATOM     54  H34 non d ame      -6.345  15.895  67.441  0.00  0.00     0.048 H 
BRANCH  52  55
ATOM     55  C23 non d ame      -5.913  16.215  69.502  0.00  0.00     0.259 C 
ATOM     56  O7  non d ame      -5.553  15.796  70.554  0.00  0.00    -0.265 OA
BRANCH  55  57
ATOM     57  O8  non d ame      -6.345  17.564  69.380  0.00  0.00    -0.317 OA
BRANCH  57  58
ATOM     58  C29 non d ame      -6.462  18.018  68.028  0.00  0.00     0.052 C 
ATOM     59  H47 non d ame      -5.880  18.938  67.975  0.00  0.00     0.082 H 
ATOM     60  H48 non d ame      -6.192  17.165  67.406  0.00  0.00     0.082 H 
BRANCH  58  61
ATOM     61  C35 non d ame      -7.953  18.364  67.767  0.00  0.00    -0.034 A 
ATOM     62  C30 non d ame      -8.620  19.250  68.605  0.00  0.00    -0.075 A 
ATOM     63  C31 non d ame      -9.959  19.561  68.371  0.00  0.00    -0.082 A 
ATOM     64  H49 non d ame      -8.094  19.703  69.446  0.00  0.00     0.084 H 
ATOM     65  C32 non d ame     -10.631  18.978  67.293  0.00  0.00    -0.083 A 
ATOM     66  H50 non d ame     -10.478  20.258  69.028  0.00  0.00     0.083 H 
ATOM     67  C33 non d ame      -9.962  18.091  66.461  0.00  0.00    -0.082 A 
ATOM     68  H51 non d ame     -11.678  19.216  67.102  0.00  0.00     0.083 H 
ATOM     69  C34 non d ame      -8.624  17.780  66.690  0.00  0.00    -0.075 A 
ATOM     70  H52 non d ame     -10.490  17.636  65.622  0.00  0.00     0.083 H 
ATOM     71  H53 non d ame      -8.105  17.083  66.031  0.00  0.00     0.084 H 
ENDBRANCH  58  61
ENDBRANCH  57  58
ENDBRANCH  55  57
ENDBRANCH  52  55
ENDBRANCH  49  52
ENDBRANCH  47  49
BRANCH  47  72
ATOM     72  C24 non d ame      -9.149  14.565  69.231  0.00  0.00    -0.039 C 
ATOM     73  H35 non d ame      -9.202  13.580  69.696  0.00  0.00     0.036 H 
ATOM     74  H36 non d ame      -8.698  15.398  69.770  0.00  0.00     0.036 H 
BRANCH  72  75
ATOM     75  C25 non d ame     -10.647  14.996  68.861  0.00  0.00    -0.001 C 
ATOM     76  C26 non d ame     -11.139  16.213  69.850  0.00  0.00    -0.035 C 
ATOM     77  C27 non d ame     -12.334  15.878  70.393  0.00  0.00     0.085 C 
ATOM     78  H38 non d ame     -10.478  16.284  70.714  0.00  0.00     0.036 H 
ATOM     79  H39 non d ame     -11.367  17.103  69.263  0.00  0.00     0.036 H 
ATOM     80  N5  non d ame     -12.546  14.408  70.122  0.00  0.00    -0.049 N 
ATOM     81  H40 non d ame     -12.219  16.029  71.467  0.00  0.00     0.075 H 
ATOM     82  H41 non d ame     -13.077  16.451  69.839  0.00  0.00     0.075 H 
ATOM     83  C28 non d ame     -11.464  14.005  68.994  0.00  0.00     0.193 C 
ATOM     84  H42 non d ame     -12.314  13.923  70.978  0.00  0.00     0.280 HD
ATOM     85  H43 non d ame     -13.471  14.320  69.727  0.00  0.00     0.280 HD
ATOM     86  H44 non d ame     -11.772  13.862  67.958  0.00  0.00     0.129 H 
ATOM     87  H37 non d ame     -10.782  15.142  67.789  0.00  0.00     0.046 H 
BRANCH  83  88
ATOM     88  O6  non d ame     -10.793  12.798  69.363  0.00  0.00    -0.369 OA
ATOM     89  H45 non d ame     -11.442  12.123  69.573  0.00  0.00     0.212 HD
ENDBRANCH  83  88
ENDBRANCH  72  75
ENDBRANCH  47  72
ENDBRANCH  45  47
ENDBRANCH   1  43
BRANCH   1  90
ATOM     90  C16 non d ame     -11.424  11.963  65.534  0.00  0.00    -0.035 C 
ATOM     91  H21 non d ame     -11.523  10.904  65.294  0.00  0.00     0.037 H 
ATOM     92  H22 non d ame     -11.446  12.290  66.574  0.00  0.00     0.037 H 
BRANCH  90  93
ATOM     93  C17 non d ame     -12.605  12.690  64.817  0.00  0.00    -0.059 C 
ATOM     94  H23 non d ame     -13.470  12.027  64.848  0.00  0.00     0.038 H 
BRANCH  93  95
ATOM     95  C18 non d ame     -12.999  14.022  65.533  0.00  0.00    -0.073 C 
ATOM     96  H24 non d ame     -12.132  14.681  65.576  0.00  0.00     0.028 H 
ATOM     97  H25 non d ame     -13.800  14.510  64.977  0.00  0.00     0.028 H 
ATOM     98  H26 non d ame     -13.340  13.802  66.545  0.00  0.00     0.028 H 
ENDBRANCH  93  95
BRANCH  93  99
ATOM     99  C19 non d ame     -12.278  12.941  63.342  0.00  0.00    -0.073 C 
ATOM    100  H27 non d ame     -11.236  13.248  63.248  0.00  0.00     0.028 H 
ATOM    101  H28 non d ame     -12.440  12.025  62.774  0.00  0.00     0.028 H 
ATOM    102  H29 non d ame     -12.925  13.728  62.955  0.00  0.00     0.028 H 
ENDBRANCH  93  99
ENDBRANCH  90  93
ENDBRANCH   1  90
TORSDOF 26
ENDMDL
MODEL 3
REMARK VINA RESULT:      -6.3      3.278      6.080
REMARK  26 active torsions:
REMARK  status: ('A' for Active; 'I' for Inactive)
REMARK    1  A    between atoms: C2_2  and  C3_3 
REMARK    2  A    between atoms: C4_6  and  C5_7 
REMARK       I    between atoms: C5_7  and  N2_9 
REMARK    3  A    between atoms: N2_9  and  C6_10 
REMARK    4  A    between atoms: C6_10  and  C7_11 
REMARK    5  A    between atoms: C6_10  and  C8_13 
REMARK       I    between atoms: C7_11  and  N3_14 
REMARK    6  A    between atoms: N3_14  and  C9_15 
REMARK    7  A    between atoms: C9_15  and  C10_16 
REMARK    8  A    between atoms: C9_15  and  C11_18 
REMARK       I    between atoms: C10_16  and  N4_21 
REMARK    9  A    between atoms: C11_18  and  C12_19 
REMARK   10  A    between atoms: C11_18  and  C13_20 
REMARK   11  A    between atoms: N4_21  and  C14_22 
REMARK   12  A    between atoms: C14_22  and  C15_23 
REMARK   13  A    between atoms: C14_22  and  C16_25 
REMARK       I    between atoms: C15_23  and  N6_40 
REMARK   14  A    between atoms: C16_25  and  C17_26 
REMARK   15  A    between atoms: C17_26  and  C18_27 
REMARK   16  A    between atoms: C17_26  and  C19_28 
REMARK   17  A    between atoms: C20_29  and  C21_30 
REMARK   18  A    between atoms: C20_29  and  C24_33 
REMARK   19  A    between atoms: C20_29  and  N6_40 
REMARK   20  A    between atoms: C21_30  and  C22_31 
REMARK   21  A    between atoms: C22_31  and  C23_32 
REMARK   22  A    between atoms: C23_32  and  O8_43 
REMARK   23  A    between atoms: C24_33  and  C25_34 
REMARK   24  A    between atoms: C28_38  and  O6_39 
REMARK   25  A    between atoms: C29_42  and  O8_43 
REMARK   26  A    between atoms: C29_42  and  C35_49 
ROOT
ATOM      1  C14 non d ame      -7.359   9.567  67.053  0.00  0.00     0.089 C 
ATOM      2  H20 non d ame      -7.190   8.842  66.257  0.00  0.00     0.087 H 
ENDROOT
BRANCH   1   3
ATOM      3  N4  non d ame      -8.434  10.448  66.623  0.00  0.00    -0.346 N 
ATOM      4  C10 non d ame      -9.549   9.921  65.754  0.00  0.00     0.241 C 
ATOM      5  O4  non d ame      -9.557   8.785  65.412  0.00  0.00    -0.271 OA
ATOM      6  H19 non d ame      -8.408  11.412  66.923  0.00  0.00     0.163 HD
BRANCH   4   7
ATOM      7  C9  non d ame     -10.657  10.845  65.323  0.00  0.00     0.092 C 
ATOM      8  H11 non d ame     -11.610  10.451  65.675  0.00  0.00     0.088 H 
BRANCH   7   9
ATOM      9  N3  non d ame     -10.473  12.157  65.951  0.00  0.00    -0.346 N 
ATOM     10  C7  non d ame     -11.345  12.573  67.022  0.00  0.00     0.240 C 
ATOM     11  O3  non d ame     -12.202  11.865  67.389  0.00  0.00    -0.271 OA
ATOM     12  H10 non d ame      -9.739  12.779  65.644  0.00  0.00     0.163 HD
BRANCH  10  13
ATOM     13  C6  non d ame     -11.146  13.971  67.684  0.00  0.00     0.086 C 
ATOM     14  H6  non d ame     -11.794  14.736  67.257  0.00  0.00     0.086 H 
BRANCH  13  15
ATOM     15  N2  non d ame     -11.486  13.878  69.094  0.00  0.00    -0.343 N 
ATOM     16  C5  non d ame     -11.986  15.062  69.795  0.00  0.00     0.273 C 
ATOM     17  O2  non d ame     -12.108  16.086  69.217  0.00  0.00    -0.266 OA
ATOM     18  H5  non d ame     -11.376  13.000  69.581  0.00  0.00     0.163 HD
BRANCH  16  19
ATOM     19  C4  non d ame     -12.351  14.978  71.286  0.00  0.00     0.154 A 
ATOM     20  C1  non d ame     -12.012  15.914  72.313  0.00  0.00    -0.017 A 
ATOM     21  C2  non d ame     -12.578  15.380  73.492  0.00  0.00     0.077 A 
ATOM     22  H1  non d ame     -11.443  16.839  72.218  0.00  0.00     0.091 H 
ATOM     23  O1  non d ame     -13.172  14.269  73.169  0.00  0.00    -0.218 OA
ATOM     24  N1  non d ame     -13.052  14.012  71.886  0.00  0.00    -0.123 NA
BRANCH  21  25
ATOM     25  C3  non d ame     -12.508  15.994  74.884  0.00  0.00    -0.029 C 
ATOM     26  H2  non d ame     -12.269  15.219  75.613  0.00  0.00     0.036 H 
ATOM     27  H3  non d ame     -11.734  16.762  74.904  0.00  0.00     0.036 H 
ATOM     28  H4  non d ame     -13.470  16.442  75.134  0.00  0.00     0.036 H 
ENDBRANCH  21  25
ENDBRANCH  16  19
ENDBRANCH  13  15
BRANCH  13  29
ATOM     29  C8  non d ame      -9.710  14.405  67.527  0.00  0.00    -0.049 C 
ATOM     30  H7  non d ame      -9.355  14.130  66.533  0.00  0.00     0.030 H 
ATOM     31  H8  non d ame      -9.641  15.485  67.652  0.00  0.00     0.030 H 
ATOM     32  H9  non d ame      -9.097  13.911  68.280  0.00  0.00     0.030 H 
ENDBRANCH  13  29
ENDBRANCH  10  13
ENDBRANCH   7   9
BRANCH   7  33
ATOM     33  C11 non d ame     -10.626  11.005  63.775  0.00  0.00    -0.033 C 
ATOM     34  H12 non d ame     -10.881  10.039  63.339  0.00  0.00     0.042 H 
BRANCH  33  35
ATOM     35  C12 non d ame     -11.692  12.036  63.288  0.00  0.00    -0.071 C 
ATOM     36  H13 non d ame     -11.253  12.681  62.527  0.00  0.00     0.028 H 
ATOM     37  H14 non d ame     -12.544  11.504  62.865  0.00  0.00     0.028 H 
ATOM     38  H15 non d ame     -12.024  12.641  64.131  0.00  0.00     0.028 H 
ENDBRANCH  33  35
BRANCH  33  39
ATOM     39  C13 non d ame      -9.195  11.395  63.282  0.00  0.00    -0.071 C 
ATOM     40  H16 non d ame      -8.584  11.687  64.135  0.00  0.00     0.028 H 
ATOM     41  H17 non d ame      -8.738  10.541  62.782  0.00  0.00     0.028 H 
ATOM     42  H18 non d ame      -9.267  12.230  62.584  0.00  0.00     0.028 H 
ENDBRANCH  33  39
ENDBRANCH   7  33
ENDBRANCH   4   7
ENDBRANCH   1   3
BRANCH   1  43
ATOM     43  C15 non d ame      -7.779   8.888  68.388  0.00  0.00     0.240 C 
ATOM     44  O5  non d ame      -7.284   9.238  69.410  0.00  0.00    -0.271 OA
ATOM     45  N6  non d ame      -8.805   7.807  68.393  0.00  0.00    -0.355 N 
ATOM     46  H46 non d ame      -9.236   7.505  67.531  0.00  0.00     0.162 HD
BRANCH  45  47
ATOM     47  C20 non d ame      -9.194   7.172  69.670  0.00  0.00     0.013 C 
ATOM     48  H30 non d ame      -8.545   7.565  70.452  0.00  0.00     0.072 H 
BRANCH  47  49
ATOM     49  C21 non d ame      -9.019   5.674  69.558  0.00  0.00    -0.038 C 
ATOM     50  H31 non d ame      -8.022   5.525  69.142  0.00  0.00     0.036 H 
ATOM     51  H32 non d ame      -9.265   5.275  70.542  0.00  0.00     0.036 H 
BRANCH  49  52
ATOM     52  C22 non d ame     -10.008   5.028  68.564  0.00  0.00     0.018 C 
ATOM     53  H33 non d ame     -10.764   4.537  69.177  0.00  0.00     0.048 H 
ATOM     54  H34 non d ame     -10.297   5.822  67.876  0.00  0.00     0.048 H 
BRANCH  52  55
ATOM     55  C23 non d ame      -9.375   3.911  67.688  0.00  0.00     0.259 C 
ATOM     56  O7  non d ame      -9.246   2.810  68.115  0.00  0.00    -0.265 OA
BRANCH  55  57
ATOM     57  O8  non d ame      -8.939   4.222  66.370  0.00  0.00    -0.317 OA
BRANCH  57  58
ATOM     58  C29 non d ame      -7.564   4.605  66.287  0.00  0.00     0.052 C 
ATOM     59  H47 non d ame      -7.347   5.131  67.217  0.00  0.00     0.082 H 
ATOM     60  H48 non d ame      -7.019   3.695  66.037  0.00  0.00     0.082 H 
BRANCH  58  61
ATOM     61  C35 non d ame      -7.415   5.606  65.111  0.00  0.00    -0.034 A 
ATOM     62  C30 non d ame      -8.245   5.502  63.999  0.00  0.00    -0.075 A 
ATOM     63  C31 non d ame      -8.111   6.401  62.942  0.00  0.00    -0.082 A 
ATOM     64  H49 non d ame      -9.000   4.717  63.956  0.00  0.00     0.084 H 
ATOM     65  C32 non d ame      -7.141   7.405  62.998  0.00  0.00    -0.083 A 
ATOM     66  H50 non d ame      -8.764   6.318  62.073  0.00  0.00     0.083 H 
ATOM     67  C33 non d ame      -6.313   7.503  64.108  0.00  0.00    -0.082 A 
ATOM     68  H51 non d ame      -7.030   8.112  62.176  0.00  0.00     0.083 H 
ATOM     69  C34 non d ame      -6.444   6.608  65.168  0.00  0.00    -0.075 A 
ATOM     70  H52 non d ame      -5.556   8.286  64.148  0.00  0.00     0.083 H 
ATOM     71  H53 non d ame      -5.791   6.691  66.037  0.00  0.00     0.084 H 
ENDBRANCH  58  61
ENDBRANCH  57  58
ENDBRANCH  55  57
ENDBRANCH  52  55
ENDBRANCH  49  52
ENDBRANCH  47  49
BRANCH  47  72
ATOM     72  C24 non d ame     -10.655   7.492  69.982  0.00  0.00    -0.039 C 
ATOM     73  H35 non d ame     -11.160   7.510  69.017  0.00  0.00     0.036 H 
ATOM     74  H36 non d ame     -10.955   6.769  70.741  0.00  0.00     0.036 H 
BRANCH  72  75
ATOM     75  C25 non d ame     -10.817   8.950  70.627  0.00  0.00    -0.001 C 
ATOM     76  C26 non d ame     -11.880   8.892  71.880  0.00  0.00    -0.035 C 
ATOM     77  C27 non d ame     -12.814   9.858  71.704  0.00  0.00     0.085 C 
ATOM     78  H38 non d ame     -12.457   7.969  71.839  0.00  0.00     0.036 H 
ATOM     79  H39 non d ame     -11.384   9.184  72.806  0.00  0.00     0.036 H 
ATOM     80  N5  non d ame     -12.676  10.352  70.285  0.00  0.00    -0.049 N 
ATOM     81  H40 non d ame     -13.777   9.356  71.814  0.00  0.00     0.075 H 
ATOM     82  H41 non d ame     -12.537  10.659  72.388  0.00  0.00     0.075 H 
ATOM     83  C28 non d ame     -11.254   9.799  69.758  0.00  0.00     0.193 C 
ATOM     84  H42 non d ame     -13.411   9.907  69.754  0.00  0.00     0.280 HD
ATOM     85  H43 non d ame     -12.630  11.360  70.336  0.00  0.00     0.280 HD
ATOM     86  H44 non d ame     -10.394  10.465  69.683  0.00  0.00     0.129 H 
ATOM     87  H37 non d ame      -9.855   9.428  70.814  0.00  0.00     0.046 H 
BRANCH  83  88
ATOM     88  O6  non d ame     -11.401   9.217  68.462  0.00  0.00    -0.369 OA
ATOM     89  H45 non d ame     -11.116   9.846  67.795  0.00  0.00     0.212 HD
ENDBRANCH  83  88
ENDBRANCH  72  75
ENDBRANCH  47  72
ENDBRANCH  45  47
ENDBRANCH   1  43
BRANCH   1  90
ATOM     90  C16 non d ame      -6.100  10.392  67.273  0.00  0.00    -0.035 C 
ATOM     91  H21 non d ame      -6.318  11.371  66.844  0.00  0.00     0.037 H 
ATOM     92  H22 non d ame      -5.877  10.300  68.336  0.00  0.00     0.037 H 
BRANCH  90  93
ATOM     93  C17 non d ame      -4.852   9.845  66.511  0.00  0.00    -0.059 C 
ATOM     94  H23 non d ame      -5.204   9.374  65.593  0.00  0.00     0.038 H 
BRANCH  93  95
ATOM     95  C18 non d ame      -3.859  10.983  66.112  0.00  0.00    -0.073 C 
ATOM     96  H24 non d ame      -3.076  10.575  65.473  0.00  0.00     0.028 H 
ATOM     97  H25 non d ame      -4.398  11.763  65.573  0.00  0.00     0.028 H 
ATOM     98  H26 non d ame      -3.411  11.407  67.011  0.00  0.00     0.028 H 
ENDBRANCH  93  95
BRANCH  93  99
ATOM     99  C19 non d ame      -4.141   8.765  67.331  0.00  0.00    -0.073 C 
ATOM    100  H27 non d ame      -3.532   8.148  66.670  0.00  0.00     0.028 H 
ATOM    101  H28 non d ame      -3.501   9.238  68.077  0.00  0.00     0.028 H 
ATOM    102  H29 non d ame      -4.882   8.142  67.831  0.00  0.00     0.028 H 
ENDBRANCH  93  99
ENDBRANCH  90  93
ENDBRANCH   1  90
TORSDOF 26
ENDMDL
MODEL 4
REMARK VINA RESULT:      -6.3      3.039      5.350
REMARK  26 active torsions:
REMARK  status: ('A' for Active; 'I' for Inactive)
REMARK    1  A    between atoms: C2_2  and  C3_3 
REMARK    2  A    between atoms: C4_6  and  C5_7 
REMARK       I    between atoms: C5_7  and  N2_9 
REMARK    3  A    between atoms: N2_9  and  C6_10 
REMARK    4  A    between atoms: C6_10  and  C7_11 
REMARK    5  A    between atoms: C6_10  and  C8_13 
REMARK       I    between atoms: C7_11  and  N3_14 
REMARK    6  A    between atoms: N3_14  and  C9_15 
REMARK    7  A    between atoms: C9_15  and  C10_16 
REMARK    8  A    between atoms: C9_15  and  C11_18 
REMARK       I    between atoms: C10_16  and  N4_21 
REMARK    9  A    between atoms: C11_18  and  C12_19 
REMARK   10  A    between atoms: C11_18  and  C13_20 
REMARK   11  A    between atoms: N4_21  and  C14_22 
REMARK   12  A    between atoms: C14_22  and  C15_23 
REMARK   13  A    between atoms: C14_22  and  C16_25 
REMARK       I    between atoms: C15_23  and  N6_40 
REMARK   14  A    between atoms: C16_25  and  C17_26 
REMARK   15  A    between atoms: C17_26  and  C18_27 
REMARK   16  A    between atoms: C17_26  and  C19_28 
REMARK   17  A    between atoms: C20_29  and  C21_30 
REMARK   18  A    between atoms: C20_29  and  C24_33 
REMARK   19  A    between atoms: C20_29  and  N6_40 
REMARK   20  A    between atoms: C21_30  and  C22_31 
REMARK   21  A    between atoms: C22_31  and  C23_32 
REMARK   22  A    between atoms: C23_32  and  O8_43 
REMARK   23  A    between atoms: C24_33  and  C25_34 
REMARK   24  A    between atoms: C28_38  and  O6_39 
REMARK   25  A    between atoms: C29_42  and  O8_43 
REMARK   26  A    between atoms: C29_42  and  C35_49 
ROOT
ATOM      1  C14 non d ame      -7.354   9.944  64.793  0.00  0.00     0.089 C 
ATOM      2  H20 non d ame      -7.803   8.951  64.815  0.00  0.00     0.087 H 
ENDROOT
BRANCH   1   3
ATOM      3  N4  non d ame      -8.437  10.916  64.838  0.00  0.00    -0.346 N 
ATOM      4  C10 non d ame      -9.715  10.598  65.572  0.00  0.00     0.241 C 
ATOM      5  O4  non d ame      -9.850   9.552  66.117  0.00  0.00    -0.271 OA
ATOM      6  H19 non d ame      -8.303  11.799  64.366  0.00  0.00     0.163 HD
BRANCH   4   7
ATOM      7  C9  non d ame     -10.823  11.617  65.613  0.00  0.00     0.092 C 
ATOM      8  H11 non d ame     -11.773  11.107  65.773  0.00  0.00     0.088 H 
BRANCH   7   9
ATOM      9  N3  non d ame     -10.617  12.517  66.752  0.00  0.00    -0.346 N 
ATOM     10  C7  non d ame     -11.358  12.316  67.973  0.00  0.00     0.240 C 
ATOM     11  O3  non d ame     -12.124  11.435  68.056  0.00  0.00    -0.271 OA
ATOM     12  H10 non d ame      -9.961  13.283  66.694  0.00  0.00     0.163 HD
BRANCH  10  13
ATOM     13  C6  non d ame     -11.137  13.279  69.180  0.00  0.00     0.086 C 
ATOM     14  H6  non d ame     -10.166  13.142  69.656  0.00  0.00     0.086 H 
BRANCH  13  15
ATOM     15  N2  non d ame     -11.176  14.651  68.702  0.00  0.00    -0.343 N 
ATOM     16  C5  non d ame     -10.015  15.519  68.906  0.00  0.00     0.273 C 
ATOM     17  O2  non d ame      -9.055  15.106  69.459  0.00  0.00    -0.266 OA
ATOM     18  H5  non d ame     -12.001  14.997  68.233  0.00  0.00     0.163 HD
BRANCH  16  19
ATOM     19  C4  non d ame     -10.041  16.971  68.404  0.00  0.00     0.154 A 
ATOM     20  C1  non d ame      -8.919  17.834  68.193  0.00  0.00    -0.017 A 
ATOM     21  C2  non d ame      -9.476  19.048  67.732  0.00  0.00     0.077 A 
ATOM     22  H1  non d ame      -7.863  17.613  68.350  0.00  0.00     0.091 H 
ATOM     23  O1  non d ame     -10.766  18.890  67.686  0.00  0.00    -0.218 OA
ATOM     24  N1  non d ame     -11.120  17.687  68.074  0.00  0.00    -0.123 NA
BRANCH  21  25
ATOM     25  C3  non d ame      -8.706  20.308  67.357  0.00  0.00    -0.029 C 
ATOM     26  H2  non d ame      -7.670  20.211  67.680  0.00  0.00     0.036 H 
ATOM     27  H3  non d ame      -8.738  20.444  66.276  0.00  0.00     0.036 H 
ATOM     28  H4  non d ame      -9.160  21.170  67.845  0.00  0.00     0.036 H 
ENDBRANCH  21  25
ENDBRANCH  16  19
ENDBRANCH  13  15
BRANCH  13  29
ATOM     29  C8  non d ame     -12.219  13.059  70.207  0.00  0.00    -0.049 C 
ATOM     30  H7  non d ame     -12.693  14.011  70.446  0.00  0.00     0.030 H 
ATOM     31  H8  non d ame     -12.965  12.372  69.807  0.00  0.00     0.030 H 
ATOM     32  H9  non d ame     -11.781  12.635  71.110  0.00  0.00     0.030 H 
ENDBRANCH  13  29
ENDBRANCH  10  13
ENDBRANCH   7   9
BRANCH   7  33
ATOM     33  C11 non d ame     -10.817  12.444  64.294  0.00  0.00    -0.033 C 
ATOM     34  H12 non d ame      -9.968  12.106  63.699  0.00  0.00     0.042 H 
BRANCH  33  35
ATOM     35  C12 non d ame     -12.109  12.188  63.457  0.00  0.00    -0.071 C 
ATOM     36  H13 non d ame     -12.895  11.807  64.109  0.00  0.00     0.028 H 
ATOM     37  H14 non d ame     -12.436  13.121  63.000  0.00  0.00     0.028 H 
ATOM     38  H15 non d ame     -11.897  11.456  62.677  0.00  0.00     0.028 H 
ENDBRANCH  33  35
BRANCH  33  39
ATOM     39  C13 non d ame     -10.626  13.966  64.589  0.00  0.00    -0.071 C 
ATOM     40  H16 non d ame     -11.352  14.541  64.015  0.00  0.00     0.028 H 
ATOM     41  H17 non d ame     -10.774  14.152  65.653  0.00  0.00     0.028 H 
ATOM     42  H18 non d ame      -9.617  14.267  64.305  0.00  0.00     0.028 H 
ENDBRANCH  33  39
ENDBRANCH   7  33
ENDBRANCH   4   7
ENDBRANCH   1   3
BRANCH   1  43
ATOM     43  C15 non d ame      -6.415  10.192  66.008  0.00  0.00     0.240 C 
ATOM     44  O5  non d ame      -5.262  10.414  65.828  0.00  0.00    -0.271 OA
ATOM     45  N6  non d ame      -6.957  10.162  67.397  0.00  0.00    -0.355 N 
ATOM     46  H46 non d ame      -7.936   9.980  67.562  0.00  0.00     0.162 HD
BRANCH  45  47
ATOM     47  C20 non d ame      -6.052  10.401  68.542  0.00  0.00     0.013 C 
ATOM     48  H30 non d ame      -5.026  10.339  68.177  0.00  0.00     0.072 H 
BRANCH  47  49
ATOM     49  C21 non d ame      -6.290   9.344  69.596  0.00  0.00    -0.038 C 
ATOM     50  H31 non d ame      -5.473   8.630  69.487  0.00  0.00     0.036 H 
ATOM     51  H32 non d ame      -6.419   9.887  70.533  0.00  0.00     0.036 H 
BRANCH  49  52
ATOM     52  C22 non d ame      -7.595   8.552  69.367  0.00  0.00     0.018 C 
ATOM     53  H33 non d ame      -7.763   8.565  68.289  0.00  0.00     0.048 H 
ATOM     54  H34 non d ame      -7.460   7.603  69.886  0.00  0.00     0.048 H 
BRANCH  52  55
ATOM     55  C23 non d ame      -8.849   9.214  70.003  0.00  0.00     0.259 C 
ATOM     56  O7  non d ame      -9.375  10.140  69.477  0.00  0.00    -0.265 OA
BRANCH  55  57
ATOM     57  O8  non d ame      -9.356   8.707  71.232  0.00  0.00    -0.317 OA
BRANCH  57  58
ATOM     58  C29 non d ame     -10.151   7.527  71.092  0.00  0.00     0.052 C 
ATOM     59  H47 non d ame     -10.071   7.240  70.043  0.00  0.00     0.082 H 
ATOM     60  H48 non d ame      -9.809   6.846  71.870  0.00  0.00     0.082 H 
BRANCH  58  61
ATOM     61  C35 non d ame     -11.627   7.906  71.385  0.00  0.00    -0.034 A 
ATOM     62  C30 non d ame     -12.624   6.938  71.307  0.00  0.00    -0.075 A 
ATOM     63  C31 non d ame     -13.950   7.278  71.571  0.00  0.00    -0.082 A 
ATOM     64  H49 non d ame     -12.366   5.913  71.040  0.00  0.00     0.084 H 
ATOM     65  C32 non d ame     -14.278   8.593  71.912  0.00  0.00    -0.083 A 
ATOM     66  H50 non d ame     -14.728   6.517  71.511  0.00  0.00     0.083 H 
ATOM     67  C33 non d ame     -13.281   9.556  71.985  0.00  0.00    -0.082 A 
ATOM     68  H51 non d ame     -15.312   8.867  72.120  0.00  0.00     0.083 H 
ATOM     69  C34 non d ame     -11.954   9.220  71.725  0.00  0.00    -0.075 A 
ATOM     70  H52 non d ame     -13.541  10.581  72.249  0.00  0.00     0.083 H 
ATOM     71  H53 non d ame     -11.176   9.982  71.786  0.00  0.00     0.084 H 
ENDBRANCH  58  61
ENDBRANCH  57  58
ENDBRANCH  55  57
ENDBRANCH  52  55
ENDBRANCH  49  52
ENDBRANCH  47  49
BRANCH  47  72
ATOM     72  C24 non d ame      -6.322  11.783  69.134  0.00  0.00    -0.039 C 
ATOM     73  H35 non d ame      -7.397  11.936  69.035  0.00  0.00     0.036 H 
ATOM     74  H36 non d ame      -5.863  11.769  70.123  0.00  0.00     0.036 H 
BRANCH  72  75
ATOM     75  C25 non d ame      -5.600  12.940  68.294  0.00  0.00    -0.001 C 
ATOM     76  C26 non d ame      -4.822  13.969  69.313  0.00  0.00    -0.035 C 
ATOM     77  C27 non d ame      -5.195  15.238  69.020  0.00  0.00     0.085 C 
ATOM     78  H38 non d ame      -5.180  13.828  70.332  0.00  0.00     0.036 H 
ATOM     79  H39 non d ame      -3.752  13.964  69.105  0.00  0.00     0.036 H 
ATOM     80  N5  non d ame      -6.400  15.146  68.115  0.00  0.00    -0.049 N 
ATOM     81  H40 non d ame      -5.496  15.680  69.970  0.00  0.00     0.075 H 
ATOM     82  H41 non d ame      -4.363  15.664  68.460  0.00  0.00     0.075 H 
ATOM     83  C28 non d ame      -6.454  13.617  67.601  0.00  0.00     0.193 C 
ATOM     84  H42 non d ame      -7.208  15.319  68.697  0.00  0.00     0.280 HD
ATOM     85  H43 non d ame      -6.210  15.745  67.324  0.00  0.00     0.280 HD
ATOM     86  H44 non d ame      -6.137  13.361  66.590  0.00  0.00     0.129 H 
ATOM     87  H37 non d ame      -5.027  12.544  67.455  0.00  0.00     0.046 H 
BRANCH  83  88
ATOM     88  O6  non d ame      -7.780  13.101  67.728  0.00  0.00    -0.369 OA
ATOM     89  H45 non d ame      -8.240  13.568  68.429  0.00  0.00     0.212 HD
ENDBRANCH  83  88
ENDBRANCH  72  75
ENDBRANCH  47  72
ENDBRANCH  45  47
ENDBRANCH   1  43
BRANCH   1  90
ATOM     90  C16 non d ame      -6.576  10.129  63.500  0.00  0.00    -0.035 C 
ATOM     91  H21 non d ame      -6.695  11.181  63.238  0.00  0.00     0.037 H 
ATOM     92  H22 non d ame      -5.582   9.727  63.701  0.00  0.00     0.037 H 
BRANCH  90  93
ATOM     93  C17 non d ame      -7.149   9.308  62.301  0.00  0.00    -0.059 C 
ATOM     94  H23 non d ame      -6.312   8.816  61.807  0.00  0.00     0.038 H 
BRANCH  93  95
ATOM     95  C18 non d ame      -8.145   8.199  62.769  0.00  0.00    -0.073 C 
ATOM     96  H24 non d ame      -7.748   7.219  62.503  0.00  0.00     0.028 H 
ATOM     97  H25 non d ame      -8.273   8.258  63.850  0.00  0.00     0.028 H 
ATOM     98  H26 non d ame      -9.108   8.346  62.280  0.00  0.00     0.028 H 
ENDBRANCH  93  95
BRANCH  93  99
ATOM     99  C19 non d ame      -7.806  10.231  61.271  0.00  0.00    -0.073 C 
ATOM    100  H27 non d ame      -7.650   9.828  60.270  0.00  0.00     0.028 H 
ATOM    101  H28 non d ame      -8.876  10.297  61.474  0.00  0.00     0.028 H 
ATOM    102  H29 non d ame      -7.362  11.224  61.337  0.00  0.00     0.028 H 
ENDBRANCH  93  99
ENDBRANCH  90  93
ENDBRANCH   1  90
TORSDOF 26
ENDMDL
MODEL 5
REMARK VINA RESULT:      -6.3      2.581      8.732
REMARK  26 active torsions:
REMARK  status: ('A' for Active; 'I' for Inactive)
REMARK    1  A    between atoms: C2_2  and  C3_3 
REMARK    2  A    between atoms: C4_6  and  C5_7 
REMARK       I    between atoms: C5_7  and  N2_9 
REMARK    3  A    between atoms: N2_9  and  C6_10 
REMARK    4  A    between atoms: C6_10  and  C7_11 
REMARK    5  A    between atoms: C6_10  and  C8_13 
REMARK       I    between atoms: C7_11  and  N3_14 
REMARK    6  A    between atoms: N3_14  and  C9_15 
REMARK    7  A    between atoms: C9_15  and  C10_16 
REMARK    8  A    between atoms: C9_15  and  C11_18 
REMARK       I    between atoms: C10_16  and  N4_21 
REMARK    9  A    between atoms: C11_18  and  C12_19 
REMARK   10  A    between atoms: C11_18  and  C13_20 
REMARK   11  A    between atoms: N4_21  and  C14_22 
REMARK   12  A    between atoms: C14_22  and  C15_23 
REMARK   13  A    between atoms: C14_22  and  C16_25 
REMARK       I    between atoms: C15_23  and  N6_40 
REMARK   14  A    between atoms: C16_25  and  C17_26 
REMARK   15  A    between atoms: C17_26  and  C18_27 
REMARK   16  A    between atoms: C17_26  and  C19_28 
REMARK   17  A    between atoms: C20_29  and  C21_30 
REMARK   18  A    between atoms: C20_29  and  C24_33 
REMARK   19  A    between atoms: C20_29  and  N6_40 
REMARK   20  A    between atoms: C21_30  and  C22_31 
REMARK   21  A    between atoms: C22_31  and  C23_32 
REMARK   22  A    between atoms: C23_32  and  O8_43 
REMARK   23  A    between atoms: C24_33  and  C25_34 
REMARK   24  A    between atoms: C28_38  and  O6_39 
REMARK   25  A    between atoms: C29_42  and  O8_43 
REMARK   26  A    between atoms: C29_42  and  C35_49 
ROOT
ATOM      1  C14 non d ame      -8.118   9.827  64.522  0.00  0.00     0.089 C 
ATOM      2  H20 non d ame      -7.314  10.564  64.505  0.00  0.00     0.087 H 
ENDROOT
BRANCH   1   3
ATOM      3  N4  non d ame      -8.093   9.182  65.826  0.00  0.00    -0.346 N 
ATOM      4  C10 non d ame      -7.399   9.843  66.990  0.00  0.00     0.241 C 
ATOM      5  O4  non d ame      -6.864  10.894  66.852  0.00  0.00    -0.271 OA
ATOM      6  H19 non d ame      -8.551   8.287  65.922  0.00  0.00     0.163 HD
BRANCH   4   7
ATOM      7  C9  non d ame      -7.388   9.164  68.334  0.00  0.00     0.092 C 
ATOM      8  H11 non d ame      -8.289   9.438  68.882  0.00  0.00     0.088 H 
BRANCH   7   9
ATOM      9  N3  non d ame      -7.419   7.710  68.148  0.00  0.00    -0.346 N 
ATOM     10  C7  non d ame      -8.464   6.928  68.761  0.00  0.00     0.240 C 
ATOM     11  O3  non d ame      -9.286   7.451  69.409  0.00  0.00    -0.271 OA
ATOM     12  H10 non d ame      -6.716   7.244  67.593  0.00  0.00     0.163 HD
BRANCH  10  13
ATOM     13  C6  non d ame      -8.491   5.380  68.562  0.00  0.00     0.086 C 
ATOM     14  H6  non d ame      -9.409   4.924  68.930  0.00  0.00     0.086 H 
BRANCH  13  15
ATOM     15  N2  non d ame      -8.423   5.087  67.140  0.00  0.00    -0.343 N 
ATOM     16  C5  non d ame      -9.662   4.965  66.368  0.00  0.00     0.273 C 
ATOM     17  O2  non d ame     -10.708   5.101  66.901  0.00  0.00    -0.266 OA
ATOM     18  H5  non d ame      -7.525   4.970  66.693  0.00  0.00     0.163 HD
BRANCH  16  19
ATOM     19  C4  non d ame      -9.605   4.657  64.864  0.00  0.00     0.154 A 
ATOM     20  C1  non d ame     -10.462   3.779  64.128  0.00  0.00    -0.017 A 
ATOM     21  C2  non d ame      -9.996   3.848  62.796  0.00  0.00     0.077 A 
ATOM     22  H1  non d ame     -11.295   3.183  64.502  0.00  0.00     0.091 H 
ATOM     23  O1  non d ame      -8.990   4.673  62.780  0.00  0.00    -0.218 OA
ATOM     24  N1  non d ame      -8.742   5.157  63.975  0.00  0.00    -0.123 NA
BRANCH  21  25
ATOM     25  C3  non d ame     -10.567   3.097  61.601  0.00  0.00    -0.029 C 
ATOM     26  H2  non d ame     -10.050   3.409  60.693  0.00  0.00     0.036 H 
ATOM     27  H3  non d ame     -10.431   2.025  61.746  0.00  0.00     0.036 H 
ATOM     28  H4  non d ame     -11.631   3.317  61.507  0.00  0.00     0.036 H 
ENDBRANCH  21  25
ENDBRANCH  16  19
ENDBRANCH  13  15
BRANCH  13  29
ATOM     29  C8  non d ame      -7.317   4.759  69.274  0.00  0.00    -0.049 C 
ATOM     30  H7  non d ame      -7.052   3.820  68.788  0.00  0.00     0.030 H 
ATOM     31  H8  non d ame      -6.467   5.440  69.237  0.00  0.00     0.030 H 
ATOM     32  H9  non d ame      -7.584   4.566  70.313  0.00  0.00     0.030 H 
ENDBRANCH  13  29
ENDBRANCH  10  13
ENDBRANCH   7   9
BRANCH   7  33
ATOM     33  C11 non d ame      -6.092   9.557  69.103  0.00  0.00    -0.033 C 
ATOM     34  H12 non d ame      -5.785  10.541  68.749  0.00  0.00     0.042 H 
BRANCH  33  35
ATOM     35  C12 non d ame      -6.355   9.672  70.637  0.00  0.00    -0.071 C 
ATOM     36  H13 non d ame      -7.363  10.051  70.806  0.00  0.00     0.028 H 
ATOM     37  H14 non d ame      -6.256   8.689  71.097  0.00  0.00     0.028 H 
ATOM     38  H15 non d ame      -5.631  10.356  71.079  0.00  0.00     0.028 H 
ENDBRANCH  33  35
BRANCH  33  39
ATOM     39  C13 non d ame      -4.935   8.552  68.801  0.00  0.00    -0.071 C 
ATOM     40  H16 non d ame      -4.160   8.650  69.560  0.00  0.00     0.028 H 
ATOM     41  H17 non d ame      -5.326   7.534  68.811  0.00  0.00     0.028 H 
ATOM     42  H18 non d ame      -4.513   8.769  67.820  0.00  0.00     0.028 H 
ENDBRANCH  33  39
ENDBRANCH   7  33
ENDBRANCH   4   7
ENDBRANCH   1   3
BRANCH   1  43
ATOM     43  C15 non d ame      -9.516  10.478  64.318  0.00  0.00     0.240 C 
ATOM     44  O5  non d ame     -10.147  10.228  63.342  0.00  0.00    -0.271 OA
ATOM     45  N6  non d ame     -10.071  11.407  65.343  0.00  0.00    -0.355 N 
ATOM     46  H46 non d ame      -9.546  11.623  66.178  0.00  0.00     0.162 HD
BRANCH  45  47
ATOM     47  C20 non d ame     -11.402  12.016  65.135  0.00  0.00     0.013 C 
ATOM     48  H30 non d ame     -12.036  11.279  64.643  0.00  0.00     0.072 H 
BRANCH  47  49
ATOM     49  C21 non d ame     -11.260  13.241  64.260  0.00  0.00    -0.038 C 
ATOM     50  H31 non d ame     -10.199  13.494  64.277  0.00  0.00     0.036 H 
ATOM     51  H32 non d ame     -11.745  12.988  63.318  0.00  0.00     0.036 H 
BRANCH  49  52
ATOM     52  C22 non d ame     -12.010  14.469  64.821  0.00  0.00     0.018 C 
ATOM     53  H33 non d ame     -12.933  14.540  64.246  0.00  0.00     0.048 H 
ATOM     54  H34 non d ame     -12.050  14.322  65.901  0.00  0.00     0.048 H 
BRANCH  52  55
ATOM     55  C23 non d ame     -11.263  15.814  64.600  0.00  0.00     0.259 C 
ATOM     56  O7  non d ame     -11.691  16.624  63.842  0.00  0.00    -0.265 OA
BRANCH  55  57
ATOM     57  O8  non d ame     -10.053  16.063  65.304  0.00  0.00    -0.317 OA
BRANCH  57  58
ATOM     58  C29 non d ame     -10.213  16.158  66.722  0.00  0.00     0.052 C 
ATOM     59  H47 non d ame     -11.232  15.828  66.927  0.00  0.00     0.082 H 
ATOM     60  H48 non d ame      -9.369  15.619  67.152  0.00  0.00     0.082 H 
BRANCH  58  61
ATOM     61  C35 non d ame     -10.093  17.654  67.119  0.00  0.00    -0.034 A 
ATOM     62  C30 non d ame     -10.286  18.646  66.162  0.00  0.00    -0.075 A 
ATOM     63  C31 non d ame     -10.178  19.989  66.518  0.00  0.00    -0.082 A 
ATOM     64  H49 non d ame     -10.521  18.370  65.134  0.00  0.00     0.084 H 
ATOM     65  C32 non d ame      -9.874  20.340  67.836  0.00  0.00    -0.083 A 
ATOM     66  H50 non d ame     -10.331  20.764  65.767  0.00  0.00     0.083 H 
ATOM     67  C33 non d ame      -9.679  19.347  68.786  0.00  0.00    -0.082 A 
ATOM     68  H51 non d ame      -9.788  21.388  68.123  0.00  0.00     0.083 H 
ATOM     69  C34 non d ame      -9.788  18.003  68.436  0.00  0.00    -0.075 A 
ATOM     70  H52 non d ame      -9.440  19.623  69.814  0.00  0.00     0.083 H 
ATOM     71  H53 non d ame      -9.636  17.228  69.188  0.00  0.00     0.084 H 
ENDBRANCH  58  61
ENDBRANCH  57  58
ENDBRANCH  55  57
ENDBRANCH  52  55
ENDBRANCH  49  52
ENDBRANCH  47  49
BRANCH  47  72
ATOM     72  C24 non d ame     -12.003  12.418  66.481  0.00  0.00    -0.039 C 
ATOM     73  H35 non d ame     -12.165  13.494  66.416  0.00  0.00     0.036 H 
ATOM     74  H36 non d ame     -12.848  11.747  66.633  0.00  0.00     0.036 H 
BRANCH  72  75
ATOM     75  C25 non d ame     -10.977  12.167  67.686  0.00  0.00    -0.001 C 
ATOM     76  C26 non d ame     -11.152  10.636  68.260  0.00  0.00    -0.035 C 
ATOM     77  C27 non d ame     -11.309  10.689  69.604  0.00  0.00     0.085 C 
ATOM     78  H38 non d ame     -12.093  10.211  67.910  0.00  0.00     0.036 H 
ATOM     79  H39 non d ame     -10.223  10.080  68.134  0.00  0.00     0.036 H 
ATOM     80  N5  non d ame     -11.585  12.130  69.960  0.00  0.00    -0.049 N 
ATOM     81  H40 non d ame     -12.198  10.094  69.817  0.00  0.00     0.075 H 
ATOM     82  H41 non d ame     -10.346  10.398  70.021  0.00  0.00     0.075 H 
ATOM     83  C28 non d ame     -11.184  12.993  68.656  0.00  0.00     0.193 C 
ATOM     84  H42 non d ame     -12.582  12.204  70.100  0.00  0.00     0.280 HD
ATOM     85  H43 non d ame     -10.950  12.366  70.709  0.00  0.00     0.280 HD
ATOM     86  H44 non d ame     -10.254  13.562  68.633  0.00  0.00     0.129 H 
ATOM     87  H37 non d ame      -9.966  12.492  67.442  0.00  0.00     0.046 H 
BRANCH  83  88
ATOM     88  O6  non d ame     -12.215  13.934  68.352  0.00  0.00    -0.369 OA
ATOM     89  H45 non d ame     -13.060  13.591  68.652  0.00  0.00     0.212 HD
ENDBRANCH  83  88
ENDBRANCH  72  75
ENDBRANCH  47  72
ENDBRANCH  45  47
ENDBRANCH   1  43
BRANCH   1  90
ATOM     90  C16 non d ame      -7.879   8.780  63.446  0.00  0.00    -0.035 C 
ATOM     91  H21 non d ame      -7.445   7.925  63.965  0.00  0.00     0.037 H 
ATOM     92  H22 non d ame      -8.833   8.676  62.928  0.00  0.00     0.037 H 
BRANCH  90  93
ATOM     93  C17 non d ame      -6.837   9.216  62.367  0.00  0.00    -0.059 C 
ATOM     94  H23 non d ame      -6.385   8.312  61.960  0.00  0.00     0.038 H 
BRANCH  93  95
ATOM     95  C18 non d ame      -7.502   9.991  61.184  0.00  0.00    -0.073 C 
ATOM     96  H24 non d ame      -6.796  10.718  60.785  0.00  0.00     0.028 H 
ATOM     97  H25 non d ame      -7.781   9.286  60.400  0.00  0.00     0.028 H 
ATOM     98  H26 non d ame      -8.393  10.507  61.543  0.00  0.00     0.028 H 
ENDBRANCH  93  95
BRANCH  93  99
ATOM     99  C19 non d ame      -5.713  10.043  62.996  0.00  0.00    -0.073 C 
ATOM    100  H27 non d ame      -5.525   9.689  64.010  0.00  0.00     0.028 H 
ATOM    101  H28 non d ame      -4.806   9.936  62.400  0.00  0.00     0.028 H 
ATOM    102  H29 non d ame      -6.006  11.092  63.026  0.00  0.00     0.028 H 
ENDBRANCH  93  99
ENDBRANCH  90  93
ENDBRANCH   1  90
TORSDOF 26
ENDMDL
MODEL 6
REMARK VINA RESULT:      -6.2      2.086      3.548
REMARK  26 active torsions:
REMARK  status: ('A' for Active; 'I' for Inactive)
REMARK    1  A    between atoms: C2_2  and  C3_3 
REMARK    2  A    between atoms: C4_6  and  C5_7 
REMARK       I    between atoms: C5_7  and  N2_9 
REMARK    3  A    between atoms: N2_9  and  C6_10 
REMARK    4  A    between atoms: C6_10  and  C7_11 
REMARK    5  A    between atoms: C6_10  and  C8_13 
REMARK       I    between atoms: C7_11  and  N3_14 
REMARK    6  A    between atoms: N3_14  and  C9_15 
REMARK    7  A    between atoms: C9_15  and  C10_16 
REMARK    8  A    between atoms: C9_15  and  C11_18 
REMARK       I    between atoms: C10_16  and  N4_21 
REMARK    9  A    between atoms: C11_18  and  C12_19 
REMARK   10  A    between atoms: C11_18  and  C13_20 
REMARK   11  A    between atoms: N4_21  and  C14_22 
REMARK   12  A    between atoms: C14_22  and  C15_23 
REMARK   13  A    between atoms: C14_22  and  C16_25 
REMARK       I    between atoms: C15_23  and  N6_40 
REMARK   14  A    between atoms: C16_25  and  C17_26 
REMARK   15  A    between atoms: C17_26  and  C18_27 
REMARK   16  A    between atoms: C17_26  and  C19_28 
REMARK   17  A    between atoms: C20_29  and  C21_30 
REMARK   18  A    between atoms: C20_29  and  C24_33 
REMARK   19  A    between atoms: C20_29  and  N6_40 
REMARK   20  A    between atoms: C21_30  and  C22_31 
REMARK   21  A    between atoms: C22_31  and  C23_32 
REMARK   22  A    between atoms: C23_32  and  O8_43 
REMARK   23  A    between atoms: C24_33  and  C25_34 
REMARK   24  A    between atoms: C28_38  and  O6_39 
REMARK   25  A    between atoms: C29_42  and  O8_43 
REMARK   26  A    between atoms: C29_42  and  C35_49 
ROOT
ATOM      1  C14 non d ame      -8.281   8.637  62.985  0.00  0.00     0.089 C 
ATOM      2  H20 non d ame      -9.139   8.916  62.373  0.00  0.00     0.087 H 
ENDROOT
BRANCH   1   3
ATOM      3  N4  non d ame      -8.413   9.321  64.263  0.00  0.00    -0.346 N 
ATOM      4  C10 non d ame      -9.559  10.270  64.504  0.00  0.00     0.241 C 
ATOM      5  O4  non d ame     -10.362  10.470  63.653  0.00  0.00    -0.271 OA
ATOM      6  H19 non d ame      -7.718   9.139  64.973  0.00  0.00     0.163 HD
BRANCH   4   7
ATOM      7  C9  non d ame      -9.683  10.965  65.834  0.00  0.00     0.092 C 
ATOM      8  H11 non d ame      -8.731  11.431  66.086  0.00  0.00     0.088 H 
BRANCH   7   9
ATOM      9  N3  non d ame     -10.678  12.038  65.735  0.00  0.00    -0.346 N 
ATOM     10  C7  non d ame     -10.307  13.395  66.054  0.00  0.00     0.240 C 
ATOM     11  O3  non d ame      -9.214  13.641  66.393  0.00  0.00    -0.271 OA
ATOM     12  H10 non d ame     -11.625  11.841  65.445  0.00  0.00     0.163 HD
BRANCH  10  13
ATOM     13  C6  non d ame     -11.370  14.533  65.949  0.00  0.00     0.086 C 
ATOM     14  H6  non d ame     -12.108  14.496  66.750  0.00  0.00     0.086 H 
BRANCH  13  15
ATOM     15  N2  non d ame     -10.699  15.817  66.060  0.00  0.00    -0.343 N 
ATOM     16  C5  non d ame     -10.784  16.569  67.314  0.00  0.00     0.273 C 
ATOM     17  O2  non d ame     -11.397  16.134  68.226  0.00  0.00    -0.266 OA
ATOM     18  H5  non d ame     -10.180  16.183  65.274  0.00  0.00     0.163 HD
BRANCH  16  19
ATOM     19  C4  non d ame     -10.078  17.928  67.446  0.00  0.00     0.154 A 
ATOM     20  C1  non d ame      -8.712  18.225  67.142  0.00  0.00    -0.017 A 
ATOM     21  C2  non d ame      -8.567  19.601  67.431  0.00  0.00     0.077 A 
ATOM     22  H1  non d ame      -7.944  17.547  66.770  0.00  0.00     0.091 H 
ATOM     23  O1  non d ame      -9.720  20.033  67.849  0.00  0.00    -0.218 OA
ATOM     24  N1  non d ame     -10.618  19.075  67.867  0.00  0.00    -0.123 NA
BRANCH  21  25
ATOM     25  C3  non d ame      -7.295  20.424  67.280  0.00  0.00    -0.029 C 
ATOM     26  H2  non d ame      -7.220  20.794  66.257  0.00  0.00     0.036 H 
ATOM     27  H3  non d ame      -7.324  21.267  67.970  0.00  0.00     0.036 H 
ATOM     28  H4  non d ame      -6.429  19.801  67.505  0.00  0.00     0.036 H 
ENDBRANCH  21  25
ENDBRANCH  16  19
ENDBRANCH  13  15
BRANCH  13  29
ATOM     29  C8  non d ame     -12.085  14.436  64.625  0.00  0.00    -0.049 C 
ATOM     30  H7  non d ame     -11.359  14.500  63.814  0.00  0.00     0.030 H 
ATOM     31  H8  non d ame     -12.613  13.484  64.565  0.00  0.00     0.030 H 
ATOM     32  H9  non d ame     -12.799  15.254  64.537  0.00  0.00     0.030 H 
ENDBRANCH  13  29
ENDBRANCH  10  13
ENDBRANCH   7   9
BRANCH   7  33
ATOM     33  C11 non d ame     -10.137   9.940  66.915  0.00  0.00    -0.033 C 
ATOM     34  H12 non d ame     -10.584   9.092  66.396  0.00  0.00     0.042 H 
BRANCH  33  35
ATOM     35  C12 non d ame      -8.922   9.402  67.733  0.00  0.00    -0.071 C 
ATOM     36  H13 non d ame      -8.089  10.100  67.649  0.00  0.00     0.028 H 
ATOM     37  H14 non d ame      -9.206   9.302  68.781  0.00  0.00     0.028 H 
ATOM     38  H15 non d ame      -8.624   8.430  67.342  0.00  0.00     0.028 H 
ENDBRANCH  33  35
BRANCH  33  39
ATOM     39  C13 non d ame     -11.223  10.560  67.853  0.00  0.00    -0.071 C 
ATOM     40  H16 non d ame     -10.982  10.328  68.890  0.00  0.00     0.028 H 
ATOM     41  H17 non d ame     -11.245  11.642  67.718  0.00  0.00     0.028 H 
ATOM     42  H18 non d ame     -12.198  10.143  67.604  0.00  0.00     0.028 H 
ENDBRANCH  33  39
ENDBRANCH   7  33
ENDBRANCH   4   7
ENDBRANCH   1   3
BRANCH   1  43
ATOM     43  C15 non d ame      -8.221   7.105  63.248  0.00  0.00     0.240 C 
ATOM     44  O5  non d ame      -7.867   6.370  62.383  0.00  0.00    -0.271 OA
ATOM     45  N6  non d ame      -8.598   6.553  64.581  0.00  0.00    -0.355 N 
ATOM     46  H46 non d ame      -8.896   7.167  65.324  0.00  0.00     0.162 HD
BRANCH  45  47
ATOM     47  C20 non d ame      -8.534   5.094  64.814  0.00  0.00     0.013 C 
ATOM     48  H30 non d ame      -8.276   4.614  63.871  0.00  0.00     0.072 H 
BRANCH  47  49
ATOM     49  C21 non d ame      -9.884   4.605  65.290  0.00  0.00    -0.038 C 
ATOM     50  H31 non d ame     -10.594   5.385  65.015  0.00  0.00     0.036 H 
ATOM     51  H32 non d ame      -9.993   3.600  64.882  0.00  0.00     0.036 H 
BRANCH  49  52
ATOM     52  C22 non d ame      -9.963   4.465  66.826  0.00  0.00     0.018 C 
ATOM     53  H33 non d ame     -10.743   3.727  67.015  0.00  0.00     0.048 H 
ATOM     54  H34 non d ame      -8.942   4.276  67.158  0.00  0.00     0.048 H 
BRANCH  52  55
ATOM     55  C23 non d ame     -10.416   5.763  67.551  0.00  0.00     0.259 C 
ATOM     56  O7  non d ame     -11.214   6.486  67.050  0.00  0.00    -0.265 OA
BRANCH  55  57
ATOM     57  O8  non d ame      -9.856   6.085  68.818  0.00  0.00    -0.317 OA
BRANCH  57  58
ATOM     58  C29 non d ame     -10.662   5.686  69.930  0.00  0.00     0.052 C 
ATOM     59  H47 non d ame     -11.495   5.126  69.504  0.00  0.00     0.082 H 
ATOM     60  H48 non d ame      -9.982   5.202  70.630  0.00  0.00     0.082 H 
BRANCH  58  61
ATOM     61  C35 non d ame     -11.224   6.969  70.599  0.00  0.00    -0.034 A 
ATOM     62  C30 non d ame     -12.533   6.993  71.069  0.00  0.00    -0.075 A 
ATOM     63  C31 non d ame     -13.038   8.145  71.670  0.00  0.00    -0.082 A 
ATOM     64  H49 non d ame     -13.163   6.109  70.968  0.00  0.00     0.084 H 
ATOM     65  C32 non d ame     -12.228   9.278  71.797  0.00  0.00    -0.083 A 
ATOM     66  H50 non d ame     -14.063   8.161  72.040  0.00  0.00     0.083 H 
ATOM     67  C33 non d ame     -10.924   9.250  71.323  0.00  0.00    -0.082 A 
ATOM     68  H51 non d ame     -12.615  10.183  72.266  0.00  0.00     0.083 H 
ATOM     69  C34 non d ame     -10.415   8.100  70.724  0.00  0.00    -0.075 A 
ATOM     70  H52 non d ame     -10.296  10.136  71.421  0.00  0.00     0.083 H 
ATOM     71  H53 non d ame      -9.389   8.085  70.355  0.00  0.00     0.084 H 
ENDBRANCH  58  61
ENDBRANCH  57  58
ENDBRANCH  55  57
ENDBRANCH  52  55
ENDBRANCH  49  52
ENDBRANCH  47  49
BRANCH  47  72
ATOM     72  C24 non d ame      -7.478   4.786  65.874  0.00  0.00    -0.039 C 
ATOM     73  H35 non d ame      -7.993   4.874  66.831  0.00  0.00     0.036 H 
ATOM     74  H36 non d ame      -7.039   3.834  65.577  0.00  0.00     0.036 H 
BRANCH  72  75
ATOM     75  C25 non d ame      -6.300   5.872  65.869  0.00  0.00    -0.001 C 
ATOM     76  C26 non d ame      -4.944   5.224  65.203  0.00  0.00    -0.035 C 
ATOM     77  C27 non d ame      -3.903   5.429  66.045  0.00  0.00     0.085 C 
ATOM     78  H38 non d ame      -5.029   4.138  65.163  0.00  0.00     0.036 H 
ATOM     79  H39 non d ame      -4.662   5.781  64.309  0.00  0.00     0.036 H 
ATOM     80  N5  non d ame      -4.485   5.867  67.367  0.00  0.00    -0.049 N 
ATOM     81  H40 non d ame      -3.431   4.454  66.169  0.00  0.00     0.075 H 
ATOM     82  H41 non d ame      -3.339   6.256  65.614  0.00  0.00     0.075 H 
ATOM     83  C28 non d ame      -6.020   6.264  67.067  0.00  0.00     0.193 C 
ATOM     84  H42 non d ame      -4.474   5.055  67.968  0.00  0.00     0.280 HD
ATOM     85  H43 non d ame      -3.984   6.702  67.638  0.00  0.00     0.280 HD
ATOM     86  H44 non d ame      -6.321   7.310  67.009  0.00  0.00     0.129 H 
ATOM     87  H37 non d ame      -6.629   6.837  65.483  0.00  0.00     0.046 H 
BRANCH  83  88
ATOM     88  O6  non d ame      -6.882   5.673  68.042  0.00  0.00    -0.369 OA
ATOM     89  H45 non d ame      -7.485   6.338  68.381  0.00  0.00     0.212 HD
ENDBRANCH  83  88
ENDBRANCH  72  75
ENDBRANCH  47  72
ENDBRANCH  45  47
ENDBRANCH   1  43
BRANCH   1  90
ATOM     90  C16 non d ame      -6.997   9.090  62.310  0.00  0.00    -0.035 C 
ATOM     91  H21 non d ame      -6.768   8.317  61.576  0.00  0.00     0.037 H 
ATOM     92  H22 non d ame      -7.188  10.112  61.983  0.00  0.00     0.037 H 
BRANCH  90  93
ATOM     93  C17 non d ame      -5.771   9.158  63.276  0.00  0.00    -0.059 C 
ATOM     94  H23 non d ame      -6.126   8.919  64.278  0.00  0.00     0.038 H 
BRANCH  93  95
ATOM     95  C18 non d ame      -4.667   8.117  62.901  0.00  0.00    -0.073 C 
ATOM     96  H24 non d ame      -5.134   7.161  62.667  0.00  0.00     0.028 H 
ATOM     97  H25 non d ame      -4.113   8.473  62.032  0.00  0.00     0.028 H 
ATOM     98  H26 non d ame      -3.985   7.993  63.742  0.00  0.00     0.028 H 
ENDBRANCH  93  95
BRANCH  93  99
ATOM     99  C19 non d ame      -5.191  10.574  63.325  0.00  0.00    -0.073 C 
ATOM    100  H27 non d ame      -5.955  11.290  63.023  0.00  0.00     0.028 H 
ATOM    101  H28 non d ame      -4.864  10.797  64.341  0.00  0.00     0.028 H 
ATOM    102  H29 non d ame      -4.341  10.642  62.647  0.00  0.00     0.028 H 
ENDBRANCH  93  99
ENDBRANCH  90  93
ENDBRANCH   1  90
TORSDOF 26
ENDMDL
MODEL 7
REMARK VINA RESULT:      -6.2      2.184      5.664
REMARK  26 active torsions:
REMARK  status: ('A' for Active; 'I' for Inactive)
REMARK    1  A    between atoms: C2_2  and  C3_3 
REMARK    2  A    between atoms: C4_6  and  C5_7 
REMARK       I    between atoms: C5_7  and  N2_9 
REMARK    3  A    between atoms: N2_9  and  C6_10 
REMARK    4  A    between atoms: C6_10  and  C7_11 
REMARK    5  A    between atoms: C6_10  and  C8_13 
REMARK       I    between atoms: C7_11  and  N3_14 
REMARK    6  A    between atoms: N3_14  and  C9_15 
REMARK    7  A    between atoms: C9_15  and  C10_16 
REMARK    8  A    between atoms: C9_15  and  C11_18 
REMARK       I    between atoms: C10_16  and  N4_21 
REMARK    9  A    between atoms: C11_18  and  C12_19 
REMARK   10  A    between atoms: C11_18  and  C13_20 
REMARK   11  A    between atoms: N4_21  and  C14_22 
REMARK   12  A    between atoms: C14_22  and  C15_23 
REMARK   13  A    between atoms: C14_22  and  C16_25 
REMARK       I    between atoms: C15_23  and  N6_40 
REMARK   14  A    between atoms: C16_25  and  C17_26 
REMARK   15  A    between atoms: C17_26  and  C18_27 
REMARK   16  A    between atoms: C17_26  and  C19_28 
REMARK   17  A    between atoms: C20_29  and  C21_30 
REMARK   18  A    between atoms: C20_29  and  C24_33 
REMARK   19  A    between atoms: C20_29  and  N6_40 
REMARK   20  A    between atoms: C21_30  and  C22_31 
REMARK   21  A    between atoms: C22_31  and  C23_32 
REMARK   22  A    between atoms: C23_32  and  O8_43 
REMARK   23  A    between atoms: C24_33  and  C25_34 
REMARK   24  A    between atoms: C28_38  and  O6_39 
REMARK   25  A    between atoms: C29_42  and  O8_43 
REMARK   26  A    between atoms: C29_42  and  C35_49 
ROOT
ATOM      1  C14 non d ame      -7.840   9.473  66.060  0.00  0.00     0.089 C 
ATOM      2  H20 non d ame      -7.743   9.320  64.985  0.00  0.00     0.087 H 
ENDROOT
BRANCH   1   3
ATOM      3  N4  non d ame      -8.929  10.415  66.273  0.00  0.00    -0.346 N 
ATOM      4  C10 non d ame     -10.010  10.576  65.234  0.00  0.00     0.241 C 
ATOM      5  O4  non d ame      -9.981   9.938  64.234  0.00  0.00    -0.271 OA
ATOM      6  H19 non d ame      -8.934  10.951  67.129  0.00  0.00     0.163 HD
BRANCH   4   7
ATOM      7  C9  non d ame     -11.133  11.551  65.473  0.00  0.00     0.092 C 
ATOM      8  H11 non d ame     -12.050  10.999  65.680  0.00  0.00     0.088 H 
BRANCH   7   9
ATOM      9  N3  non d ame     -10.836  12.358  66.661  0.00  0.00    -0.346 N 
ATOM     10  C7  non d ame     -11.474  12.052  67.917  0.00  0.00     0.240 C 
ATOM     11  O3  non d ame     -12.230  11.161  67.990  0.00  0.00    -0.271 OA
ATOM     12  H10 non d ame     -10.187  13.130  66.613  0.00  0.00     0.163 HD
BRANCH  10  13
ATOM     13  C6  non d ame     -11.156  12.916  69.177  0.00  0.00     0.086 C 
ATOM     14  H6  non d ame     -10.149  12.750  69.559  0.00  0.00     0.086 H 
BRANCH  13  15
ATOM     15  N2  non d ame     -11.238  14.321  68.818  0.00  0.00    -0.343 N 
ATOM     16  C5  non d ame     -10.030  15.028  68.388  0.00  0.00     0.273 C 
ATOM     17  O2  non d ame      -8.996  14.457  68.337  0.00  0.00    -0.266 OA
ATOM     18  H5  non d ame     -12.126  14.802  68.867  0.00  0.00     0.163 HD
BRANCH  16  19
ATOM     19  C4  non d ame     -10.103  16.514  68.004  0.00  0.00     0.154 A 
ATOM     20  C1  non d ame      -9.180  17.243  67.188  0.00  0.00    -0.017 A 
ATOM     21  C2  non d ame      -9.694  18.557  67.142  0.00  0.00     0.077 A 
ATOM     22  H1  non d ame      -8.276  16.874  66.703  0.00  0.00     0.091 H 
ATOM     23  O1  non d ame     -10.786  18.571  67.850  0.00  0.00    -0.218 OA
ATOM     24  N1  non d ame     -11.044  17.391  68.364  0.00  0.00    -0.123 NA
BRANCH  21  25
ATOM     25  C3  non d ame      -9.085  19.739  66.399  0.00  0.00    -0.029 C 
ATOM     26  H2  non d ame      -9.558  20.662  66.734  0.00  0.00     0.036 H 
ATOM     27  H3  non d ame      -8.015  19.784  66.604  0.00  0.00     0.036 H 
ATOM     28  H4  non d ame      -9.244  19.616  65.328  0.00  0.00     0.036 H 
ENDBRANCH  21  25
ENDBRANCH  16  19
ENDBRANCH  13  15
BRANCH  13  29
ATOM     29  C8  non d ame     -12.148  12.602  70.268  0.00  0.00    -0.049 C 
ATOM     30  H7  non d ame     -11.689  12.784  71.240  0.00  0.00     0.030 H 
ATOM     31  H8  non d ame     -13.025  13.239  70.156  0.00  0.00     0.030 H 
ATOM     32  H9  non d ame     -12.447  11.556  70.198  0.00  0.00     0.030 H 
ENDBRANCH  13  29
ENDBRANCH  10  13
ENDBRANCH   7   9
BRANCH   7  33
ATOM     33  C11 non d ame     -11.278  12.487  64.237  0.00  0.00    -0.033 C 
ATOM     34  H12 non d ame     -10.379  12.374  63.632  0.00  0.00     0.042 H 
BRANCH  33  35
ATOM     35  C12 non d ame     -12.495  12.074  63.352  0.00  0.00    -0.071 C 
ATOM     36  H13 non d ame     -13.413  12.158  63.935  0.00  0.00     0.028 H 
ATOM     37  H14 non d ame     -12.554  12.733  62.486  0.00  0.00     0.028 H 
ATOM     38  H15 non d ame     -12.369  11.045  63.018  0.00  0.00     0.028 H 
ENDBRANCH  33  35
BRANCH  33  39
ATOM     39  C13 non d ame     -11.379  13.983  64.677  0.00  0.00    -0.071 C 
ATOM     40  H16 non d ame     -12.324  14.401  64.330  0.00  0.00     0.028 H 
ATOM     41  H17 non d ame     -11.332  14.046  65.765  0.00  0.00     0.028 H 
ATOM     42  H18 non d ame     -10.552  14.545  64.245  0.00  0.00     0.028 H 
ENDBRANCH  33  39
ENDBRANCH   7  33
ENDBRANCH   4   7
ENDBRANCH   1   3
BRANCH   1  43
ATOM     43  C15 non d ame      -8.172   8.154  66.814  0.00  0.00     0.240 C 
ATOM     44  O5  non d ame      -7.317   7.579  67.406  0.00  0.00    -0.271 OA
ATOM     45  N6  non d ame      -9.561   7.610  66.805  0.00  0.00    -0.355 N 
ATOM     46  H46 non d ame     -10.297   8.092  66.310  0.00  0.00     0.162 HD
BRANCH  45  47
ATOM     47  C20 non d ame      -9.861   6.355  67.527  0.00  0.00     0.013 C 
ATOM     48  H30 non d ame      -8.951   6.035  68.035  0.00  0.00     0.072 H 
BRANCH  47  49
ATOM     49  C21 non d ame     -10.299   5.301  66.536  0.00  0.00    -0.038 C 
ATOM     50  H31 non d ame     -11.251   4.923  66.909  0.00  0.00     0.036 H 
ATOM     51  H32 non d ame     -10.246   5.777  65.557  0.00  0.00     0.036 H 
BRANCH  49  52
ATOM     52  C22 non d ame      -9.340   4.092  66.485  0.00  0.00     0.018 C 
ATOM     53  H33 non d ame      -9.222   3.764  67.519  0.00  0.00     0.048 H 
ATOM     54  H34 non d ame      -9.760   3.412  65.743  0.00  0.00     0.048 H 
BRANCH  52  55
ATOM     55  C23 non d ame      -7.912   4.445  65.983  0.00  0.00     0.259 C 
ATOM     56  O7  non d ame      -6.956   4.141  66.619  0.00  0.00    -0.265 OA
BRANCH  55  57
ATOM     57  O8  non d ame      -7.760   5.149  64.756  0.00  0.00    -0.317 OA
BRANCH  57  58
ATOM     58  C29 non d ame      -6.441   5.658  64.537  0.00  0.00     0.052 C 
ATOM     59  H47 non d ame      -6.070   5.949  65.520  0.00  0.00     0.082 H 
ATOM     60  H48 non d ame      -5.920   4.892  63.963  0.00  0.00     0.082 H 
BRANCH  58  61
ATOM     61  C35 non d ame      -6.559   6.933  63.660  0.00  0.00    -0.034 A 
ATOM     62  C30 non d ame      -7.762   7.235  63.029  0.00  0.00    -0.075 A 
ATOM     63  C31 non d ame      -7.868   8.380  62.241  0.00  0.00    -0.082 A 
ATOM     64  H49 non d ame      -8.621   6.576  63.153  0.00  0.00     0.084 H 
ATOM     65  C32 non d ame      -6.765   9.223  62.081  0.00  0.00    -0.083 A 
ATOM     66  H50 non d ame      -8.813   8.616  61.750  0.00  0.00     0.083 H 
ATOM     67  C33 non d ame      -5.566   8.915  62.710  0.00  0.00    -0.082 A 
ATOM     68  H51 non d ame      -6.839  10.120  61.467  0.00  0.00     0.083 H 
ATOM     69  C34 non d ame      -5.456   7.773  63.501  0.00  0.00    -0.075 A 
ATOM     70  H52 non d ame      -4.706   9.573  62.582  0.00  0.00     0.083 H 
ATOM     71  H53 non d ame      -4.511   7.539  63.992  0.00  0.00     0.084 H 
ENDBRANCH  58  61
ENDBRANCH  57  58
ENDBRANCH  55  57
ENDBRANCH  52  55
ENDBRANCH  49  52
ENDBRANCH  47  49
BRANCH  47  72
ATOM     72  C24 non d ame     -10.977   6.597  68.541  0.00  0.00    -0.039 C 
ATOM     73  H35 non d ame     -11.475   7.510  68.212  0.00  0.00     0.036 H 
ATOM     74  H36 non d ame     -11.534   5.661  68.589  0.00  0.00     0.036 H 
BRANCH  72  75
ATOM     75  C25 non d ame     -10.396   6.878  70.007  0.00  0.00    -0.001 C 
ATOM     76  C26 non d ame     -11.084   5.847  71.088  0.00  0.00    -0.035 C 
ATOM     77  C27 non d ame     -11.569   6.566  72.129  0.00  0.00     0.085 C 
ATOM     78  H38 non d ame     -11.974   5.391  70.656  0.00  0.00     0.036 H 
ATOM     79  H39 non d ame     -10.318   5.220  71.546  0.00  0.00     0.036 H 
ATOM     80  N5  non d ame     -11.567   8.014  71.704  0.00  0.00    -0.049 N 
ATOM     81  H40 non d ame     -12.600   6.234  72.257  0.00  0.00     0.075 H 
ATOM     82  H41 non d ame     -10.849   6.432  72.936  0.00  0.00     0.075 H 
ATOM     83  C28 non d ame     -10.641   8.088  70.383  0.00  0.00     0.193 C 
ATOM     84  H42 non d ame     -12.517   8.237  71.443  0.00  0.00     0.280 HD
ATOM     85  H43 non d ame     -11.113   8.529  72.444  0.00  0.00     0.280 HD
ATOM     86  H44 non d ame      -9.628   8.487  70.439  0.00  0.00     0.129 H 
ATOM     87  H37 non d ame      -9.309   6.950  70.013  0.00  0.00     0.046 H 
BRANCH  83  88
ATOM     88  O6  non d ame     -11.295   8.848  69.365  0.00  0.00    -0.369 OA
ATOM     89  H45 non d ame     -12.032   8.344  69.014  0.00  0.00     0.212 HD
ENDBRANCH  83  88
ENDBRANCH  72  75
ENDBRANCH  47  72
ENDBRANCH  45  47
ENDBRANCH   1  43
BRANCH   1  90
ATOM     90  C16 non d ame      -6.554  10.068  66.613  0.00  0.00    -0.035 C 
ATOM     91  H21 non d ame      -6.068   9.254  67.152  0.00  0.00     0.037 H 
ATOM     92  H22 non d ame      -6.058  10.529  65.759  0.00  0.00     0.037 H 
BRANCH  90  93
ATOM     93  C17 non d ame      -6.789  11.208  67.655  0.00  0.00    -0.059 C 
ATOM     94  H23 non d ame      -7.821  11.544  67.551  0.00  0.00     0.038 H 
BRANCH  93  95
ATOM     95  C18 non d ame      -6.595  10.713  69.124  0.00  0.00    -0.073 C 
ATOM     96  H24 non d ame      -5.537  10.525  69.307  0.00  0.00     0.028 H 
ATOM     97  H25 non d ame      -6.953  11.476  69.815  0.00  0.00     0.028 H 
ATOM     98  H26 non d ame      -7.159   9.793  69.275  0.00  0.00     0.028 H 
ENDBRANCH  93  95
BRANCH  93  99
ATOM     99  C19 non d ame      -5.888  12.410  67.362  0.00  0.00    -0.073 C 
ATOM    100  H27 non d ame      -6.474  13.327  67.421  0.00  0.00     0.028 H 
ATOM    101  H28 non d ame      -5.081  12.447  68.095  0.00  0.00     0.028 H 
ATOM    102  H29 non d ame      -5.465  12.312  66.362  0.00  0.00     0.028 H 
ENDBRANCH  93  99
ENDBRANCH  90  93
ENDBRANCH   1  90
TORSDOF 26
ENDMDL
MODEL 8
REMARK VINA RESULT:      -6.2      2.733      4.360
REMARK  26 active torsions:
REMARK  status: ('A' for Active; 'I' for Inactive)
REMARK    1  A    between atoms: C2_2  and  C3_3 
REMARK    2  A    between atoms: C4_6  and  C5_7 
REMARK       I    between atoms: C5_7  and  N2_9 
REMARK    3  A    between atoms: N2_9  and  C6_10 
REMARK    4  A    between atoms: C6_10  and  C7_11 
REMARK    5  A    between atoms: C6_10  and  C8_13 
REMARK       I    between atoms: C7_11  and  N3_14 
REMARK    6  A    between atoms: N3_14  and  C9_15 
REMARK    7  A    between atoms: C9_15  and  C10_16 
REMARK    8  A    between atoms: C9_15  and  C11_18 
REMARK       I    between atoms: C10_16  and  N4_21 
REMARK    9  A    between atoms: C11_18  and  C12_19 
REMARK   10  A    between atoms: C11_18  and  C13_20 
REMARK   11  A    between atoms: N4_21  and  C14_22 
REMARK   12  A    between atoms: C14_22  and  C15_23 
REMARK   13  A    between atoms: C14_22  and  C16_25 
REMARK       I    between atoms: C15_23  and  N6_40 
REMARK   14  A    between atoms: C16_25  and  C17_26 
REMARK   15  A    between atoms: C17_26  and  C18_27 
REMARK   16  A    between atoms: C17_26  and  C19_28 
REMARK   17  A    between atoms: C20_29  and  C21_30 
REMARK   18  A    between atoms: C20_29  and  C24_33 
REMARK   19  A    between atoms: C20_29  and  N6_40 
REMARK   20  A    between atoms: C21_30  and  C22_31 
REMARK   21  A    between atoms: C22_31  and  C23_32 
REMARK   22  A    between atoms: C23_32  and  O8_43 
REMARK   23  A    between atoms: C24_33  and  C25_34 
REMARK   24  A    between atoms: C28_38  and  O6_39 
REMARK   25  A    between atoms: C29_42  and  O8_43 
REMARK   26  A    between atoms: C29_42  and  C35_49 
ROOT
ATOM      1  C14 non d ame      -8.133   8.518  63.174  0.00  0.00     0.089 C 
ATOM      2  H20 non d ame      -9.018   8.775  62.592  0.00  0.00     0.087 H 
ENDROOT
BRANCH   1   3
ATOM      3  N4  non d ame      -8.225   9.219  64.446  0.00  0.00    -0.346 N 
ATOM      4  C10 non d ame      -9.362  10.174  64.709  0.00  0.00     0.241 C 
ATOM      5  O4  non d ame     -10.189  10.364  63.880  0.00  0.00    -0.271 OA
ATOM      6  H19 non d ame      -7.509   9.045  65.137  0.00  0.00     0.163 HD
BRANCH   4   7
ATOM      7  C9  non d ame      -9.444  10.887  66.033  0.00  0.00     0.092 C 
ATOM      8  H11 non d ame      -8.655  11.637  66.086  0.00  0.00     0.088 H 
BRANCH   7   9
ATOM      9  N3  non d ame     -10.724  11.596  66.128  0.00  0.00    -0.346 N 
ATOM     10  C7  non d ame     -10.749  13.038  66.135  0.00  0.00     0.240 C 
ATOM     11  O3  non d ame      -9.749  13.643  66.067  0.00  0.00    -0.271 OA
ATOM     12  H10 non d ame     -11.594  11.088  66.188  0.00  0.00     0.163 HD
BRANCH  10  13
ATOM     13  C6  non d ame     -12.114  13.788  66.239  0.00  0.00     0.086 C 
ATOM     14  H6  non d ame     -12.965  13.109  66.288  0.00  0.00     0.086 H 
BRANCH  13  15
ATOM     15  N2  non d ame     -12.131  14.567  67.466  0.00  0.00    -0.343 N 
ATOM     16  C5  non d ame     -12.076  13.879  68.758  0.00  0.00     0.273 C 
ATOM     17  O2  non d ame     -12.020  12.699  68.799  0.00  0.00    -0.266 OA
ATOM     18  H5  non d ame     -12.182  15.575  67.422  0.00  0.00     0.163 HD
BRANCH  16  19
ATOM     19  C4  non d ame     -12.092  14.690  70.063  0.00  0.00     0.154 A 
ATOM     20  C1  non d ame     -12.371  14.203  71.380  0.00  0.00    -0.017 A 
ATOM     21  C2  non d ame     -12.258  15.336  72.217  0.00  0.00     0.077 A 
ATOM     22  H1  non d ame     -12.618  13.185  71.681  0.00  0.00     0.091 H 
ATOM     23  O1  non d ame     -11.949  16.348  71.460  0.00  0.00    -0.218 OA
ATOM     24  N1  non d ame     -11.847  15.996  70.199  0.00  0.00    -0.123 NA
BRANCH  21  25
ATOM     25  C3  non d ame     -12.460  15.365  73.726  0.00  0.00    -0.029 C 
ATOM     26  H2  non d ame     -13.401  14.874  73.977  0.00  0.00     0.036 H 
ATOM     27  H3  non d ame     -11.637  14.842  74.213  0.00  0.00     0.036 H 
ATOM     28  H4  non d ame     -12.487  16.399  74.070  0.00  0.00     0.036 H 
ENDBRANCH  21  25
ENDBRANCH  16  19
ENDBRANCH  13  15
BRANCH  13  29
ATOM     29  C8  non d ame     -12.283  14.696  65.048  0.00  0.00    -0.049 C 
ATOM     30  H7  non d ame     -13.130  15.362  65.216  0.00  0.00     0.030 H 
ATOM     31  H8  non d ame     -11.378  15.287  64.910  0.00  0.00     0.030 H 
ATOM     32  H9  non d ame     -12.466  14.096  64.157  0.00  0.00     0.030 H 
ENDBRANCH  13  29
ENDBRANCH  10  13
ENDBRANCH   7   9
BRANCH   7  33
ATOM     33  C11 non d ame      -9.344   9.848  67.188  0.00  0.00    -0.033 C 
ATOM     34  H12 non d ame      -8.473   9.222  66.992  0.00  0.00     0.042 H 
BRANCH  33  35
ATOM     35  C12 non d ame      -9.117  10.548  68.564  0.00  0.00    -0.071 C 
ATOM     36  H13 non d ame      -9.083   9.797  69.353  0.00  0.00     0.028 H 
ATOM     37  H14 non d ame      -8.175  11.095  68.543  0.00  0.00     0.028 H 
ATOM     38  H15 non d ame      -9.935  11.242  68.758  0.00  0.00     0.028 H 
ENDBRANCH  33  35
BRANCH  33  39
ATOM     39  C13 non d ame     -10.605   8.926  67.223  0.00  0.00    -0.071 C 
ATOM     40  H16 non d ame     -11.463   9.469  66.828  0.00  0.00     0.028 H 
ATOM     41  H17 non d ame     -10.424   8.040  66.613  0.00  0.00     0.028 H 
ATOM     42  H18 non d ame     -10.806   8.625  68.250  0.00  0.00     0.028 H 
ENDBRANCH  33  39
ENDBRANCH   7  33
ENDBRANCH   4   7
ENDBRANCH   1   3
BRANCH   1  43
ATOM     43  C15 non d ame      -8.038   6.991  63.456  0.00  0.00     0.240 C 
ATOM     44  O5  non d ame      -7.903   6.231  62.552  0.00  0.00    -0.271 OA
ATOM     45  N6  non d ame      -8.107   6.477  64.853  0.00  0.00    -0.355 N 
ATOM     46  H46 non d ame      -8.217   7.114  65.629  0.00  0.00     0.162 HD
BRANCH  45  47
ATOM     47  C20 non d ame      -8.015   5.023  65.105  0.00  0.00     0.013 C 
ATOM     48  H30 non d ame      -7.894   4.523  64.144  0.00  0.00     0.072 H 
BRANCH  47  49
ATOM     49  C21 non d ame      -9.284   4.550  65.776  0.00  0.00    -0.038 C 
ATOM     50  H31 non d ame      -9.734   5.440  66.215  0.00  0.00     0.036 H 
ATOM     51  H32 non d ame      -9.824   3.982  65.018  0.00  0.00     0.036 H 
BRANCH  49  52
ATOM     52  C22 non d ame      -9.017   3.575  66.944  0.00  0.00     0.018 C 
ATOM     53  H33 non d ame      -9.584   2.673  66.711  0.00  0.00     0.048 H 
ATOM     54  H34 non d ame      -7.932   3.526  67.045  0.00  0.00     0.048 H 
BRANCH  52  55
ATOM     55  C23 non d ame      -9.553   4.076  68.313  0.00  0.00     0.259 C 
ATOM     56  O7  non d ame      -9.559   3.356  69.259  0.00  0.00    -0.265 OA
BRANCH  55  57
ATOM     57  O8  non d ame     -10.050   5.404  68.423  0.00  0.00    -0.317 OA
BRANCH  57  58
ATOM     58  C29 non d ame      -9.227   6.271  69.211  0.00  0.00     0.052 C 
ATOM     59  H47 non d ame      -8.519   5.619  69.723  0.00  0.00     0.082 H 
ATOM     60  H48 non d ame      -8.865   7.037  68.525  0.00  0.00     0.082 H 
BRANCH  58  61
ATOM     61  C35 non d ame     -10.129   6.950  70.275  0.00  0.00    -0.034 A 
ATOM     62  C30 non d ame     -11.478   6.621  70.359  0.00  0.00    -0.075 A 
ATOM     63  C31 non d ame     -12.288   7.231  71.315  0.00  0.00    -0.082 A 
ATOM     64  H49 non d ame     -11.900   5.883  69.676  0.00  0.00     0.084 H 
ATOM     65  C32 non d ame     -11.745   8.177  72.188  0.00  0.00    -0.083 A 
ATOM     66  H50 non d ame     -13.344   6.969  71.379  0.00  0.00     0.083 H 
ATOM     67  C33 non d ame     -10.399   8.506  72.099  0.00  0.00    -0.082 A 
ATOM     68  H51 non d ame     -12.371   8.659  72.939  0.00  0.00     0.083 H 
ATOM     69  C34 non d ame      -9.585   7.896  71.146  0.00  0.00    -0.075 A 
ATOM     70  H52 non d ame      -9.979   9.246  72.780  0.00  0.00     0.083 H 
ATOM     71  H53 non d ame      -8.529   8.159  71.083  0.00  0.00     0.084 H 
ENDBRANCH  58  61
ENDBRANCH  57  58
ENDBRANCH  55  57
ENDBRANCH  52  55
ENDBRANCH  49  52
ENDBRANCH  47  49
BRANCH  47  72
ATOM     72  C24 non d ame      -6.819   4.730  66.009  0.00  0.00    -0.039 C 
ATOM     73  H35 non d ame      -7.136   5.021  67.011  0.00  0.00     0.036 H 
ATOM     74  H36 non d ame      -6.546   3.695  65.803  0.00  0.00     0.036 H 
BRANCH  72  75
ATOM     75  C25 non d ame      -5.554   5.637  65.631  0.00  0.00    -0.001 C 
ATOM     76  C26 non d ame      -4.343   4.692  65.045  0.00  0.00    -0.035 C 
ATOM     77  C27 non d ame      -3.203   4.976  65.719  0.00  0.00     0.085 C 
ATOM     78  H38 non d ame      -4.531   3.647  65.292  0.00  0.00     0.036 H 
ATOM     79  H39 non d ame      -4.110   4.977  64.019  0.00  0.00     0.036 H 
ATOM     80  N5  non d ame      -3.596   5.789  66.929  0.00  0.00    -0.049 N 
ATOM     81  H40 non d ame      -2.812   4.013  66.050  0.00  0.00     0.075 H 
ATOM     82  H41 non d ame      -2.615   5.600  65.047  0.00  0.00     0.075 H 
ATOM     83  C28 non d ame      -5.112   6.276  66.663  0.00  0.00     0.193 C 
ATOM     84  H42 non d ame      -3.595   5.154  67.714  0.00  0.00     0.280 HD
ATOM     85  H43 non d ame      -2.995   6.601  66.935  0.00  0.00     0.280 HD
ATOM     86  H44 non d ame      -5.319   7.303  66.364  0.00  0.00     0.129 H 
ATOM     87  H37 non d ame      -5.833   6.509  65.040  0.00  0.00     0.046 H 
BRANCH  83  88
ATOM     88  O6  non d ame      -5.914   6.047  67.823  0.00  0.00    -0.369 OA
ATOM     89  H45 non d ame      -5.754   6.743  68.464  0.00  0.00     0.212 HD
ENDBRANCH  83  88
ENDBRANCH  72  75
ENDBRANCH  47  72
ENDBRANCH  45  47
ENDBRANCH   1  43
BRANCH   1  90
ATOM     90  C16 non d ame      -6.883   8.981  62.441  0.00  0.00    -0.035 C 
ATOM     91  H21 non d ame      -6.649   8.182  61.737  0.00  0.00     0.037 H 
ATOM     92  H22 non d ame      -7.118   9.980  62.073  0.00  0.00     0.037 H 
BRANCH  90  93
ATOM     93  C17 non d ame      -5.635   9.134  63.367  0.00  0.00    -0.059 C 
ATOM     94  H23 non d ame      -5.952   8.921  64.388  0.00  0.00     0.038 H 
BRANCH  93  95
ATOM     95  C18 non d ame      -4.501   8.123  63.000  0.00  0.00    -0.073 C 
ATOM     96  H24 non d ame      -4.530   7.918  61.930  0.00  0.00     0.028 H 
ATOM     97  H25 non d ame      -3.534   8.551  63.262  0.00  0.00     0.028 H 
ATOM     98  H26 non d ame      -4.650   7.195  63.552  0.00  0.00     0.028 H 
ENDBRANCH  93  95
BRANCH  93  99
ATOM     99  C19 non d ame      -5.110  10.572  63.344  0.00  0.00    -0.073 C 
ATOM    100  H27 non d ame      -5.412  11.054  62.414  0.00  0.00     0.028 H 
ATOM    101  H28 non d ame      -5.523  11.122  64.190  0.00  0.00     0.028 H 
ATOM    102  H29 non d ame      -4.023  10.563  63.413  0.00  0.00     0.028 H 
ENDBRANCH  93  99
ENDBRANCH  90  93
ENDBRANCH   1  90
TORSDOF 26
ENDMDL
MODEL 9
REMARK VINA RESULT:      -6.0      2.561      7.728
REMARK  26 active torsions:
REMARK  status: ('A' for Active; 'I' for Inactive)
REMARK    1  A    between atoms: C2_2  and  C3_3 
REMARK    2  A    between atoms: C4_6  and  C5_7 
REMARK       I    between atoms: C5_7  and  N2_9 
REMARK    3  A    between atoms: N2_9  and  C6_10 
REMARK    4  A    between atoms: C6_10  and  C7_11 
REMARK    5  A    between atoms: C6_10  and  C8_13 
REMARK       I    between atoms: C7_11  and  N3_14 
REMARK    6  A    between atoms: N3_14  and  C9_15 
REMARK    7  A    between atoms: C9_15  and  C10_16 
REMARK    8  A    between atoms: C9_15  and  C11_18 
REMARK       I    between atoms: C10_16  and  N4_21 
REMARK    9  A    between atoms: C11_18  and  C12_19 
REMARK   10  A    between atoms: C11_18  and  C13_20 
REMARK   11  A    between atoms: N4_21  and  C14_22 
REMARK   12  A    between atoms: C14_22  and  C15_23 
REMARK   13  A    between atoms: C14_22  and  C16_25 
REMARK       I    between atoms: C15_23  and  N6_40 
REMARK   14  A    between atoms: C16_25  and  C17_26 
REMARK   15  A    between atoms: C17_26  and  C18_27 
REMARK   16  A    between atoms: C17_26  and  C19_28 
REMARK   17  A    between atoms: C20_29  and  C21_30 
REMARK   18  A    between atoms: C20_29  and  C24_33 
REMARK   19  A    between atoms: C20_29  and  N6_40 
REMARK   20  A    between atoms: C21_30  and  C22_31 
REMARK   21  A    between atoms: C22_31  and  C23_32 
REMARK   22  A    between atoms: C23_32  and  O8_43 
REMARK   23  A    between atoms: C24_33  and  C25_34 
REMARK   24  A    between atoms: C28_38  and  O6_39 
REMARK   25  A    between atoms: C29_42  and  O8_43 
REMARK   26  A    between atoms: C29_42  and  C35_49 
ROOT
ATOM      1  C14 non d ame      -9.447  10.559  64.926  0.00  0.00     0.089 C 
ATOM      2  H20 non d ame      -8.689  11.080  64.339  0.00  0.00     0.087 H 
ENDROOT
BRANCH   1   3
ATOM      3  N4  non d ame      -9.117   9.142  64.909  0.00  0.00    -0.346 N 
ATOM      4  C10 non d ame      -7.681   8.695  64.796  0.00  0.00     0.241 C 
ATOM      5  O4  non d ame      -6.808   9.495  64.716  0.00  0.00    -0.271 OA
ATOM      6  H19 non d ame      -9.875   8.477  64.975  0.00  0.00     0.163 HD
BRANCH   4   7
ATOM      7  C9  non d ame      -7.358   7.224  64.786  0.00  0.00     0.092 C 
ATOM      8  H11 non d ame      -6.517   7.038  65.454  0.00  0.00     0.088 H 
BRANCH   7   9
ATOM      9  N3  non d ame      -8.501   6.469  65.307  0.00  0.00    -0.346 N 
ATOM     10  C7  non d ame      -8.284   5.368  66.214  0.00  0.00     0.240 C 
ATOM     11  O3  non d ame      -7.197   5.077  66.534  0.00  0.00    -0.271 OA
ATOM     12  H10 non d ame      -9.445   6.707  65.038  0.00  0.00     0.163 HD
BRANCH  10  13
ATOM     13  C6  non d ame      -9.505   4.566  66.762  0.00  0.00     0.086 C 
ATOM     14  H6  non d ame      -9.218   3.613  67.207  0.00  0.00     0.086 H 
BRANCH  13  15
ATOM     15  N2  non d ame     -10.145   5.340  67.812  0.00  0.00    -0.343 N 
ATOM     16  C5  non d ame     -10.170   4.817  69.180  0.00  0.00     0.273 C 
ATOM     17  O2  non d ame      -9.676   3.771  69.424  0.00  0.00    -0.266 OA
ATOM     18  H5  non d ame     -10.567   6.231  67.594  0.00  0.00     0.163 HD
BRANCH  16  19
ATOM     19  C4  non d ame     -10.842   5.625  70.301  0.00  0.00     0.154 A 
ATOM     20  C1  non d ame     -11.810   6.669  70.154  0.00  0.00    -0.017 A 
ATOM     21  C2  non d ame     -12.104   7.080  71.473  0.00  0.00     0.077 A 
ATOM     22  H1  non d ame     -12.233   7.067  69.231  0.00  0.00     0.091 H 
ATOM     23  O1  non d ame     -11.386   6.351  72.276  0.00  0.00    -0.218 OA
ATOM     24  N1  non d ame     -10.641   5.495  71.615  0.00  0.00    -0.123 NA
BRANCH  21  25
ATOM     25  C3  non d ame     -13.083   8.174  71.879  0.00  0.00    -0.029 C 
ATOM     26  H2  non d ame     -14.104   7.835  71.698  0.00  0.00     0.036 H 
ATOM     27  H3  non d ame     -12.957   8.400  72.938  0.00  0.00     0.036 H 
ATOM     28  H4  non d ame     -12.890   9.072  71.291  0.00  0.00     0.036 H 
ENDBRANCH  21  25
ENDBRANCH  16  19
ENDBRANCH  13  15
BRANCH  13  29
ATOM     29  C8  non d ame     -10.482   4.306  65.644  0.00  0.00    -0.049 C 
ATOM     30  H7  non d ame     -11.491   4.550  65.978  0.00  0.00     0.030 H 
ATOM     31  H8  non d ame     -10.224   4.925  64.784  0.00  0.00     0.030 H 
ATOM     32  H9  non d ame     -10.439   3.254  65.361  0.00  0.00     0.030 H 
ENDBRANCH  13  29
ENDBRANCH  10  13
ENDBRANCH   7   9
BRANCH   7  33
ATOM     33  C11 non d ame      -7.059   6.769  63.328  0.00  0.00    -0.033 C 
ATOM     34  H12 non d ame      -7.084   7.656  62.694  0.00  0.00     0.042 H 
BRANCH  33  35
ATOM     35  C12 non d ame      -5.632   6.147  63.207  0.00  0.00    -0.071 C 
ATOM     36  H13 non d ame      -5.701   5.062  63.289  0.00  0.00     0.028 H 
ATOM     37  H14 non d ame      -5.202   6.411  62.241  0.00  0.00     0.028 H 
ATOM     38  H15 non d ame      -5.000   6.534  64.005  0.00  0.00     0.028 H 
ENDBRANCH  33  35
BRANCH  33  39
ATOM     39  C13 non d ame      -8.153   5.778  62.816  0.00  0.00    -0.071 C 
ATOM     40  H16 non d ame      -7.850   5.366  61.854  0.00  0.00     0.028 H 
ATOM     41  H17 non d ame      -8.276   4.968  63.536  0.00  0.00     0.028 H 
ATOM     42  H18 non d ame      -9.099   6.309  62.702  0.00  0.00     0.028 H 
ENDBRANCH  33  39
ENDBRANCH   7  33
ENDBRANCH   4   7
ENDBRANCH   1   3
BRANCH   1  43
ATOM     43  C15 non d ame      -9.480  11.043  66.404  0.00  0.00     0.240 C 
ATOM     44  O5  non d ame      -8.509  11.524  66.890  0.00  0.00    -0.271 OA
ATOM     45  N6  non d ame     -10.727  10.915  67.210  0.00  0.00    -0.355 N 
ATOM     46  H46 non d ame     -11.561  10.512  66.806  0.00  0.00     0.162 HD
BRANCH  45  47
ATOM     47  C20 non d ame     -10.744  11.381  68.614  0.00  0.00     0.013 C 
ATOM     48  H30 non d ame      -9.829  11.946  68.790  0.00  0.00     0.072 H 
BRANCH  47  49
ATOM     49  C21 non d ame     -10.798  10.184  69.537  0.00  0.00    -0.038 C 
ATOM     50  H31 non d ame     -11.286  10.535  70.446  0.00  0.00     0.036 H 
ATOM     51  H32 non d ame     -11.247   9.381  68.951  0.00  0.00     0.036 H 
BRANCH  49  52
ATOM     52  C22 non d ame      -9.397   9.688  69.957  0.00  0.00     0.018 C 
ATOM     53  H33 non d ame      -8.714  10.509  69.737  0.00  0.00     0.048 H 
ATOM     54  H34 non d ame      -9.506   9.329  70.981  0.00  0.00     0.048 H 
BRANCH  52  55
ATOM     55  C23 non d ame      -8.889   8.474  69.130  0.00  0.00     0.259 C 
ATOM     56  O7  non d ame      -9.210   8.341  67.994  0.00  0.00    -0.265 OA
BRANCH  55  57
ATOM     57  O8  non d ame      -8.043   7.513  69.751  0.00  0.00    -0.317 OA
BRANCH  57  58
ATOM     58  C29 non d ame      -7.213   8.050  70.785  0.00  0.00     0.052 C 
ATOM     59  H47 non d ame      -6.194   7.769  70.520  0.00  0.00     0.082 H 
ATOM     60  H48 non d ame      -7.485   9.103  70.865  0.00  0.00     0.082 H 
BRANCH  58  61
ATOM     61  C35 non d ame      -7.588   7.344  72.115  0.00  0.00    -0.034 A 
ATOM     62  C30 non d ame      -7.160   6.043  72.358  0.00  0.00    -0.075 A 
ATOM     63  C31 non d ame      -7.496   5.408  73.552  0.00  0.00    -0.082 A 
ATOM     64  H49 non d ame      -6.560   5.520  71.612  0.00  0.00     0.084 H 
ATOM     65  C32 non d ame      -8.267   6.079  74.506  0.00  0.00    -0.083 A 
ATOM     66  H50 non d ame      -7.158   4.389  73.740  0.00  0.00     0.083 H 
ATOM     67  C33 non d ame      -8.694   7.376  74.258  0.00  0.00    -0.082 A 
ATOM     68  H51 non d ame      -8.534   5.590  75.443  0.00  0.00     0.083 H 
ATOM     69  C34 non d ame      -8.358   8.015  73.067  0.00  0.00    -0.075 A 
ATOM     70  H52 non d ame      -9.297   7.896  75.003  0.00  0.00     0.083 H 
ATOM     71  H53 non d ame      -8.697   9.035  72.880  0.00  0.00     0.084 H 
ENDBRANCH  58  61
ENDBRANCH  57  58
ENDBRANCH  55  57
ENDBRANCH  52  55
ENDBRANCH  49  52
ENDBRANCH  47  49
BRANCH  47  72
ATOM     72  C24 non d ame     -11.967  12.263  68.851  0.00  0.00    -0.039 C 
ATOM     73  H35 non d ame     -12.259  12.626  67.865  0.00  0.00     0.036 H 
ATOM     74  H36 non d ame     -12.658  11.652  69.432  0.00  0.00     0.036 H 
BRANCH  72  75
ATOM     75  C25 non d ame     -11.608  13.547  69.739  0.00  0.00    -0.001 C 
ATOM     76  C26 non d ame     -12.474  13.520  71.137  0.00  0.00    -0.035 C 
ATOM     77  C27 non d ame     -13.095  14.714  71.289  0.00  0.00     0.085 C 
ATOM     78  H38 non d ame     -13.299  12.813  71.052  0.00  0.00     0.036 H 
ATOM     79  H39 non d ame     -11.801  13.472  71.993  0.00  0.00     0.036 H 
ATOM     80  N5  non d ame     -12.997  15.434  69.966  0.00  0.00    -0.049 N 
ATOM     81  H40 non d ame     -14.141  14.476  71.487  0.00  0.00     0.075 H 
ATOM     82  H41 non d ame     -12.509  15.255  72.032  0.00  0.00     0.075 H 
ATOM     83  C28 non d ame     -11.880  14.642  69.111  0.00  0.00     0.193 C 
ATOM     84  H42 non d ame     -13.891  15.320  69.511  0.00  0.00     0.280 HD
ATOM     85  H43 non d ame     -12.648  16.360  70.169  0.00  0.00     0.280 HD
ATOM     86  H44 non d ame     -10.879  15.055  68.990  0.00  0.00     0.129 H 
ATOM     87  H37 non d ame     -10.533  13.702  69.825  0.00  0.00     0.046 H 
BRANCH  83  88
ATOM     88  O6  non d ame     -12.355  14.398  67.785  0.00  0.00    -0.369 OA
ATOM     89  H45 non d ame     -13.300  14.229  67.810  0.00  0.00     0.212 HD
ENDBRANCH  83  88
ENDBRANCH  72  75
ENDBRANCH  47  72
ENDBRANCH  45  47
ENDBRANCH   1  43
BRANCH   1  90
ATOM     90  C16 non d ame     -10.814  10.758  64.291  0.00  0.00    -0.035 C 
ATOM     91  H21 non d ame     -10.877  10.011  63.500  0.00  0.00     0.037 H 
ATOM     92  H22 non d ame     -11.523  10.734  65.120  0.00  0.00     0.037 H 
BRANCH  90  93
ATOM     93  C17 non d ame     -10.989  12.148  63.601  0.00  0.00    -0.059 C 
ATOM     94  H23 non d ame     -10.397  12.139  62.685  0.00  0.00     0.038 H 
BRANCH  93  95
ATOM     95  C18 non d ame     -12.474  12.427  63.205  0.00  0.00    -0.073 C 
ATOM     96  H24 non d ame     -12.739  11.821  62.339  0.00  0.00     0.028 H 
ATOM     97  H25 non d ame     -13.127  12.173  64.041  0.00  0.00     0.028 H 
ATOM     98  H26 non d ame     -12.593  13.483  62.960  0.00  0.00     0.028 H 
ENDBRANCH  93  95
BRANCH  93  99
ATOM     99  C19 non d ame     -10.440  13.271  64.485  0.00  0.00    -0.073 C 
ATOM    100  H27 non d ame     -10.430  14.205  63.923  0.00  0.00     0.028 H 
ATOM    101  H28 non d ame     -11.076  13.383  65.365  0.00  0.00     0.028 H 
ATOM    102  H29 non d ame      -9.427  13.024  64.799  0.00  0.00     0.028 H 
ENDBRANCH  93  99
ENDBRANCH  90  93
ENDBRANCH   1  90
TORSDOF 26
ENDMDL
MODEL 10
REMARK VINA RESULT:      -6.0      2.352      7.830
REMARK  26 active torsions:
REMARK  status: ('A' for Active; 'I' for Inactive)
REMARK    1  A    between atoms: C2_2  and  C3_3 
REMARK    2  A    between atoms: C4_6  and  C5_7 
REMARK       I    between atoms: C5_7  and  N2_9 
REMARK    3  A    between atoms: N2_9  and  C6_10 
REMARK    4  A    between atoms: C6_10  and  C7_11 
REMARK    5  A    between atoms: C6_10  and  C8_13 
REMARK       I    between atoms: C7_11  and  N3_14 
REMARK    6  A    between atoms: N3_14  and  C9_15 
REMARK    7  A    between atoms: C9_15  and  C10_16 
REMARK    8  A    between atoms: C9_15  and  C11_18 
REMARK       I    between atoms: C10_16  and  N4_21 
REMARK    9  A    between atoms: C11_18  and  C12_19 
REMARK   10  A    between atoms: C11_18  and  C13_20 
REMARK   11  A    between atoms: N4_21  and  C14_22 
REMARK   12  A    between atoms: C14_22  and  C15_23 
REMARK   13  A    between atoms: C14_22  and  C16_25 
REMARK       I    between atoms: C15_23  and  N6_40 
REMARK   14  A    between atoms: C16_25  and  C17_26 
REMARK   15  A    between atoms: C17_26  and  C18_27 
REMARK   16  A    between atoms: C17_26  and  C19_28 
REMARK   17  A    between atoms: C20_29  and  C21_30 
REMARK   18  A    between atoms: C20_29  and  C24_33 
REMARK   19  A    between atoms: C20_29  and  N6_40 
REMARK   20  A    between atoms: C21_30  and  C22_31 
REMARK   21  A    between atoms: C22_31  and  C23_32 
REMARK   22  A    between atoms: C23_32  and  O8_43 
REMARK   23  A    between atoms: C24_33  and  C25_34 
REMARK   24  A    between atoms: C28_38  and  O6_39 
REMARK   25  A    between atoms: C29_42  and  O8_43 
REMARK   26  A    between atoms: C29_42  and  C35_49 
ROOT
ATOM      1  C14 non d ame     -11.442   9.819  68.813  0.00  0.00     0.089 C 
ATOM      2  H20 non d ame     -12.462  10.059  68.509  0.00  0.00     0.087 H 
ENDROOT
BRANCH   1   3
ATOM      3  N4  non d ame     -11.266   8.382  68.662  0.00  0.00    -0.346 N 
ATOM      4  C10 non d ame     -10.048   7.700  69.232  0.00  0.00     0.241 C 
ATOM      5  O4  non d ame      -9.222   8.329  69.806  0.00  0.00    -0.271 OA
ATOM      6  H19 non d ame     -11.980   7.866  68.168  0.00  0.00     0.163 HD
BRANCH   4   7
ATOM      7  C9  non d ame      -9.885   6.212  69.071  0.00  0.00     0.092 C 
ATOM      8  H11 non d ame     -10.801   5.794  68.653  0.00  0.00     0.088 H 
BRANCH   7   9
ATOM      9  N3  non d ame      -8.808   5.938  68.114  0.00  0.00    -0.346 N 
ATOM     10  C7  non d ame      -9.092   5.216  66.898  0.00  0.00     0.240 C 
ATOM     11  O3  non d ame     -10.179   4.846  66.674  0.00  0.00    -0.271 OA
ATOM     12  H10 non d ame      -7.865   6.250  68.294  0.00  0.00     0.163 HD
BRANCH  10  13
ATOM     13  C6  non d ame      -7.941   4.926  65.885  0.00  0.00     0.086 C 
ATOM     14  H6  non d ame      -8.230   4.214  65.112  0.00  0.00     0.086 H 
BRANCH  13  15
ATOM     15  N2  non d ame      -7.591   6.160  65.202  0.00  0.00    -0.343 N 
ATOM     16  C5  non d ame      -7.693   6.232  63.743  0.00  0.00     0.273 C 
ATOM     17  O2  non d ame      -8.055   5.291  63.127  0.00  0.00    -0.266 OA
ATOM     18  H5  non d ame      -7.280   6.959  65.737  0.00  0.00     0.163 HD
BRANCH  16  19
ATOM     19  C4  non d ame      -7.327   7.532  63.009  0.00  0.00     0.154 A 
ATOM     20  C1  non d ame      -8.226   8.459  62.392  0.00  0.00    -0.017 A 
ATOM     21  C2  non d ame      -7.397   9.473  61.864  0.00  0.00     0.077 A 
ATOM     22  H1  non d ame      -9.314   8.404  62.337  0.00  0.00     0.091 H 
ATOM     23  O1  non d ame      -6.168   9.156  62.150  0.00  0.00    -0.218 OA
ATOM     24  N1  non d ame      -6.102   8.028  62.818  0.00  0.00    -0.123 NA
BRANCH  21  25
ATOM     25  C3  non d ame      -7.857  10.708  61.101  0.00  0.00    -0.029 C 
ATOM     26  H2  non d ame      -7.724  11.592  61.726  0.00  0.00     0.036 H 
ATOM     27  H3  non d ame      -7.267  10.814  60.191  0.00  0.00     0.036 H 
ATOM     28  H4  non d ame      -8.911  10.603  60.840  0.00  0.00     0.036 H 
ENDBRANCH  21  25
ENDBRANCH  16  19
ENDBRANCH  13  15
BRANCH  13  29
ATOM     29  C8  non d ame      -6.743   4.385  66.622  0.00  0.00    -0.049 C 
ATOM     30  H7  non d ame      -6.937   4.403  67.695  0.00  0.00     0.030 H 
ATOM     31  H8  non d ame      -6.552   3.360  66.304  0.00  0.00     0.030 H 
ATOM     32  H9  non d ame      -5.872   5.002  66.401  0.00  0.00     0.030 H 
ENDBRANCH  13  29
ENDBRANCH  10  13
ENDBRANCH   7   9
BRANCH   7  33
ATOM     33  C11 non d ame      -9.525   5.577  70.446  0.00  0.00    -0.033 C 
ATOM     34  H12 non d ame      -8.732   6.179  70.888  0.00  0.00     0.042 H 
BRANCH  33  35
ATOM     35  C12 non d ame     -10.741   5.614  71.424  0.00  0.00    -0.071 C 
ATOM     36  H13 non d ame     -11.590   5.104  70.967  0.00  0.00     0.028 H 
ATOM     37  H14 non d ame     -10.475   5.111  72.354  0.00  0.00     0.028 H 
ATOM     38  H15 non d ame     -11.008   6.649  71.633  0.00  0.00     0.028 H 
ENDBRANCH  33  35
BRANCH  33  39
ATOM     39  C13 non d ame      -8.986   4.122  70.267  0.00  0.00    -0.071 C 
ATOM     40  H16 non d ame      -8.964   3.621  71.235  0.00  0.00     0.028 H 
ATOM     41  H17 non d ame      -9.639   3.573  69.588  0.00  0.00     0.028 H 
ATOM     42  H18 non d ame      -7.978   4.157  69.853  0.00  0.00     0.028 H 
ENDBRANCH  33  39
ENDBRANCH   7  33
ENDBRANCH   4   7
ENDBRANCH   1   3
BRANCH   1  43
ATOM     43  C15 non d ame     -10.381  10.544  67.936  0.00  0.00     0.240 C 
ATOM     44  O5  non d ame      -9.574  11.249  68.448  0.00  0.00    -0.271 OA
ATOM     45  N6  non d ame     -10.367  10.351  66.458  0.00  0.00    -0.355 N 
ATOM     46  H46 non d ame     -11.045   9.750  66.012  0.00  0.00     0.162 HD
BRANCH  45  47
ATOM     47  C20 non d ame      -9.351  11.045  65.638  0.00  0.00     0.013 C 
ATOM     48  H30 non d ame      -9.009  11.917  66.196  0.00  0.00     0.072 H 
BRANCH  47  49
ATOM     49  C21 non d ame      -9.976  11.481  64.332  0.00  0.00    -0.038 C 
ATOM     50  H31 non d ame      -9.160  11.505  63.609  0.00  0.00     0.036 H 
ATOM     51  H32 non d ame     -10.824  10.814  64.175  0.00  0.00     0.036 H 
BRANCH  49  52
ATOM     52  C22 non d ame     -10.550  12.913  64.390  0.00  0.00     0.018 C 
ATOM     53  H33 non d ame      -9.811  13.506  64.929  0.00  0.00     0.048 H 
ATOM     54  H34 non d ame     -10.810  13.169  63.363  0.00  0.00     0.048 H 
BRANCH  52  55
ATOM     55  C23 non d ame     -11.868  13.026  65.206  0.00  0.00     0.259 C 
ATOM     56  O7  non d ame     -12.730  12.219  65.074  0.00  0.00    -0.265 OA
BRANCH  55  57
ATOM     57  O8  non d ame     -12.039  14.114  66.106  0.00  0.00    -0.317 OA
BRANCH  57  58
ATOM     58  C29 non d ame     -10.859  14.454  66.839  0.00  0.00     0.052 C 
ATOM     59  H47 non d ame     -10.245  13.554  66.844  0.00  0.00     0.082 H 
ATOM     60  H48 non d ame     -10.481  15.369  66.383  0.00  0.00     0.082 H 
BRANCH  58  61
ATOM     61  C35 non d ame     -11.278  14.771  68.300  0.00  0.00    -0.034 A 
ATOM     62  C30 non d ame     -10.948  15.997  68.869  0.00  0.00    -0.075 A 
ATOM     63  C31 non d ame     -11.323  16.282  70.181  0.00  0.00    -0.082 A 
ATOM     64  H49 non d ame     -10.395  16.735  68.287  0.00  0.00     0.084 H 
ATOM     65  C32 non d ame     -12.030  15.333  70.926  0.00  0.00    -0.083 A 
ATOM     66  H50 non d ame     -11.066  17.244  70.623  0.00  0.00     0.083 H 
ATOM     67  C33 non d ame     -12.354  14.110  70.355  0.00  0.00    -0.082 A 
ATOM     68  H51 non d ame     -12.328  15.548  71.952  0.00  0.00     0.083 H 
ATOM     69  C34 non d ame     -11.982  13.822  69.043  0.00  0.00    -0.075 A 
ATOM     70  H52 non d ame     -12.903  13.371  70.939  0.00  0.00     0.083 H 
ATOM     71  H53 non d ame     -12.242  12.860  68.601  0.00  0.00     0.084 H 
ENDBRANCH  58  61
ENDBRANCH  57  58
ENDBRANCH  55  57
ENDBRANCH  52  55
ENDBRANCH  49  52
ENDBRANCH  47  49
BRANCH  47  72
ATOM     72  C24 non d ame      -8.183  10.103  65.356  0.00  0.00    -0.039 C 
ATOM     73  H35 non d ame      -8.526   9.115  65.665  0.00  0.00     0.036 H 
ATOM     74  H36 non d ame      -7.909  10.283  64.316  0.00  0.00     0.036 H 
BRANCH  72  75
ATOM     75  C25 non d ame      -6.903  10.461  66.250  0.00  0.00    -0.001 C 
ATOM     76  C26 non d ame      -5.579  10.632  65.291  0.00  0.00    -0.035 C 
ATOM     77  C27 non d ame      -4.580   9.862  65.785  0.00  0.00     0.085 C 
ATOM     78  H38 non d ame      -5.771  10.200  64.309  0.00  0.00     0.036 H 
ATOM     79  H39 non d ame      -5.185  11.645  65.374  0.00  0.00     0.036 H 
ATOM     80  N5  non d ame      -5.199   8.932  66.800  0.00  0.00    -0.049 N 
ATOM     81  H40 non d ame      -4.219   9.275  64.939  0.00  0.00     0.075 H 
ATOM     82  H41 non d ame      -3.908  10.550  66.297  0.00  0.00     0.075 H 
ATOM     83  C28 non d ame      -6.664   9.533  67.116  0.00  0.00     0.193 C 
ATOM     84  H42 non d ame      -5.310   8.040  66.341  0.00  0.00     0.280 HD
ATOM     85  H43 non d ame      -4.636   9.004  67.635  0.00  0.00     0.280 HD
ATOM     86  H44 non d ame      -6.852  10.074  68.044  0.00  0.00     0.129 H 
ATOM     87  H37 non d ame      -7.107  11.262  66.961  0.00  0.00     0.046 H 
BRANCH  83  88
ATOM     88  O6  non d ame      -7.642   8.493  67.076  0.00  0.00    -0.369 OA
ATOM     89  H45 non d ame      -7.344   7.796  66.487  0.00  0.00     0.212 HD
ENDBRANCH  83  88
ENDBRANCH  72  75
ENDBRANCH  47  72
ENDBRANCH  45  47
ENDBRANCH   1  43
BRANCH   1  90
ATOM     90  C16 non d ame     -11.240  10.193  70.273  0.00  0.00    -0.035 C 
ATOM     91  H21 non d ame     -10.360   9.635  70.595  0.00  0.00     0.037 H 
ATOM     92  H22 non d ame     -11.232  11.283  70.294  0.00  0.00     0.037 H 
BRANCH  90  93
ATOM     93  C17 non d ame     -12.412   9.743  71.203  0.00  0.00    -0.059 C 
ATOM     94  H23 non d ame     -13.148   9.231  70.583  0.00  0.00     0.038 H 
BRANCH  93  95
ATOM     95  C18 non d ame     -11.938   8.742  72.305  0.00  0.00    -0.073 C 
ATOM     96  H24 non d ame     -10.856   8.811  72.418  0.00  0.00     0.028 H 
ATOM     97  H25 non d ame     -12.419   8.989  73.252  0.00  0.00     0.028 H 
ATOM     98  H26 non d ame     -12.209   7.726  72.014  0.00  0.00     0.028 H 
ENDBRANCH  93  95
BRANCH  93  99
ATOM     99  C19 non d ame     -13.108  10.953  71.830  0.00  0.00    -0.073 C 
ATOM    100  H27 non d ame     -13.886  11.314  71.157  0.00  0.00     0.028 H 
ATOM    101  H28 non d ame     -13.555  10.663  72.781  0.00  0.00     0.028 H 
ATOM    102  H29 non d ame     -12.378  11.745  71.999  0.00  0.00     0.028 H 
ENDBRANCH  93  99
ENDBRANCH  90  93
ENDBRANCH   1  90
TORSDOF 26
ENDMDL
MODEL 11
REMARK VINA RESULT:      -6.0      2.192      4.710
REMARK  26 active torsions:
REMARK  status: ('A' for Active; 'I' for Inactive)
REMARK    1  A    between atoms: C2_2  and  C3_3 
REMARK    2  A    between atoms: C4_6  and  C5_7 
REMARK       I    between atoms: C5_7  and  N2_9 
REMARK    3  A    between atoms: N2_9  and  C6_10 
REMARK    4  A    between atoms: C6_10  and  C7_11 
REMARK    5  A    between atoms: C6_10  and  C8_13 
REMARK       I    between atoms: C7_11  and  N3_14 
REMARK    6  A    between atoms: N3_14  and  C9_15 
REMARK    7  A    between atoms: C9_15  and  C10_16 
REMARK    8  A    between atoms: C9_15  and  C11_18 
REMARK       I    between atoms: C10_16  and  N4_21 
REMARK    9  A    between atoms: C11_18  and  C12_19 
REMARK   10  A    between atoms: C11_18  and  C13_20 
REMARK   11  A    between atoms: N4_21  and  C14_22 
REMARK   12  A    between atoms: C14_22  and  C15_23 
REMARK   13  A    between atoms: C14_22  and  C16_25 
REMARK       I    between atoms: C15_23  and  N6_40 
REMARK   14  A    between atoms: C16_25  and  C17_26 
REMARK   15  A    between atoms: C17_26  and  C18_27 
REMARK   16  A    between atoms: C17_26  and  C19_28 
REMARK   17  A    between atoms: C20_29  and  C21_30 
REMARK   18  A    between atoms: C20_29  and  C24_33 
REMARK   19  A    between atoms: C20_29  and  N6_40 
REMARK   20  A    between atoms: C21_30  and  C22_31 
REMARK   21  A    between atoms: C22_31  and  C23_32 
REMARK   22  A    between atoms: C23_32  and  O8_43 
REMARK   23  A    between atoms: C24_33  and  C25_34 
REMARK   24  A    between atoms: C28_38  and  O6_39 
REMARK   25  A    between atoms: C29_42  and  O8_43 
REMARK   26  A    between atoms: C29_42  and  C35_49 
ROOT
ATOM      1  C14 non d ame      -9.657   8.528  67.570  0.00  0.00     0.089 C 
ATOM      2  H20 non d ame      -9.076   8.539  68.493  0.00  0.00     0.087 H 
ENDROOT
BRANCH   1   3
ATOM      3  N4  non d ame      -8.795   9.020  66.505  0.00  0.00    -0.346 N 
ATOM      4  C10 non d ame      -7.311   8.754  66.542  0.00  0.00     0.241 C 
ATOM      5  O4  non d ame      -6.833   8.144  67.440  0.00  0.00    -0.271 OA
ATOM      6  H19 non d ame      -9.222   9.539  65.751  0.00  0.00     0.163 HD
BRANCH   4   7
ATOM      7  C9  non d ame      -6.436   9.265  65.428  0.00  0.00     0.092 C 
ATOM      8  H11 non d ame      -6.116   8.426  64.810  0.00  0.00     0.088 H 
BRANCH   7   9
ATOM      9  N3  non d ame      -7.212  10.165  64.569  0.00  0.00    -0.346 N 
ATOM     10  C7  non d ame      -7.564   9.758  63.231  0.00  0.00     0.240 C 
ATOM     11  O3  non d ame      -7.231   8.710  62.829  0.00  0.00    -0.271 OA
ATOM     12  H10 non d ame      -7.505  11.072  64.902  0.00  0.00     0.163 HD
BRANCH  10  13
ATOM     13  C6  non d ame      -8.388  10.721  62.321  0.00  0.00     0.086 C 
ATOM     14  H6  non d ame      -9.202  10.217  61.802  0.00  0.00     0.086 H 
BRANCH  13  15
ATOM     15  N2  non d ame      -8.996  11.748  63.150  0.00  0.00    -0.343 N 
ATOM     16  C5  non d ame     -10.396  11.610  63.559  0.00  0.00     0.273 C 
ATOM     17  O2  non d ame     -11.024  10.670  63.213  0.00  0.00    -0.266 OA
ATOM     18  H5  non d ame      -8.453  12.549  63.439  0.00  0.00     0.163 HD
BRANCH  16  19
ATOM     19  C4  non d ame     -11.052  12.687  64.437  0.00  0.00     0.154 A 
ATOM     20  C1  non d ame     -10.817  12.930  65.828  0.00  0.00    -0.017 A 
ATOM     21  C2  non d ame     -11.658  14.017  66.154  0.00  0.00     0.077 A 
ATOM     22  H1  non d ame     -10.141  12.398  66.497  0.00  0.00     0.091 H 
ATOM     23  O1  non d ame     -12.295  14.353  65.070  0.00  0.00    -0.218 OA
ATOM     24  N1  non d ame     -11.958  13.591  64.055  0.00  0.00    -0.123 NA
BRANCH  21  25
ATOM     25  C3  non d ame     -11.792  14.675  67.521  0.00  0.00    -0.029 C 
ATOM     26  H2  non d ame     -11.178  15.575  67.553  0.00  0.00     0.036 H 
ATOM     27  H3  non d ame     -12.835  14.940  67.695  0.00  0.00     0.036 H 
ATOM     28  H4  non d ame     -11.460  13.980  68.293  0.00  0.00     0.036 H 
ENDBRANCH  21  25
ENDBRANCH  16  19
ENDBRANCH  13  15
BRANCH  13  29
ATOM     29  C8  non d ame      -7.477  11.354  61.300  0.00  0.00    -0.049 C 
ATOM     30  H7  non d ame      -7.991  11.414  60.341  0.00  0.00     0.030 H 
ATOM     31  H8  non d ame      -7.203  12.356  61.630  0.00  0.00     0.030 H 
ATOM     32  H9  non d ame      -6.578  10.748  61.192  0.00  0.00     0.030 H 
ENDBRANCH  13  29
ENDBRANCH  10  13
ENDBRANCH   7   9
BRANCH   7  33
ATOM     33  C11 non d ame      -5.229  10.041  66.032  0.00  0.00    -0.033 C 
ATOM     34  H12 non d ame      -4.783   9.410  66.800  0.00  0.00     0.042 H 
BRANCH  33  35
ATOM     35  C12 non d ame      -4.133  10.315  64.956  0.00  0.00    -0.071 C 
ATOM     36  H13 non d ame      -4.568  10.216  63.961  0.00  0.00     0.028 H 
ATOM     37  H14 non d ame      -3.743  11.325  65.082  0.00  0.00     0.028 H 
ATOM     38  H15 non d ame      -3.323   9.595  65.071  0.00  0.00     0.028 H 
ENDBRANCH  33  35
BRANCH  33  39
ATOM     39  C13 non d ame      -5.701  11.368  66.710  0.00  0.00    -0.071 C 
ATOM     40  H16 non d ame      -6.080  12.050  65.950  0.00  0.00     0.028 H 
ATOM     41  H17 non d ame      -6.491  11.148  67.428  0.00  0.00     0.028 H 
ATOM     42  H18 non d ame      -4.859  11.830  67.226  0.00  0.00     0.028 H 
ENDBRANCH  33  39
ENDBRANCH   7  33
ENDBRANCH   4   7
ENDBRANCH   1   3
BRANCH   1  43
ATOM     43  C15 non d ame     -10.139   7.097  67.197  0.00  0.00     0.240 C 
ATOM     44  O5  non d ame     -11.243   6.934  66.789  0.00  0.00    -0.271 OA
ATOM     45  N6  non d ame      -9.221   5.932  67.339  0.00  0.00    -0.355 N 
ATOM     46  H46 non d ame      -8.279   6.059  67.680  0.00  0.00     0.162 HD
BRANCH  45  47
ATOM     47  C20 non d ame      -9.694   4.578  66.978  0.00  0.00     0.013 C 
ATOM     48  H30 non d ame     -10.773   4.627  66.833  0.00  0.00     0.072 H 
BRANCH  47  49
ATOM     49  C21 non d ame      -9.367   3.619  68.100  0.00  0.00    -0.038 C 
ATOM     50  H31 non d ame     -10.319   3.177  68.397  0.00  0.00     0.036 H 
ATOM     51  H32 non d ame      -8.567   2.984  67.721  0.00  0.00     0.036 H 
BRANCH  49  52
ATOM     52  C22 non d ame      -8.806   4.329  69.351  0.00  0.00     0.018 C 
ATOM     53  H33 non d ame      -8.104   3.625  69.800  0.00  0.00     0.048 H 
ATOM     54  H34 non d ame      -8.456   5.302  69.006  0.00  0.00     0.048 H 
BRANCH  52  55
ATOM     55  C23 non d ame      -9.876   4.619  70.440  0.00  0.00     0.259 C 
ATOM     56  O7  non d ame      -9.899   3.990  71.447  0.00  0.00    -0.265 OA
BRANCH  55  57
ATOM     57  O8  non d ame     -10.840   5.641  70.214  0.00  0.00    -0.317 OA
BRANCH  57  58
ATOM     58  C29 non d ame     -10.520   6.890  70.833  0.00  0.00     0.052 C 
ATOM     59  H47 non d ame      -9.957   6.639  71.731  0.00  0.00     0.082 H 
ATOM     60  H48 non d ame     -10.059   7.497  70.053  0.00  0.00     0.082 H 
BRANCH  58  61
ATOM     61  C35 non d ame     -11.850   7.567  71.259  0.00  0.00    -0.034 A 
ATOM     62  C30 non d ame     -11.834   8.839  71.824  0.00  0.00    -0.075 A 
ATOM     63  C31 non d ame     -13.028   9.447  72.208  0.00  0.00    -0.082 A 
ATOM     64  H49 non d ame     -10.887   9.358  71.966  0.00  0.00     0.084 H 
ATOM     65  C32 non d ame     -14.242   8.778  72.027  0.00  0.00    -0.083 A 
ATOM     66  H50 non d ame     -13.013  10.444  72.648  0.00  0.00     0.083 H 
ATOM     67  C33 non d ame     -14.252   7.508  71.466  0.00  0.00    -0.082 A 
ATOM     68  H51 non d ame     -15.180   9.247  72.324  0.00  0.00     0.083 H 
ATOM     69  C34 non d ame     -13.061   6.897  71.079  0.00  0.00    -0.075 A 
ATOM     70  H52 non d ame     -15.201   6.988  71.328  0.00  0.00     0.083 H 
ATOM     71  H53 non d ame     -13.078   5.900  70.638  0.00  0.00     0.084 H 
ENDBRANCH  58  61
ENDBRANCH  57  58
ENDBRANCH  55  57
ENDBRANCH  52  55
ENDBRANCH  49  52
ENDBRANCH  47  49
BRANCH  47  72
ATOM     72  C24 non d ame      -9.007   4.115  65.695  0.00  0.00    -0.039 C 
ATOM     73  H35 non d ame      -7.975   3.903  65.979  0.00  0.00     0.036 H 
ATOM     74  H36 non d ame      -9.637   3.319  65.299  0.00  0.00     0.036 H 
BRANCH  72  75
ATOM     75  C25 non d ame      -8.964   5.277  64.593  0.00  0.00    -0.001 C 
ATOM     76  C26 non d ame      -9.355   4.665  63.118  0.00  0.00    -0.035 C 
ATOM     77  C27 non d ame      -8.401   5.029  62.228  0.00  0.00     0.085 C 
ATOM     78  H38 non d ame      -9.285   3.577  63.135  0.00  0.00     0.036 H 
ATOM     79  H39 non d ame     -10.255   5.148  62.739  0.00  0.00     0.036 H 
ATOM     80  N5  non d ame      -7.231   5.555  63.024  0.00  0.00    -0.049 N 
ATOM     81  H40 non d ame      -8.104   4.108  61.726  0.00  0.00     0.075 H 
ATOM     82  H41 non d ame      -8.836   5.847  61.654  0.00  0.00     0.075 H 
ATOM     83  C28 non d ame      -7.789   5.807  64.518  0.00  0.00     0.193 C 
ATOM     84  H42 non d ame      -6.550   4.811  63.057  0.00  0.00     0.280 HD
ATOM     85  H43 non d ame      -6.987   6.447  62.618  0.00  0.00     0.280 HD
ATOM     86  H44 non d ame      -8.005   6.818  64.865  0.00  0.00     0.129 H 
ATOM     87  H37 non d ame      -9.497   6.172  64.916  0.00  0.00     0.046 H 
BRANCH  83  88
ATOM     88  O6  non d ame      -6.887   5.257  65.480  0.00  0.00    -0.369 OA
ATOM     89  H45 non d ame      -6.785   4.316  65.322  0.00  0.00     0.212 HD
ENDBRANCH  83  88
ENDBRANCH  72  75
ENDBRANCH  47  72
ENDBRANCH  45  47
ENDBRANCH   1  43
BRANCH   1  90
ATOM     90  C16 non d ame     -10.856   9.453  67.705  0.00  0.00    -0.035 C 
ATOM     91  H21 non d ame     -11.051   9.821  66.698  0.00  0.00     0.037 H 
ATOM     92  H22 non d ame     -11.613   8.869  68.228  0.00  0.00     0.037 H 
BRANCH  90  93
ATOM     93  C17 non d ame     -10.580  10.711  68.589  0.00  0.00    -0.059 C 
ATOM     94  H23 non d ame     -10.138  11.474  67.949  0.00  0.00     0.038 H 
BRANCH  93  95
ATOM     95  C18 non d ame     -11.892  11.302  69.199  0.00  0.00    -0.073 C 
ATOM     96  H24 non d ame     -11.715  12.330  69.514  0.00  0.00     0.028 H 
ATOM     97  H25 non d ame     -12.682  11.282  68.448  0.00  0.00     0.028 H 
ATOM     98  H26 non d ame     -12.194  10.704  70.059  0.00  0.00     0.028 H 
ENDBRANCH  93  95
BRANCH  93  99
ATOM     99  C19 non d ame      -9.563  10.395  69.689  0.00  0.00    -0.073 C 
ATOM    100  H27 non d ame     -10.085  10.239  70.633  0.00  0.00     0.028 H 
ATOM    101  H28 non d ame      -9.012   9.492  69.425  0.00  0.00     0.028 H 
ATOM    102  H29 non d ame      -8.868  11.227  69.791  0.00  0.00     0.028 H 
ENDBRANCH  93  99
ENDBRANCH  90  93
ENDBRANCH   1  90
TORSDOF 26
ENDMDL
MODEL 12
REMARK VINA RESULT:      -6.0      2.624      8.074
REMARK  26 active torsions:
REMARK  status: ('A' for Active; 'I' for Inactive)
REMARK    1  A    between atoms: C2_2  and  C3_3 
REMARK    2  A    between atoms: C4_6  and  C5_7 
REMARK       I    between atoms: C5_7  and  N2_9 
REMARK    3  A    between atoms: N2_9  and  C6_10 
REMARK    4  A    between atoms: C6_10  and  C7_11 
REMARK    5  A    between atoms: C6_10  and  C8_13 
REMARK       I    between atoms: C7_11  and  N3_14 
REMARK    6  A    between atoms: N3_14  and  C9_15 
REMARK    7  A    between atoms: C9_15  and  C10_16 
REMARK    8  A    between atoms: C9_15  and  C11_18 
REMARK       I    between atoms: C10_16  and  N4_21 
REMARK    9  A    between atoms: C11_18  and  C12_19 
REMARK   10  A    between atoms: C11_18  and  C13_20 
REMARK   11  A    between atoms: N4_21  and  C14_22 
REMARK   12  A    between atoms: C14_22  and  C15_23 
REMARK   13  A    between atoms: C14_22  and  C16_25 
REMARK       I    between atoms: C15_23  and  N6_40 
REMARK   14  A    between atoms: C16_25  and  C17_26 
REMARK   15  A    between atoms: C17_26  and  C18_27 
REMARK   16  A    between atoms: C17_26  and  C19_28 
REMARK   17  A    between atoms: C20_29  and  C21_30 
REMARK   18  A    between atoms: C20_29  and  C24_33 
REMARK   19  A    between atoms: C20_29  and  N6_40 
REMARK   20  A    between atoms: C21_30  and  C22_31 
REMARK   21  A    between atoms: C22_31  and  C23_32 
REMARK   22  A    between atoms: C23_32  and  O8_43 
REMARK   23  A    between atoms: C24_33  and  C25_34 
REMARK   24  A    between atoms: C28_38  and  O6_39 
REMARK   25  A    between atoms: C29_42  and  O8_43 
REMARK   26  A    between atoms: C29_42  and  C35_49 
ROOT
ATOM      1  C14 non d ame      -9.483  10.589  64.855  0.00  0.00     0.089 C 
ATOM      2  H20 non d ame      -8.727  11.089  64.248  0.00  0.00     0.087 H 
ENDROOT
BRANCH   1   3
ATOM      3  N4  non d ame      -9.169   9.168  64.863  0.00  0.00    -0.346 N 
ATOM      4  C10 non d ame      -7.742   8.702  64.713  0.00  0.00     0.241 C 
ATOM      5  O4  non d ame      -6.864   9.490  64.584  0.00  0.00    -0.271 OA
ATOM      6  H19 non d ame      -9.931   8.513  64.971  0.00  0.00     0.163 HD
BRANCH   4   7
ATOM      7  C9  non d ame      -7.435   7.228  64.728  0.00  0.00     0.092 C 
ATOM      8  H11 non d ame      -6.629   7.037  65.437  0.00  0.00     0.088 H 
BRANCH   7   9
ATOM      9  N3  non d ame      -8.610   6.488  65.199  0.00  0.00    -0.346 N 
ATOM     10  C7  non d ame      -8.445   5.367  66.092  0.00  0.00     0.240 C 
ATOM     11  O3  non d ame      -7.375   5.046  66.441  0.00  0.00    -0.271 OA
ATOM     12  H10 non d ame      -9.539   6.752  64.905  0.00  0.00     0.163 HD
BRANCH  10  13
ATOM     13  C6  non d ame      -9.700   4.582  66.587  0.00  0.00     0.086 C 
ATOM     14  H6  non d ame      -9.451   3.600  66.989  0.00  0.00     0.086 H 
BRANCH  13  15
ATOM     15  N2  non d ame     -10.327   5.327  67.666  0.00  0.00    -0.343 N 
ATOM     16  C5  non d ame     -10.101   4.914  69.053  0.00  0.00     0.273 C 
ATOM     17  O2  non d ame      -9.415   3.981  69.290  0.00  0.00    -0.266 OA
ATOM     18  H5  non d ame     -10.913   6.122  67.454  0.00  0.00     0.163 HD
BRANCH  16  19
ATOM     19  C4  non d ame     -10.756   5.693  70.204  0.00  0.00     0.154 A 
ATOM     20  C1  non d ame     -11.722   6.744  70.098  0.00  0.00    -0.017 A 
ATOM     21  C2  non d ame     -12.000   7.119  71.431  0.00  0.00     0.077 A 
ATOM     22  H1  non d ame     -12.156   7.168  69.192  0.00  0.00     0.091 H 
ATOM     23  O1  non d ame     -11.274   6.365  72.204  0.00  0.00    -0.218 OA
ATOM     24  N1  non d ame     -10.539   5.526  71.512  0.00  0.00    -0.123 NA
BRANCH  21  25
ATOM     25  C3  non d ame     -12.970   8.204  71.879  0.00  0.00    -0.029 C 
ATOM     26  H2  non d ame     -12.569   8.710  72.758  0.00  0.00     0.036 H 
ATOM     27  H3  non d ame     -13.105   8.926  71.073  0.00  0.00     0.036 H 
ATOM     28  H4  non d ame     -13.931   7.753  72.127  0.00  0.00     0.036 H 
ENDBRANCH  21  25
ENDBRANCH  16  19
ENDBRANCH  13  15
BRANCH  13  29
ATOM     29  C8  non d ame     -10.670   4.410  65.446  0.00  0.00    -0.049 C 
ATOM     30  H7  non d ame     -10.419   5.106  64.646  0.00  0.00     0.030 H 
ATOM     31  H8  non d ame     -10.612   3.388  65.070  0.00  0.00     0.030 H 
ATOM     32  H9  non d ame     -11.682   4.611  65.797  0.00  0.00     0.030 H 
ENDBRANCH  13  29
ENDBRANCH  10  13
ENDBRANCH   7   9
BRANCH   7  33
ATOM     33  C11 non d ame      -7.072   6.758  63.289  0.00  0.00    -0.033 C 
ATOM     34  H12 non d ame      -7.079   7.638  62.645  0.00  0.00     0.042 H 
BRANCH  33  35
ATOM     35  C12 non d ame      -5.636   6.150  63.235  0.00  0.00    -0.071 C 
ATOM     36  H13 non d ame      -5.447   5.753  62.237  0.00  0.00     0.028 H 
ATOM     37  H14 non d ame      -4.904   6.925  63.461  0.00  0.00     0.028 H 
ATOM     38  H15 non d ame      -5.554   5.347  63.967  0.00  0.00     0.028 H 
ENDBRANCH  33  35
BRANCH  33  39
ATOM     39  C13 non d ame      -8.135   5.751  62.744  0.00  0.00    -0.071 C 
ATOM     40  H16 non d ame      -7.788   5.331  61.801  0.00  0.00     0.028 H 
ATOM     41  H17 non d ame      -8.279   4.948  63.468  0.00  0.00     0.028 H 
ATOM     42  H18 non d ame      -9.079   6.271  62.585  0.00  0.00     0.028 H 
ENDBRANCH  33  39
ENDBRANCH   7  33
ENDBRANCH   4   7
ENDBRANCH   1   3
BRANCH   1  43
ATOM     43  C15 non d ame      -9.490  11.102  66.324  0.00  0.00     0.240 C 
ATOM     44  O5  non d ame      -8.527  11.639  66.767  0.00  0.00    -0.271 OA
ATOM     45  N6  non d ame     -10.703  10.933  67.175  0.00  0.00    -0.355 N 
ATOM     46  H46 non d ame     -11.529  10.483  66.807  0.00  0.00     0.162 HD
BRANCH  45  47
ATOM     47  C20 non d ame     -10.695  11.427  68.568  0.00  0.00     0.013 C 
ATOM     48  H30 non d ame      -9.820  12.065  68.693  0.00  0.00     0.072 H 
BRANCH  47  49
ATOM     49  C21 non d ame     -10.616  10.252  69.516  0.00  0.00    -0.038 C 
ATOM     50  H31 non d ame     -10.922  10.636  70.489  0.00  0.00     0.036 H 
ATOM     51  H32 non d ame     -11.185   9.452  69.040  0.00  0.00     0.036 H 
BRANCH  49  52
ATOM     52  C22 non d ame      -9.177   9.718  69.690  0.00  0.00     0.018 C 
ATOM     53  H33 non d ame      -8.522  10.516  69.339  0.00  0.00     0.048 H 
ATOM     54  H34 non d ame      -9.113   9.375  70.723  0.00  0.00     0.048 H 
BRANCH  52  55
ATOM     55  C23 non d ame      -8.857   8.481  68.807  0.00  0.00     0.259 C 
ATOM     56  O7  non d ame      -9.513   8.239  67.846  0.00  0.00    -0.265 OA
BRANCH  55  57
ATOM     57  O8  non d ame      -7.775   7.629  69.167  0.00  0.00    -0.317 OA
BRANCH  57  58
ATOM     58  C29 non d ame      -6.593   8.327  69.567  0.00  0.00     0.052 C 
ATOM     59  H47 non d ame      -6.916   9.341  69.808  0.00  0.00     0.082 H 
ATOM     60  H48 non d ame      -6.129   7.707  70.334  0.00  0.00     0.082 H 
BRANCH  58  61
ATOM     61  C35 non d ame      -5.638   8.393  68.346  0.00  0.00    -0.034 A 
ATOM     62  C30 non d ame      -5.183   7.219  67.753  0.00  0.00    -0.075 A 
ATOM     63  C31 non d ame      -4.325   7.277  66.656  0.00  0.00    -0.082 A 
ATOM     64  H49 non d ame      -5.500   6.253  68.148  0.00  0.00     0.084 H 
ATOM     65  C32 non d ame      -3.920   8.516  66.153  0.00  0.00    -0.083 A 
ATOM     66  H50 non d ame      -3.973   6.356  66.192  0.00  0.00     0.083 H 
ATOM     67  C33 non d ame      -4.373   9.685  66.750  0.00  0.00    -0.082 A 
ATOM     68  H51 non d ame      -3.249   8.571  65.295  0.00  0.00     0.083 H 
ATOM     69  C34 non d ame      -5.232   9.631  67.845  0.00  0.00    -0.075 A 
ATOM     70  H52 non d ame      -4.053  10.650  66.356  0.00  0.00     0.083 H 
ATOM     71  H53 non d ame      -5.585  10.554  68.307  0.00  0.00     0.084 H 
ENDBRANCH  58  61
ENDBRANCH  57  58
ENDBRANCH  55  57
ENDBRANCH  52  55
ENDBRANCH  49  52
ENDBRANCH  47  49
BRANCH  47  72
ATOM     72  C24 non d ame     -11.972  12.219  68.843  0.00  0.00    -0.039 C 
ATOM     73  H35 non d ame     -12.198  12.737  67.911  0.00  0.00     0.036 H 
ATOM     74  H36 non d ame     -12.679  11.496  69.249  0.00  0.00     0.036 H 
BRANCH  72  75
ATOM     75  C25 non d ame     -11.745  13.340  69.965  0.00  0.00    -0.001 C 
ATOM     76  C26 non d ame     -12.738  13.060  71.245  0.00  0.00    -0.035 C 
ATOM     77  C27 non d ame     -13.412  14.199  71.531  0.00  0.00     0.085 C 
ATOM     78  H38 non d ame     -13.526  12.362  70.961  0.00  0.00     0.036 H 
ATOM     79  H39 non d ame     -12.148  12.880  72.144  0.00  0.00     0.036 H 
ATOM     80  N5  non d ame     -13.214  15.135  70.363  0.00  0.00    -0.049 N 
ATOM     81  H40 non d ame     -14.463  13.912  71.581  0.00  0.00     0.075 H 
ATOM     82  H41 non d ame     -12.919  14.617  72.408  0.00  0.00     0.075 H 
ATOM     83  C28 non d ame     -11.994  14.520  69.503  0.00  0.00     0.193 C 
ATOM     84  H42 non d ame     -14.057  15.083  69.808  0.00  0.00     0.280 HD
ATOM     85  H43 non d ame     -12.919  16.020  70.751  0.00  0.00     0.280 HD
ATOM     86  H44 non d ame     -11.001  14.966  69.554  0.00  0.00     0.129 H 
ATOM     87  H37 non d ame     -10.688  13.498  70.182  0.00  0.00     0.046 H 
BRANCH  83  88
ATOM     88  O6  non d ame     -12.332  14.496  68.115  0.00  0.00    -0.369 OA
ATOM     89  H45 non d ame     -11.838  13.798  67.678  0.00  0.00     0.212 HD
ENDBRANCH  83  88
ENDBRANCH  72  75
ENDBRANCH  47  72
ENDBRANCH  45  47
ENDBRANCH   1  43
BRANCH   1  90
ATOM     90  C16 non d ame     -10.857  10.790  64.236  0.00  0.00    -0.035 C 
ATOM     91  H21 non d ame     -10.924  10.051  63.437  0.00  0.00     0.037 H 
ATOM     92  H22 non d ame     -11.557  10.755  65.071  0.00  0.00     0.037 H 
BRANCH  90  93
ATOM     93  C17 non d ame     -11.042  12.187  63.563  0.00  0.00    -0.059 C 
ATOM     94  H23 non d ame     -10.472  12.184  62.633  0.00  0.00     0.038 H 
BRANCH  93  95
ATOM     95  C18 non d ame     -12.535  12.475  63.205  0.00  0.00    -0.073 C 
ATOM     96  H24 non d ame     -12.634  12.593  62.126  0.00  0.00     0.028 H 
ATOM     97  H25 non d ame     -13.156  11.643  63.539  0.00  0.00     0.028 H 
ATOM     98  H26 non d ame     -12.857  13.391  63.702  0.00  0.00     0.028 H 
ENDBRANCH  93  95
BRANCH  93  99
ATOM     99  C19 non d ame     -10.468  13.299  64.444  0.00  0.00    -0.073 C 
ATOM    100  H27 non d ame     -10.030  12.862  65.342  0.00  0.00     0.028 H 
ATOM    101  H28 non d ame      -9.700  13.840  63.891  0.00  0.00     0.028 H 
ATOM    102  H29 non d ame     -11.265  13.987  64.726  0.00  0.00     0.028 H 
ENDBRANCH  93  99
ENDBRANCH  90  93
ENDBRANCH   1  90
TORSDOF 26
ENDMDL
MODEL 13
REMARK VINA RESULT:      -5.9      3.684      8.409
REMARK  26 active torsions:
REMARK  status: ('A' for Active; 'I' for Inactive)
REMARK    1  A    between atoms: C2_2  and  C3_3 
REMARK    2  A    between atoms: C4_6  and  C5_7 
REMARK       I    between atoms: C5_7  and  N2_9 
REMARK    3  A    between atoms: N2_9  and  C6_10 
REMARK    4  A    between atoms: C6_10  and  C7_11 
REMARK    5  A    between atoms: C6_10  and  C8_13 
REMARK       I    between atoms: C7_11  and  N3_14 
REMARK    6  A    between atoms: N3_14  and  C9_15 
REMARK    7  A    between atoms: C9_15  and  C10_16 
REMARK    8  A    between atoms: C9_15  and  C11_18 
REMARK       I    between atoms: C10_16  and  N4_21 
REMARK    9  A    between atoms: C11_18  and  C12_19 
REMARK   10  A    between atoms: C11_18  and  C13_20 
REMARK   11  A    between atoms: N4_21  and  C14_22 
REMARK   12  A    between atoms: C14_22  and  C15_23 
REMARK   13  A    between atoms: C14_22  and  C16_25 
REMARK       I    between atoms: C15_23  and  N6_40 
REMARK   14  A    between atoms: C16_25  and  C17_26 
REMARK   15  A    between atoms: C17_26  and  C18_27 
REMARK   16  A    between atoms: C17_26  and  C19_28 
REMARK   17  A    between atoms: C20_29  and  C21_30 
REMARK   18  A    between atoms: C20_29  and  C24_33 
REMARK   19  A    between atoms: C20_29  and  N6_40 
REMARK   20  A    between atoms: C21_30  and  C22_31 
REMARK   21  A    between atoms: C22_31  and  C23_32 
REMARK   22  A    between atoms: C23_32  and  O8_43 
REMARK   23  A    between atoms: C24_33  and  C25_34 
REMARK   24  A    between atoms: C28_38  and  O6_39 
REMARK   25  A    between atoms: C29_42  and  O8_43 
REMARK   26  A    between atoms: C29_42  and  C35_49 
ROOT
ATOM      1  C14 non d ame      -9.768  11.651  65.851  0.00  0.00     0.089 C 
ATOM      2  H20 non d ame      -9.338  11.760  64.855  0.00  0.00     0.087 H 
ENDROOT
BRANCH   1   3
ATOM      3  N4  non d ame      -9.377  10.343  66.357  0.00  0.00    -0.346 N 
ATOM      4  C10 non d ame      -8.223   9.600  65.733  0.00  0.00     0.241 C 
ATOM      5  O4  non d ame      -7.625  10.073  64.823  0.00  0.00    -0.271 OA
ATOM      6  H19 non d ame      -9.899   9.957  67.130  0.00  0.00     0.163 HD
BRANCH   4   7
ATOM      7  C9  non d ame      -7.828   8.250  66.273  0.00  0.00     0.092 C 
ATOM      8  H11 non d ame      -6.741   8.169  66.275  0.00  0.00     0.088 H 
BRANCH   7   9
ATOM      9  N3  non d ame      -8.274   8.130  67.664  0.00  0.00    -0.346 N 
ATOM     10  C7  non d ame      -7.303   8.059  68.729  0.00  0.00     0.240 C 
ATOM     11  O3  non d ame      -6.160   8.096  68.484  0.00  0.00    -0.271 OA
ATOM     12  H10 non d ame      -9.258   8.095  67.891  0.00  0.00     0.163 HD
BRANCH  10  13
ATOM     13  C6  non d ame      -7.785   7.929  70.207  0.00  0.00     0.086 C 
ATOM     14  H6  non d ame      -7.330   8.668  70.866  0.00  0.00     0.086 H 
BRANCH  13  15
ATOM     15  N2  non d ame      -9.220   8.154  70.258  0.00  0.00    -0.343 N 
ATOM     16  C5  non d ame      -9.836   8.605  71.507  0.00  0.00     0.273 C 
ATOM     17  O2  non d ame      -9.169   8.781  72.467  0.00  0.00    -0.266 OA
ATOM     18  H5  non d ame      -9.783   7.998  69.433  0.00  0.00     0.163 HD
BRANCH  16  19
ATOM     19  C4  non d ame     -11.352   8.848  71.575  0.00  0.00     0.154 A 
ATOM     20  C1  non d ame     -12.376   7.871  71.783  0.00  0.00    -0.017 A 
ATOM     21  C2  non d ame     -13.585   8.601  71.761  0.00  0.00     0.077 A 
ATOM     22  H1  non d ame     -12.260   6.797  71.929  0.00  0.00     0.091 H 
ATOM     23  O1  non d ame     -13.280   9.850  71.563  0.00  0.00    -0.218 OA
ATOM     24  N1  non d ame     -11.982  10.019  71.451  0.00  0.00    -0.123 NA
BRANCH  21  25
ATOM     25  C3  non d ame     -14.986   8.030  71.936  0.00  0.00    -0.029 C 
ATOM     26  H2  non d ame     -15.455   7.909  70.959  0.00  0.00     0.036 H 
ATOM     27  H3  non d ame     -14.924   7.062  72.433  0.00  0.00     0.036 H 
ATOM     28  H4  non d ame     -15.583   8.712  72.543  0.00  0.00     0.036 H 
ENDBRANCH  21  25
ENDBRANCH  16  19
ENDBRANCH  13  15
BRANCH  13  29
ATOM     29  C8  non d ame      -7.460   6.550  70.725  0.00  0.00    -0.049 C 
ATOM     30  H7  non d ame      -6.563   6.596  71.343  0.00  0.00     0.030 H 
ATOM     31  H8  non d ame      -8.294   6.180  71.320  0.00  0.00     0.030 H 
ATOM     32  H9  non d ame      -7.286   5.879  69.884  0.00  0.00     0.030 H 
ENDBRANCH  13  29
ENDBRANCH  10  13
ENDBRANCH   7   9
BRANCH   7  33
ATOM     33  C11 non d ame      -8.496   7.134  65.419  0.00  0.00    -0.033 C 
ATOM     34  H12 non d ame      -9.154   7.621  64.699  0.00  0.00     0.042 H 
BRANCH  33  35
ATOM     35  C12 non d ame      -7.435   6.324  64.611  0.00  0.00    -0.071 C 
ATOM     36  H13 non d ame      -6.722   7.012  64.156  0.00  0.00     0.028 H 
ATOM     37  H14 non d ame      -6.908   5.646  65.282  0.00  0.00     0.028 H 
ATOM     38  H15 non d ame      -7.934   5.749  63.831  0.00  0.00     0.028 H 
ENDBRANCH  33  35
BRANCH  33  39
ATOM     39  C13 non d ame      -9.368   6.193  66.311  0.00  0.00    -0.071 C 
ATOM     40  H16 non d ame      -9.023   6.249  67.343  0.00  0.00     0.028 H 
ATOM     41  H17 non d ame     -10.411   6.507  66.259  0.00  0.00     0.028 H 
ATOM     42  H18 non d ame      -9.279   5.168  65.952  0.00  0.00     0.028 H 
ENDBRANCH  33  39
ENDBRANCH   7  33
ENDBRANCH   4   7
ENDBRANCH   1   3
BRANCH   1  43
ATOM     43  C15 non d ame      -9.251  12.738  66.836  0.00  0.00     0.240 C 
ATOM     44  O5  non d ame      -9.198  12.504  68.000  0.00  0.00    -0.271 OA
ATOM     45  N6  non d ame      -8.812  14.069  66.327  0.00  0.00    -0.355 N 
ATOM     46  H46 non d ame      -8.848  14.277  65.340  0.00  0.00     0.162 HD
BRANCH  45  47
ATOM     47  C20 non d ame      -8.322  15.091  67.276  0.00  0.00     0.013 C 
ATOM     48  H30 non d ame      -8.760  14.881  68.251  0.00  0.00     0.072 H 
BRANCH  47  49
ATOM     49  C21 non d ame      -8.751  16.461  66.801  0.00  0.00    -0.038 C 
ATOM     50  H31 non d ame      -8.338  17.166  67.522  0.00  0.00     0.036 H 
ATOM     51  H32 non d ame      -8.454  16.515  65.753  0.00  0.00     0.036 H 
BRANCH  49  52
ATOM     52  C22 non d ame     -10.283  16.653  66.830  0.00  0.00     0.018 C 
ATOM     53  H33 non d ame     -10.486  17.510  66.188  0.00  0.00     0.048 H 
ATOM     54  H34 non d ame     -10.707  15.678  66.589  0.00  0.00     0.048 H 
BRANCH  52  55
ATOM     55  C23 non d ame     -10.840  17.027  68.232  0.00  0.00     0.259 C 
ATOM     56  O7  non d ame     -10.317  17.872  68.883  0.00  0.00    -0.265 OA
BRANCH  55  57
ATOM     57  O8  non d ame     -11.978  16.338  68.736  0.00  0.00    -0.317 OA
BRANCH  57  58
ATOM     58  C29 non d ame     -11.696  15.022  69.219  0.00  0.00     0.052 C 
ATOM     59  H47 non d ame     -12.295  14.348  68.607  0.00  0.00     0.082 H 
ATOM     60  H48 non d ame     -10.609  14.935  69.222  0.00  0.00     0.082 H 
BRANCH  58  61
ATOM     61  C35 non d ame     -12.198  14.932  70.685  0.00  0.00    -0.034 A 
ATOM     62  C30 non d ame     -12.915  13.818  71.108  0.00  0.00    -0.075 A 
ATOM     63  C31 non d ame     -13.367  13.737  72.425  0.00  0.00    -0.082 A 
ATOM     64  H49 non d ame     -13.123  13.008  70.409  0.00  0.00     0.084 H 
ATOM     65  C32 non d ame     -13.101  14.777  73.319  0.00  0.00    -0.083 A 
ATOM     66  H50 non d ame     -13.927  12.861  72.754  0.00  0.00     0.083 H 
ATOM     67  C33 non d ame     -12.388  15.889  72.891  0.00  0.00    -0.082 A 
ATOM     68  H51 non d ame     -13.450  14.722  74.350  0.00  0.00     0.083 H 
ATOM     69  C34 non d ame     -11.933  15.973  71.577  0.00  0.00    -0.075 A 
ATOM     70  H52 non d ame     -12.184  16.700  73.590  0.00  0.00     0.083 H 
ATOM     71  H53 non d ame     -11.372  16.849  71.248  0.00  0.00     0.084 H 
ENDBRANCH  58  61
ENDBRANCH  57  58
ENDBRANCH  55  57
ENDBRANCH  52  55
ENDBRANCH  49  52
ENDBRANCH  47  49
BRANCH  47  72
ATOM     72  C24 non d ame      -6.798  15.033  67.355  0.00  0.00    -0.039 C 
ATOM     73  H35 non d ame      -6.484  14.456  66.485  0.00  0.00     0.036 H 
ATOM     74  H36 non d ame      -6.473  16.068  67.468  0.00  0.00     0.036 H 
BRANCH  72  75
ATOM     75  C25 non d ame      -6.301  14.238  68.654  0.00  0.00    -0.001 C 
ATOM     76  C26 non d ame      -6.539  15.156  69.998  0.00  0.00    -0.035 C 
ATOM     77  C27 non d ame      -5.382  15.208  70.701  0.00  0.00     0.085 C 
ATOM     78  H38 non d ame      -6.713  16.193  69.715  0.00  0.00     0.036 H 
ATOM     79  H39 non d ame      -7.228  14.653  70.677  0.00  0.00     0.036 H 
ATOM     80  N5  non d ame      -4.292  14.684  69.797  0.00  0.00    -0.049 N 
ATOM     81  H40 non d ame      -5.206  16.267  70.893  0.00  0.00     0.075 H 
ATOM     82  H41 non d ame      -5.516  14.517  71.533  0.00  0.00     0.075 H 
ATOM     83  C28 non d ame      -5.046  13.948  68.573  0.00  0.00     0.193 C 
ATOM     84  H42 non d ame      -3.807  15.493  69.436  0.00  0.00     0.280 HD
ATOM     85  H43 non d ame      -3.789  13.989  70.329  0.00  0.00     0.280 HD
ATOM     86  H44 non d ame      -5.096  12.860  68.529  0.00  0.00     0.129 H 
ATOM     87  H37 non d ame      -6.676  13.214  68.680  0.00  0.00     0.046 H 
BRANCH  83  88
ATOM     88  O6  non d ame      -4.477  14.355  67.328  0.00  0.00    -0.369 OA
ATOM     89  H45 non d ame      -3.723  13.799  67.123  0.00  0.00     0.212 HD
ENDBRANCH  83  88
ENDBRANCH  72  75
ENDBRANCH  47  72
ENDBRANCH  45  47
ENDBRANCH   1  43
BRANCH   1  90
ATOM     90  C16 non d ame     -11.285  11.717  65.767  0.00  0.00    -0.035 C 
ATOM     91  H21 non d ame     -11.595  10.747  65.378  0.00  0.00     0.037 H 
ATOM     92  H22 non d ame     -11.615  12.038  66.756  0.00  0.00     0.037 H 
BRANCH  90  93
ATOM     93  C17 non d ame     -11.810  12.786  64.758  0.00  0.00    -0.059 C 
ATOM     94  H23 non d ame     -10.948  13.331  64.374  0.00  0.00     0.038 H 
BRANCH  93  95
ATOM     95  C18 non d ame     -12.544  12.136  63.540  0.00  0.00    -0.073 C 
ATOM     96  H24 non d ame     -13.335  11.480  63.901  0.00  0.00     0.028 H 
ATOM     97  H25 non d ame     -12.976  12.919  62.917  0.00  0.00     0.028 H 
ATOM     98  H26 non d ame     -11.830  11.557  62.954  0.00  0.00     0.028 H 
ENDBRANCH  93  95
BRANCH  93  99
ATOM     99  C19 non d ame     -12.715  13.802  65.459  0.00  0.00    -0.073 C 
ATOM    100  H27 non d ame     -12.438  14.810  65.150  0.00  0.00     0.028 H 
ATOM    101  H28 non d ame     -13.754  13.611  65.188  0.00  0.00     0.028 H 
ATOM    102  H29 non d ame     -12.599  13.708  66.539  0.00  0.00     0.028 H 
ENDBRANCH  93  99
ENDBRANCH  90  93
ENDBRANCH   1  90
TORSDOF 26
ENDMDL
MODEL 14
REMARK VINA RESULT:      -5.8      3.206      8.440
REMARK  26 active torsions:
REMARK  status: ('A' for Active; 'I' for Inactive)
REMARK    1  A    between atoms: C2_2  and  C3_3 
REMARK    2  A    between atoms: C4_6  and  C5_7 
REMARK       I    between atoms: C5_7  and  N2_9 
REMARK    3  A    between atoms: N2_9  and  C6_10 
REMARK    4  A    between atoms: C6_10  and  C7_11 
REMARK    5  A    between atoms: C6_10  and  C8_13 
REMARK       I    between atoms: C7_11  and  N3_14 
REMARK    6  A    between atoms: N3_14  and  C9_15 
REMARK    7  A    between atoms: C9_15  and  C10_16 
REMARK    8  A    between atoms: C9_15  and  C11_18 
REMARK       I    between atoms: C10_16  and  N4_21 
REMARK    9  A    between atoms: C11_18  and  C12_19 
REMARK   10  A    between atoms: C11_18  and  C13_20 
REMARK   11  A    between atoms: N4_21  and  C14_22 
REMARK   12  A    between atoms: C14_22  and  C15_23 
REMARK   13  A    between atoms: C14_22  and  C16_25 
REMARK       I    between atoms: C15_23  and  N6_40 
REMARK   14  A    between atoms: C16_25  and  C17_26 
REMARK   15  A    between atoms: C17_26  and  C18_27 
REMARK   16  A    between atoms: C17_26  and  C19_28 
REMARK   17  A    between atoms: C20_29  and  C21_30 
REMARK   18  A    between atoms: C20_29  and  C24_33 
REMARK   19  A    between atoms: C20_29  and  N6_40 
REMARK   20  A    between atoms: C21_30  and  C22_31 
REMARK   21  A    between atoms: C22_31  and  C23_32 
REMARK   22  A    between atoms: C23_32  and  O8_43 
REMARK   23  A    between atoms: C24_33  and  C25_34 
REMARK   24  A    between atoms: C28_38  and  O6_39 
REMARK   25  A    between atoms: C29_42  and  O8_43 
REMARK   26  A    between atoms: C29_42  and  C35_49 
ROOT
ATOM      1  C14 non d ame      -8.626  11.927  66.501  0.00  0.00     0.089 C 
ATOM      2  H20 non d ame      -7.699  12.479  66.655  0.00  0.00     0.087 H 
ENDROOT
BRANCH   1   3
ATOM      3  N4  non d ame      -8.277  10.634  65.931  0.00  0.00    -0.346 N 
ATOM      4  C10 non d ame      -6.853  10.337  65.533  0.00  0.00     0.241 C 
ATOM      5  O4  non d ame      -6.006  11.156  65.679  0.00  0.00    -0.271 OA
ATOM      6  H19 non d ame      -9.012   9.952  65.813  0.00  0.00     0.163 HD
BRANCH   4   7
ATOM      7  C9  non d ame      -6.508   8.992  64.950  0.00  0.00     0.092 C 
ATOM      8  H11 non d ame      -5.577   8.637  65.393  0.00  0.00     0.088 H 
BRANCH   7   9
ATOM      9  N3  non d ame      -7.552   8.024  65.301  0.00  0.00    -0.346 N 
ATOM     10  C7  non d ame      -7.187   6.701  65.744  0.00  0.00     0.240 C 
ATOM     11  O3  non d ame      -6.060   6.398  65.823  0.00  0.00    -0.271 OA
ATOM     12  H10 non d ame      -8.529   8.271  65.237  0.00  0.00     0.163 HD
BRANCH  10  13
ATOM     13  C6  non d ame      -8.303   5.675  66.114  0.00  0.00     0.086 C 
ATOM     14  H6  non d ame      -9.204   6.152  66.498  0.00  0.00     0.086 H 
BRANCH  13  15
ATOM     15  N2  non d ame      -8.694   4.951  64.915  0.00  0.00    -0.343 N 
ATOM     16  C5  non d ame     -10.065   4.455  64.787  0.00  0.00     0.273 C 
ATOM     17  O2  non d ame     -10.846   4.639  65.655  0.00  0.00    -0.266 OA
ATOM     18  H5  non d ame      -8.019   4.795  64.179  0.00  0.00     0.163 HD
BRANCH  16  19
ATOM     19  C4  non d ame     -10.493   3.690  63.525  0.00  0.00     0.154 A 
ATOM     20  C1  non d ame     -11.229   2.464  63.464  0.00  0.00    -0.017 A 
ATOM     21  C2  non d ame     -11.360   2.187  62.085  0.00  0.00     0.077 A 
ATOM     22  H1  non d ame     -11.610   1.868  64.293  0.00  0.00     0.091 H 
ATOM     23  O1  non d ame     -10.767   3.147  61.438  0.00  0.00    -0.218 OA
ATOM     24  N1  non d ame     -10.252   4.036  62.257  0.00  0.00    -0.123 NA
BRANCH  21  25
ATOM     25  C3  non d ame     -12.067   0.986  61.470  0.00  0.00    -0.029 C 
ATOM     26  H2  non d ame     -11.665   0.068  61.898  0.00  0.00     0.036 H 
ATOM     27  H3  non d ame     -13.135   1.047  61.679  0.00  0.00     0.036 H 
ATOM     28  H4  non d ame     -11.908   0.984  60.391  0.00  0.00     0.036 H 
ENDBRANCH  21  25
ENDBRANCH  16  19
ENDBRANCH  13  15
BRANCH  13  29
ATOM     29  C8  non d ame      -7.781   4.712  67.150  0.00  0.00    -0.049 C 
ATOM     30  H7  non d ame      -7.411   5.270  68.011  0.00  0.00     0.030 H 
ATOM     31  H8  non d ame      -8.585   4.048  67.467  0.00  0.00     0.030 H 
ATOM     32  H9  non d ame      -6.969   4.124  66.724  0.00  0.00     0.030 H 
ENDBRANCH  13  29
ENDBRANCH  10  13
ENDBRANCH   7   9
BRANCH   7  33
ATOM     33  C11 non d ame      -6.412   9.108  63.400  0.00  0.00    -0.033 C 
ATOM     34  H12 non d ame      -6.124  10.133  63.165  0.00  0.00     0.042 H 
BRANCH  33  35
ATOM     35  C12 non d ame      -5.307   8.167  62.827  0.00  0.00    -0.071 C 
ATOM     36  H13 non d ame      -5.695   7.640  61.955  0.00  0.00     0.028 H 
ATOM     37  H14 non d ame      -4.440   8.760  62.536  0.00  0.00     0.028 H 
ATOM     38  H15 non d ame      -5.014   7.445  63.589  0.00  0.00     0.028 H 
ENDBRANCH  33  35
BRANCH  33  39
ATOM     39  C13 non d ame      -7.796   8.829  62.732  0.00  0.00    -0.071 C 
ATOM     40  H16 non d ame      -8.557   8.719  63.504  0.00  0.00     0.028 H 
ATOM     41  H17 non d ame      -8.059   9.661  62.079  0.00  0.00     0.028 H 
ATOM     42  H18 non d ame      -7.738   7.912  62.146  0.00  0.00     0.028 H 
ENDBRANCH  33  39
ENDBRANCH   7  33
ENDBRANCH   4   7
ENDBRANCH   1   3
BRANCH   1  43
ATOM     43  C15 non d ame      -9.396  11.689  67.832  0.00  0.00     0.240 C 
ATOM     44  O5  non d ame      -9.052  10.821  68.567  0.00  0.00    -0.271 OA
ATOM     45  N6  non d ame     -10.557  12.551  68.194  0.00  0.00    -0.355 N 
ATOM     46  H46 non d ame     -10.856  13.295  67.580  0.00  0.00     0.162 HD
BRANCH  45  47
ATOM     47  C20 non d ame     -11.278  12.313  69.464  0.00  0.00     0.013 C 
ATOM     48  H30 non d ame     -10.551  12.349  70.274  0.00  0.00     0.072 H 
BRANCH  47  49
ATOM     49  C21 non d ame     -11.935  10.952  69.418  0.00  0.00    -0.038 C 
ATOM     50  H31 non d ame     -13.008  11.143  69.398  0.00  0.00     0.036 H 
ATOM     51  H32 non d ame     -11.460  10.424  68.591  0.00  0.00     0.036 H 
BRANCH  49  52
ATOM     52  C22 non d ame     -11.664  10.113  70.686  0.00  0.00     0.018 C 
ATOM     53  H33 non d ame     -10.994   9.312  70.372  0.00  0.00     0.048 H 
ATOM     54  H34 non d ame     -11.343  10.824  71.447  0.00  0.00     0.048 H 
BRANCH  52  55
ATOM     55  C23 non d ame     -12.929   9.415  71.257  0.00  0.00     0.259 C 
ATOM     56  O7  non d ame     -13.981   9.967  71.242  0.00  0.00    -0.265 OA
BRANCH  55  57
ATOM     57  O8  non d ame     -12.814   8.111  71.813  0.00  0.00    -0.317 OA
BRANCH  57  58
ATOM     58  C29 non d ame     -11.522   7.819  72.352  0.00  0.00     0.052 C 
ATOM     59  H47 non d ame     -10.910   8.696  72.142  0.00  0.00     0.082 H 
ATOM     60  H48 non d ame     -11.695   7.510  73.383  0.00  0.00     0.082 H 
BRANCH  58  61
ATOM     61  C35 non d ame     -10.938   6.613  71.570  0.00  0.00    -0.034 A 
ATOM     62  C30 non d ame     -11.128   6.516  70.195  0.00  0.00    -0.075 A 
ATOM     63  C31 non d ame     -10.604   5.432  69.492  0.00  0.00    -0.082 A 
ATOM     64  H49 non d ame     -11.688   7.289  69.668  0.00  0.00     0.084 H 
ATOM     65  C32 non d ame      -9.888   4.441  70.170  0.00  0.00    -0.083 A 
ATOM     66  H50 non d ame     -10.752   5.361  68.415  0.00  0.00     0.083 H 
ATOM     67  C33 non d ame      -9.704   4.540  71.542  0.00  0.00    -0.082 A 
ATOM     68  H51 non d ame      -9.474   3.591  69.628  0.00  0.00     0.083 H 
ATOM     69  C34 non d ame     -10.224   5.623  72.248  0.00  0.00    -0.075 A 
ATOM     70  H52 non d ame      -9.147   3.764  72.068  0.00  0.00     0.083 H 
ATOM     71  H53 non d ame     -10.074   5.694  73.326  0.00  0.00     0.084 H 
ENDBRANCH  58  61
ENDBRANCH  57  58
ENDBRANCH  55  57
ENDBRANCH  52  55
ENDBRANCH  49  52
ENDBRANCH  47  49
BRANCH  47  72
ATOM     72  C24 non d ame     -12.345  13.388  69.661  0.00  0.00    -0.039 C 
ATOM     73  H35 non d ame     -12.187  14.105  68.855  0.00  0.00     0.036 H 
ATOM     74  H36 non d ame     -13.290  12.849  69.732  0.00  0.00     0.036 H 
BRANCH  72  75
ATOM     75  C25 non d ame     -12.145  14.175  71.041  0.00  0.00    -0.001 C 
ATOM     76  C26 non d ame     -13.238  13.647  72.151  0.00  0.00    -0.035 C 
ATOM     77  C27 non d ame     -13.877  14.718  72.679  0.00  0.00     0.085 C 
ATOM     78  H38 non d ame     -14.035  13.093  71.656  0.00  0.00     0.036 H 
ATOM     79  H39 non d ame     -12.722  13.211  73.006  0.00  0.00     0.036 H 
ATOM     80  N5  non d ame     -13.554  15.902  71.800  0.00  0.00    -0.049 N 
ATOM     81  H40 non d ame     -14.941  14.493  72.596  0.00  0.00     0.075 H 
ATOM     82  H41 non d ame     -13.427  14.871  73.660  0.00  0.00     0.075 H 
ATOM     83  C28 non d ame     -12.306  15.447  70.882  0.00  0.00     0.193 C 
ATOM     84  H42 non d ame     -14.357  16.044  71.204  0.00  0.00     0.280 HD
ATOM     85  H43 non d ame     -13.246  16.641  72.417  0.00  0.00     0.280 HD
ATOM     86  H44 non d ame     -11.299  15.803  71.100  0.00  0.00     0.129 H 
ATOM     87  H37 non d ame     -11.101  14.208  71.351  0.00  0.00     0.046 H 
BRANCH  83  88
ATOM     88  O6  non d ame     -12.547  15.792  69.517  0.00  0.00    -0.369 OA
ATOM     89  H45 non d ame     -13.367  15.389  69.225  0.00  0.00     0.212 HD
ENDBRANCH  83  88
ENDBRANCH  72  75
ENDBRANCH  47  72
ENDBRANCH  45  47
ENDBRANCH   1  43
BRANCH   1  90
ATOM     90  C16 non d ame      -9.516  12.676  65.523  0.00  0.00    -0.035 C 
ATOM     91  H21 non d ame     -10.126  13.340  66.136  0.00  0.00     0.037 H 
ATOM     92  H22 non d ame      -8.838  13.094  64.778  0.00  0.00     0.037 H 
BRANCH  90  93
ATOM     93  C17 non d ame     -10.510  11.755  64.747  0.00  0.00    -0.059 C 
ATOM     94  H23 non d ame     -10.375  10.738  65.116  0.00  0.00     0.038 H 
BRANCH  93  95
ATOM     95  C18 non d ame     -12.000  12.157  64.993  0.00  0.00    -0.073 C 
ATOM     96  H24 non d ame     -12.519  11.338  65.490  0.00  0.00     0.028 H 
ATOM     97  H25 non d ame     -12.037  13.047  65.621  0.00  0.00     0.028 H 
ATOM     98  H26 non d ame     -12.482  12.366  64.037  0.00  0.00     0.028 H 
ENDBRANCH  93  95
BRANCH  93  99
ATOM     99  C19 non d ame     -10.189  11.741  63.250  0.00  0.00    -0.073 C 
ATOM    100  H27 non d ame     -10.252  10.720  62.874  0.00  0.00     0.028 H 
ATOM    101  H28 non d ame     -10.906  12.369  62.720  0.00  0.00     0.028 H 
ATOM    102  H29 non d ame      -9.182  12.126  63.091  0.00  0.00     0.028 H 
ENDBRANCH  93  99
ENDBRANCH  90  93
ENDBRANCH   1  90
TORSDOF 26
ENDMDL
MODEL 15
REMARK VINA RESULT:      -5.8      2.818      8.062
REMARK  26 active torsions:
REMARK  status: ('A' for Active; 'I' for Inactive)
REMARK    1  A    between atoms: C2_2  and  C3_3 
REMARK    2  A    between atoms: C4_6  and  C5_7 
REMARK       I    between atoms: C5_7  and  N2_9 
REMARK    3  A    between atoms: N2_9  and  C6_10 
REMARK    4  A    between atoms: C6_10  and  C7_11 
REMARK    5  A    between atoms: C6_10  and  C8_13 
REMARK       I    between atoms: C7_11  and  N3_14 
REMARK    6  A    between atoms: N3_14  and  C9_15 
REMARK    7  A    between atoms: C9_15  and  C10_16 
REMARK    8  A    between atoms: C9_15  and  C11_18 
REMARK       I    between atoms: C10_16  and  N4_21 
REMARK    9  A    between atoms: C11_18  and  C12_19 
REMARK   10  A    between atoms: C11_18  and  C13_20 
REMARK   11  A    between atoms: N4_21  and  C14_22 
REMARK   12  A    between atoms: C14_22  and  C15_23 
REMARK   13  A    between atoms: C14_22  and  C16_25 
REMARK       I    between atoms: C15_23  and  N6_40 
REMARK   14  A    between atoms: C16_25  and  C17_26 
REMARK   15  A    between atoms: C17_26  and  C18_27 
REMARK   16  A    between atoms: C17_26  and  C19_28 
REMARK   17  A    between atoms: C20_29  and  C21_30 
REMARK   18  A    between atoms: C20_29  and  C24_33 
REMARK   19  A    between atoms: C20_29  and  N6_40 
REMARK   20  A    between atoms: C21_30  and  C22_31 
REMARK   21  A    between atoms: C22_31  and  C23_32 
REMARK   22  A    between atoms: C23_32  and  O8_43 
REMARK   23  A    between atoms: C24_33  and  C25_34 
REMARK   24  A    between atoms: C28_38  and  O6_39 
REMARK   25  A    between atoms: C29_42  and  O8_43 
REMARK   26  A    between atoms: C29_42  and  C35_49 
ROOT
ATOM      1  C14 non d ame      -7.281  11.457  68.664  0.00  0.00     0.089 C 
ATOM      2  H20 non d ame      -6.752  12.194  68.059  0.00  0.00     0.087 H 
ENDROOT
BRANCH   1   3
ATOM      3  N4  non d ame      -8.569  12.030  69.025  0.00  0.00    -0.346 N 
ATOM      4  C10 non d ame      -9.330  12.878  68.037  0.00  0.00     0.241 C 
ATOM      5  O4  non d ame      -8.883  13.088  66.958  0.00  0.00    -0.271 OA
ATOM      6  H19 non d ame      -8.931  11.841  69.949  0.00  0.00     0.163 HD
BRANCH   4   7
ATOM      7  C9  non d ame     -10.664  13.459  68.426  0.00  0.00     0.092 C 
ATOM      8  H11 non d ame     -11.337  13.414  67.570  0.00  0.00     0.088 H 
BRANCH   7   9
ATOM      9  N3  non d ame     -11.260  12.645  69.489  0.00  0.00    -0.346 N 
ATOM     10  C7  non d ame     -11.910  11.399  69.164  0.00  0.00     0.240 C 
ATOM     11  O3  non d ame     -11.964  11.037  68.052  0.00  0.00    -0.271 OA
ATOM     12  H10 non d ame     -11.224  12.944  70.453  0.00  0.00     0.163 HD
BRANCH  10  13
ATOM     13  C6  non d ame     -12.546  10.538  70.300  0.00  0.00     0.086 C 
ATOM     14  H6  non d ame     -13.497  10.092  70.009  0.00  0.00     0.086 H 
BRANCH  13  15
ATOM     15  N2  non d ame     -11.650   9.438  70.615  0.00  0.00    -0.343 N 
ATOM     16  C5  non d ame     -12.189   8.220  71.224  0.00  0.00     0.273 C 
ATOM     17  O2  non d ame     -13.345   8.137  71.459  0.00  0.00    -0.266 OA
ATOM     18  H5  non d ame     -10.663   9.518  70.413  0.00  0.00     0.163 HD
BRANCH  16  19
ATOM     19  C4  non d ame     -11.254   7.048  71.561  0.00  0.00     0.154 A 
ATOM     20  C1  non d ame     -11.604   5.822  72.210  0.00  0.00    -0.017 A 
ATOM     21  C2  non d ame     -10.397   5.091  72.281  0.00  0.00     0.077 A 
ATOM     22  H1  non d ame     -12.584   5.510  72.573  0.00  0.00     0.091 H 
ATOM     23  O1  non d ame      -9.470   5.820  71.733  0.00  0.00    -0.218 OA
ATOM     24  N1  non d ame      -9.945   6.967  71.306  0.00  0.00    -0.123 NA
BRANCH  21  25
ATOM     25  C3  non d ame     -10.217   3.705  72.885  0.00  0.00    -0.029 C 
ATOM     26  H2  non d ame     -10.956   3.552  73.672  0.00  0.00     0.036 H 
ATOM     27  H3  non d ame     -10.350   2.950  72.110  0.00  0.00     0.036 H 
ATOM     28  H4  non d ame      -9.215   3.619  73.307  0.00  0.00     0.036 H 
ENDBRANCH  21  25
ENDBRANCH  16  19
ENDBRANCH  13  15
BRANCH  13  29
ATOM     29  C8  non d ame     -12.762  11.394  71.522  0.00  0.00    -0.049 C 
ATOM     30  H7  non d ame     -12.084  12.248  71.492  0.00  0.00     0.030 H 
ATOM     31  H8  non d ame     -13.793  11.749  71.539  0.00  0.00     0.030 H 
ATOM     32  H9  non d ame     -12.565  10.805  72.417  0.00  0.00     0.030 H 
ENDBRANCH  13  29
ENDBRANCH  10  13
ENDBRANCH   7   9
BRANCH   7  33
ATOM     33  C11 non d ame     -10.466  14.915  68.940  0.00  0.00    -0.033 C 
ATOM     34  H12 non d ame      -9.405  15.047  69.151  0.00  0.00     0.042 H 
BRANCH  33  35
ATOM     35  C12 non d ame     -10.862  15.961  67.852  0.00  0.00    -0.071 C 
ATOM     36  H13 non d ame     -10.756  15.514  66.863  0.00  0.00     0.028 H 
ATOM     37  H14 non d ame     -11.897  16.267  68.002  0.00  0.00     0.028 H 
ATOM     38  H15 non d ame     -10.210  16.830  67.930  0.00  0.00     0.028 H 
ENDBRANCH  33  35
BRANCH  33  39
ATOM     39  C13 non d ame     -11.256  15.151  70.267  0.00  0.00    -0.071 C 
ATOM     40  H16 non d ame     -12.063  14.423  70.345  0.00  0.00     0.028 H 
ATOM     41  H17 non d ame     -10.582  15.038  71.117  0.00  0.00     0.028 H 
ATOM     42  H18 non d ame     -11.674  16.158  70.266  0.00  0.00     0.028 H 
ENDBRANCH  33  39
ENDBRANCH   7  33
ENDBRANCH   4   7
ENDBRANCH   1   3
BRANCH   1  43
ATOM     43  C15 non d ame      -7.529  10.131  67.890  0.00  0.00     0.240 C 
ATOM     44  O5  non d ame      -6.609   9.438  67.596  0.00  0.00    -0.271 OA
ATOM     45  N6  non d ame      -8.914   9.720  67.522  0.00  0.00    -0.355 N 
ATOM     46  H46 non d ame      -9.703  10.298  67.771  0.00  0.00     0.162 HD
BRANCH  45  47
ATOM     47  C20 non d ame      -9.133   8.456  66.787  0.00  0.00     0.013 C 
ATOM     48  H30 non d ame      -8.166   7.966  66.666  0.00  0.00     0.072 H 
BRANCH  47  49
ATOM     49  C21 non d ame      -9.729   8.762  65.432  0.00  0.00    -0.038 C 
ATOM     50  H31 non d ame      -9.037   8.340  64.703  0.00  0.00     0.036 H 
ATOM     51  H32 non d ame     -10.759   8.406  65.477  0.00  0.00     0.036 H 
BRANCH  49  52
ATOM     52  C22 non d ame      -9.803  10.276  65.138  0.00  0.00     0.018 C 
ATOM     53  H33 non d ame     -10.809  10.584  65.426  0.00  0.00     0.048 H 
ATOM     54  H34 non d ame      -8.936  10.716  65.633  0.00  0.00     0.048 H 
BRANCH  52  55
ATOM     55  C23 non d ame      -9.661  10.629  63.632  0.00  0.00     0.259 C 
ATOM     56  O7  non d ame      -9.942  11.715  63.237  0.00  0.00    -0.265 OA
BRANCH  55  57
ATOM     57  O8  non d ame      -9.203   9.635  62.723  0.00  0.00    -0.317 OA
BRANCH  57  58
ATOM     58  C29 non d ame      -7.808   9.723  62.419  0.00  0.00     0.052 C 
ATOM     59  H47 non d ame      -7.751   9.915  61.348  0.00  0.00     0.082 H 
ATOM     60  H48 non d ame      -7.397  10.445  63.124  0.00  0.00     0.082 H 
BRANCH  58  61
ATOM     61  C35 non d ame      -7.168   8.339  62.705  0.00  0.00    -0.034 A 
ATOM     62  C30 non d ame      -5.800   8.239  62.941  0.00  0.00    -0.075 A 
ATOM     63  C31 non d ame      -5.225   6.996  63.198  0.00  0.00    -0.082 A 
ATOM     64  H49 non d ame      -5.180   9.135  62.925  0.00  0.00     0.084 H 
ATOM     65  C32 non d ame      -6.022   5.848  63.216  0.00  0.00    -0.083 A 
ATOM     66  H50 non d ame      -4.153   6.921  63.385  0.00  0.00     0.083 H 
ATOM     67  C33 non d ame      -7.385   5.952  62.977  0.00  0.00    -0.082 A 
ATOM     68  H51 non d ame      -5.580   4.872  63.416  0.00  0.00     0.083 H 
ATOM     69  C34 non d ame      -7.965   7.193  62.722  0.00  0.00    -0.075 A 
ATOM     70  H52 non d ame      -8.004   5.054  62.989  0.00  0.00     0.083 H 
ATOM     71  H53 non d ame      -9.037   7.267  62.536  0.00  0.00     0.084 H 
ENDBRANCH  58  61
ENDBRANCH  57  58
ENDBRANCH  55  57
ENDBRANCH  52  55
ENDBRANCH  49  52
ENDBRANCH  47  49
BRANCH  47  72
ATOM     72  C24 non d ame     -10.087   7.559  67.574  0.00  0.00    -0.039 C 
ATOM     73  H35 non d ame     -10.172   8.020  68.558  0.00  0.00     0.036 H 
ATOM     74  H36 non d ame     -10.970   7.452  66.944  0.00  0.00     0.036 H 
BRANCH  72  75
ATOM     75  C25 non d ame      -9.480   6.093  67.790  0.00  0.00    -0.001 C 
ATOM     76  C26 non d ame      -7.901   6.067  67.329  0.00  0.00    -0.035 C 
ATOM     77  C27 non d ame      -7.713   5.033  66.474  0.00  0.00     0.085 C 
ATOM     78  H38 non d ame      -7.674   6.943  66.723  0.00  0.00     0.036 H 
ATOM     79  H39 non d ame      -7.268   5.813  68.179  0.00  0.00     0.036 H 
ATOM     80  N5  non d ame      -9.082   4.553  66.055  0.00  0.00    -0.049 N 
ATOM     81  H40 non d ame      -7.206   5.460  65.608  0.00  0.00     0.075 H 
ATOM     82  H41 non d ame      -7.228   4.254  67.061  0.00  0.00     0.075 H 
ATOM     83  C28 non d ame     -10.123   5.214  67.096  0.00  0.00     0.193 C 
ATOM     84  H42 non d ame      -9.253   4.941  65.138  0.00  0.00     0.280 HD
ATOM     85  H43 non d ame      -9.087   3.551  66.188  0.00  0.00     0.280 HD
ATOM     86  H44 non d ame     -10.563   4.615  67.894  0.00  0.00     0.129 H 
ATOM     87  H37 non d ame      -9.715   5.689  68.775  0.00  0.00     0.046 H 
BRANCH  83  88
ATOM     88  O6  non d ame     -11.228   5.785  66.393  0.00  0.00    -0.369 OA
ATOM     89  H45 non d ame     -10.968   5.974  65.489  0.00  0.00     0.212 HD
ENDBRANCH  83  88
ENDBRANCH  72  75
ENDBRANCH  47  72
ENDBRANCH  45  47
ENDBRANCH   1  43
BRANCH   1  90
ATOM     90  C16 non d ame      -6.493  11.169  69.932  0.00  0.00    -0.035 C 
ATOM     91  H21 non d ame      -7.182  11.372  70.752  0.00  0.00     0.037 H 
ATOM     92  H22 non d ame      -6.086  10.167  69.797  0.00  0.00     0.037 H 
BRANCH  90  93
ATOM     93  C17 non d ame      -5.270  12.119  70.138  0.00  0.00    -0.059 C 
ATOM     94  H23 non d ame      -4.677  12.098  69.224  0.00  0.00     0.038 H 
BRANCH  93  95
ATOM     95  C18 non d ame      -5.708  13.597  70.390  0.00  0.00    -0.073 C 
ATOM     96  H24 non d ame      -6.404  13.632  71.227  0.00  0.00     0.028 H 
ATOM     97  H25 non d ame      -4.830  14.202  70.621  0.00  0.00     0.028 H 
ATOM     98  H26 non d ame      -6.194  13.989  69.496  0.00  0.00     0.028 H 
ENDBRANCH  93  95
BRANCH  93  99
ATOM     99  C19 non d ame      -4.373  11.616  71.273  0.00  0.00    -0.073 C 
ATOM    100  H27 non d ame      -4.818  11.881  72.232  0.00  0.00     0.028 H 
ATOM    101  H28 non d ame      -4.275  10.532  71.204  0.00  0.00     0.028 H 
ATOM    102  H29 non d ame      -3.389  12.076  71.188  0.00  0.00     0.028 H 
ENDBRANCH  93  99
ENDBRANCH  90  93
ENDBRANCH   1  90
TORSDOF 26
ENDMDL
MODEL 16
REMARK VINA RESULT:      -5.8      2.538      8.577
REMARK  26 active torsions:
REMARK  status: ('A' for Active; 'I' for Inactive)
REMARK    1  A    between atoms: C2_2  and  C3_3 
REMARK    2  A    between atoms: C4_6  and  C5_7 
REMARK       I    between atoms: C5_7  and  N2_9 
REMARK    3  A    between atoms: N2_9  and  C6_10 
REMARK    4  A    between atoms: C6_10  and  C7_11 
REMARK    5  A    between atoms: C6_10  and  C8_13 
REMARK       I    between atoms: C7_11  and  N3_14 
REMARK    6  A    between atoms: N3_14  and  C9_15 
REMARK    7  A    between atoms: C9_15  and  C10_16 
REMARK    8  A    between atoms: C9_15  and  C11_18 
REMARK       I    between atoms: C10_16  and  N4_21 
REMARK    9  A    between atoms: C11_18  and  C12_19 
REMARK   10  A    between atoms: C11_18  and  C13_20 
REMARK   11  A    between atoms: N4_21  and  C14_22 
REMARK   12  A    between atoms: C14_22  and  C15_23 
REMARK   13  A    between atoms: C14_22  and  C16_25 
REMARK       I    between atoms: C15_23  and  N6_40 
REMARK   14  A    between atoms: C16_25  and  C17_26 
REMARK   15  A    between atoms: C17_26  and  C18_27 
REMARK   16  A    between atoms: C17_26  and  C19_28 
REMARK   17  A    between atoms: C20_29  and  C21_30 
REMARK   18  A    between atoms: C20_29  and  C24_33 
REMARK   19  A    between atoms: C20_29  and  N6_40 
REMARK   20  A    between atoms: C21_30  and  C22_31 
REMARK   21  A    between atoms: C22_31  and  C23_32 
REMARK   22  A    between atoms: C23_32  and  O8_43 
REMARK   23  A    between atoms: C24_33  and  C25_34 
REMARK   24  A    between atoms: C28_38  and  O6_39 
REMARK   25  A    between atoms: C29_42  and  O8_43 
REMARK   26  A    between atoms: C29_42  and  C35_49 
ROOT
ATOM      1  C14 non d ame      -9.287  10.938  65.530  0.00  0.00     0.089 C 
ATOM      2  H20 non d ame      -8.632  10.970  64.659  0.00  0.00     0.087 H 
ENDROOT
BRANCH   1   3
ATOM      3  N4  non d ame      -8.961   9.735  66.280  0.00  0.00    -0.346 N 
ATOM      4  C10 non d ame      -8.529   8.482  65.559  0.00  0.00     0.241 C 
ATOM      5  O4  non d ame      -8.455   8.466  64.375  0.00  0.00    -0.271 OA
ATOM      6  H19 non d ame      -9.033   9.768  67.287  0.00  0.00     0.163 HD
BRANCH   4   7
ATOM      7  C9  non d ame      -8.190   7.247  66.352  0.00  0.00     0.092 C 
ATOM      8  H11 non d ame      -7.273   6.809  65.958  0.00  0.00     0.088 H 
BRANCH   7   9
ATOM      9  N3  non d ame      -7.931   7.616  67.746  0.00  0.00    -0.346 N 
ATOM     10  C7  non d ame      -6.584   7.586  68.261  0.00  0.00     0.240 C 
ATOM     11  O3  non d ame      -5.697   7.266  67.567  0.00  0.00    -0.271 OA
ATOM     12  H10 non d ame      -8.686   7.893  68.357  0.00  0.00     0.163 HD
BRANCH  10  13
ATOM     13  C6  non d ame      -6.315   7.978  69.747  0.00  0.00     0.086 C 
ATOM     14  H6  non d ame      -6.497   9.034  69.945  0.00  0.00     0.086 H 
BRANCH  13  15
ATOM     15  N2  non d ame      -7.223   7.232  70.603  0.00  0.00    -0.343 N 
ATOM     16  C5  non d ame      -8.116   7.955  71.511  0.00  0.00     0.273 C 
ATOM     17  O2  non d ame      -8.094   9.136  71.548  0.00  0.00    -0.266 OA
ATOM     18  H5  non d ame      -7.232   6.222  70.567  0.00  0.00     0.163 HD
BRANCH  16  19
ATOM     19  C4  non d ame      -9.082   7.179  72.420  0.00  0.00     0.154 A 
ATOM     20  C1  non d ame      -9.461   5.804  72.306  0.00  0.00    -0.017 A 
ATOM     21  C2  non d ame     -10.360   5.585  73.374  0.00  0.00     0.077 A 
ATOM     22  H1  non d ame      -9.134   5.077  71.562  0.00  0.00     0.091 H 
ATOM     23  O1  non d ame     -10.475   6.708  74.020  0.00  0.00    -0.218 OA
ATOM     24  N1  non d ame      -9.739   7.653  73.482  0.00  0.00    -0.123 NA
BRANCH  21  25
ATOM     25  C3  non d ame     -11.062   4.275  73.706  0.00  0.00    -0.029 C 
ATOM     26  H2  non d ame     -11.656   3.953  72.851  0.00  0.00     0.036 H 
ATOM     27  H3  non d ame     -10.318   3.513  73.939  0.00  0.00     0.036 H 
ATOM     28  H4  non d ame     -11.714   4.420  74.568  0.00  0.00     0.036 H 
ENDBRANCH  21  25
ENDBRANCH  16  19
ENDBRANCH  13  15
BRANCH  13  29
ATOM     29  C8  non d ame      -4.886   7.655  70.104  0.00  0.00    -0.049 C 
ATOM     30  H7  non d ame      -4.852   7.201  71.095  0.00  0.00     0.030 H 
ATOM     31  H8  non d ame      -4.477   6.959  69.371  0.00  0.00     0.030 H 
ATOM     32  H9  non d ame      -4.296   8.571  70.105  0.00  0.00     0.030 H 
ENDBRANCH  13  29
ENDBRANCH  10  13
ENDBRANCH   7   9
BRANCH   7  33
ATOM     33  C11 non d ame      -9.385   6.250  66.295  0.00  0.00    -0.033 C 
ATOM     34  H12 non d ame      -9.811   6.304  65.293  0.00  0.00     0.042 H 
BRANCH  33  35
ATOM     35  C12 non d ame      -8.911   4.781  66.525  0.00  0.00    -0.071 C 
ATOM     36  H13 non d ame      -9.260   4.154  65.704  0.00  0.00     0.028 H 
ATOM     37  H14 non d ame      -7.823   4.753  66.566  0.00  0.00     0.028 H 
ATOM     38  H15 non d ame      -9.320   4.411  67.464  0.00  0.00     0.028 H 
ENDBRANCH  33  35
BRANCH  33  39
ATOM     39  C13 non d ame     -10.498   6.653  67.316  0.00  0.00    -0.071 C 
ATOM     40  H16 non d ame     -10.951   7.594  67.007  0.00  0.00     0.028 H 
ATOM     41  H17 non d ame     -11.261   5.875  67.347  0.00  0.00     0.028 H 
ATOM     42  H18 non d ame     -10.057   6.769  68.306  0.00  0.00     0.028 H 
ENDBRANCH  33  39
ENDBRANCH   7  33
ENDBRANCH   4   7
ENDBRANCH   1   3
BRANCH   1  43
ATOM     43  C15 non d ame      -9.088  12.170  66.459  0.00  0.00     0.240 C 
ATOM     44  O5  non d ame      -8.087  12.279  67.090  0.00  0.00    -0.271 OA
ATOM     45  N6  non d ame     -10.143  13.218  66.557  0.00  0.00    -0.355 N 
ATOM     46  H46 non d ame     -10.996  13.139  66.022  0.00  0.00     0.162 HD
BRANCH  45  47
ATOM     47  C20 non d ame      -9.939  14.384  67.444  0.00  0.00     0.013 C 
ATOM     48  H30 non d ame      -8.866  14.562  67.522  0.00  0.00     0.072 H 
BRANCH  47  49
ATOM     49  C21 non d ame     -10.512  14.080  68.809  0.00  0.00    -0.038 C 
ATOM     50  H31 non d ame      -9.865  13.314  69.237  0.00  0.00     0.036 H 
ATOM     51  H32 non d ame     -10.618  15.045  69.305  0.00  0.00     0.036 H 
BRANCH  49  52
ATOM     52  C22 non d ame     -11.928  13.466  68.741  0.00  0.00     0.018 C 
ATOM     53  H33 non d ame     -12.498  13.951  69.534  0.00  0.00     0.048 H 
ATOM     54  H34 non d ame     -12.244  13.567  67.702  0.00  0.00     0.048 H 
BRANCH  52  55
ATOM     55  C23 non d ame     -11.966  11.944  69.055  0.00  0.00     0.259 C 
ATOM     56  O7  non d ame     -11.984  11.147  68.174  0.00  0.00    -0.265 OA
BRANCH  55  57
ATOM     57  O8  non d ame     -11.993  11.513  70.410  0.00  0.00    -0.317 OA
BRANCH  57  58
ATOM     58  C29 non d ame     -11.278  10.297  70.648  0.00  0.00     0.052 C 
ATOM     59  H47 non d ame     -10.852  10.012  69.686  0.00  0.00     0.082 H 
ATOM     60  H48 non d ame     -10.624  10.500  71.495  0.00  0.00     0.082 H 
BRANCH  58  61
ATOM     61  C35 non d ame     -12.305   9.213  71.071  0.00  0.00    -0.034 A 
ATOM     62  C30 non d ame     -12.079   7.877  70.753  0.00  0.00    -0.075 A 
ATOM     63  C31 non d ame     -13.002   6.904  71.133  0.00  0.00    -0.082 A 
ATOM     64  H49 non d ame     -11.179   7.594  70.208  0.00  0.00     0.084 H 
ATOM     65  C32 non d ame     -14.156   7.270  71.830  0.00  0.00    -0.083 A 
ATOM     66  H50 non d ame     -12.821   5.858  70.885  0.00  0.00     0.083 H 
ATOM     67  C33 non d ame     -14.379   8.604  72.142  0.00  0.00    -0.082 A 
ATOM     68  H51 non d ame     -14.882   6.515  72.131  0.00  0.00     0.083 H 
ATOM     69  C34 non d ame     -13.459   9.581  71.767  0.00  0.00    -0.075 A 
ATOM     70  H52 non d ame     -15.282   8.887  72.684  0.00  0.00     0.083 H 
ATOM     71  H53 non d ame     -13.640  10.626  72.016  0.00  0.00     0.084 H 
ENDBRANCH  58  61
ENDBRANCH  57  58
ENDBRANCH  55  57
ENDBRANCH  52  55
ENDBRANCH  49  52
ENDBRANCH  47  49
BRANCH  47  72
ATOM     72  C24 non d ame     -10.638  15.608  66.858  0.00  0.00    -0.039 C 
ATOM     73  H35 non d ame     -10.966  15.307  65.862  0.00  0.00     0.036 H 
ATOM     74  H36 non d ame     -11.373  15.908  67.605  0.00  0.00     0.036 H 
BRANCH  72  75
ATOM     75  C25 non d ame      -9.627  16.836  66.670  0.00  0.00    -0.001 C 
ATOM     76  C26 non d ame      -8.111  16.387  67.122  0.00  0.00    -0.035 C 
ATOM     77  C27 non d ame      -7.628  17.300  67.999  0.00  0.00     0.085 C 
ATOM     78  H38 non d ame      -8.152  15.469  67.707  0.00  0.00     0.036 H 
ATOM     79  H39 non d ame      -7.430  16.463  66.274  0.00  0.00     0.036 H 
ATOM     80  N5  non d ame      -8.795  18.152  68.437  0.00  0.00    -0.049 N 
ATOM     81  H40 non d ame      -7.269  16.723  68.852  0.00  0.00     0.075 H 
ATOM     82  H41 non d ame      -6.935  17.915  67.426  0.00  0.00     0.075 H 
ATOM     83  C28 non d ame      -9.984  17.850  67.387  0.00  0.00     0.193 C 
ATOM     84  H42 non d ame      -9.074  17.810  69.345  0.00  0.00     0.280 HD
ATOM     85  H43 non d ame      -8.505  19.113  68.326  0.00  0.00     0.280 HD
ATOM     86  H44 non d ame     -10.228  18.569  66.605  0.00  0.00     0.129 H 
ATOM     87  H37 non d ame      -9.733  17.314  65.696  0.00  0.00     0.046 H 
BRANCH  83  88
ATOM     88  O6  non d ame     -11.208  17.612  68.084  0.00  0.00    -0.369 OA
ATOM     89  H45 non d ame     -11.038  17.582  69.028  0.00  0.00     0.212 HD
ENDBRANCH  83  88
ENDBRANCH  72  75
ENDBRANCH  47  72
ENDBRANCH  45  47
ENDBRANCH   1  43
BRANCH   1  90
ATOM     90  C16 non d ame     -10.738  10.866  65.081  0.00  0.00    -0.035 C 
ATOM     91  H21 non d ame     -11.018   9.817  65.179  0.00  0.00     0.037 H 
ATOM     92  H22 non d ame     -11.259  11.625  65.665  0.00  0.00     0.037 H 
BRANCH  90  93
ATOM     93  C17 non d ame     -10.949  11.241  63.580  0.00  0.00    -0.059 C 
ATOM     94  H23 non d ame     -11.472  10.412  63.102  0.00  0.00     0.038 H 
BRANCH  93  95
ATOM     95  C18 non d ame     -11.828  12.521  63.410  0.00  0.00    -0.073 C 
ATOM     96  H24 non d ame     -12.459  12.414  62.528  0.00  0.00     0.028 H 
ATOM     97  H25 non d ame     -12.456  12.650  64.292  0.00  0.00     0.028 H 
ATOM     98  H26 non d ame     -11.183  13.392  63.293  0.00  0.00     0.028 H 
ENDBRANCH  93  95
BRANCH  93  99
ATOM     99  C19 non d ame      -9.606  11.404  62.863  0.00  0.00    -0.073 C 
ATOM    100  H27 non d ame      -9.461  12.451  62.596  0.00  0.00     0.028 H 
ATOM    101  H28 non d ame      -8.800  11.083  63.524  0.00  0.00     0.028 H 
ATOM    102  H29 non d ame      -9.599  10.794  61.960  0.00  0.00     0.028 H 
ENDBRANCH  93  99
ENDBRANCH  90  93
ENDBRANCH   1  90
TORSDOF 26
ENDMDL
MODEL 17
REMARK VINA RESULT:      -5.7      2.702      5.898
REMARK  26 active torsions:
REMARK  status: ('A' for Active; 'I' for Inactive)
REMARK    1  A    between atoms: C2_2  and  C3_3 
REMARK    2  A    between atoms: C4_6  and  C5_7 
REMARK       I    between atoms: C5_7  and  N2_9 
REMARK    3  A    between atoms: N2_9  and  C6_10 
REMARK    4  A    between atoms: C6_10  and  C7_11 
REMARK    5  A    between atoms: C6_10  and  C8_13 
REMARK       I    between atoms: C7_11  and  N3_14 
REMARK    6  A    between atoms: N3_14  and  C9_15 
REMARK    7  A    between atoms: C9_15  and  C10_16 
REMARK    8  A    between atoms: C9_15  and  C11_18 
REMARK       I    between atoms: C10_16  and  N4_21 
REMARK    9  A    between atoms: C11_18  and  C12_19 
REMARK   10  A    between atoms: C11_18  and  C13_20 
REMARK   11  A    between atoms: N4_21  and  C14_22 
REMARK   12  A    between atoms: C14_22  and  C15_23 
REMARK   13  A    between atoms: C14_22  and  C16_25 
REMARK       I    between atoms: C15_23  and  N6_40 
REMARK   14  A    between atoms: C16_25  and  C17_26 
REMARK   15  A    between atoms: C17_26  and  C18_27 
REMARK   16  A    between atoms: C17_26  and  C19_28 
REMARK   17  A    between atoms: C20_29  and  C21_30 
REMARK   18  A    between atoms: C20_29  and  C24_33 
REMARK   19  A    between atoms: C20_29  and  N6_40 
REMARK   20  A    between atoms: C21_30  and  C22_31 
REMARK   21  A    between atoms: C22_31  and  C23_32 
REMARK   22  A    between atoms: C23_32  and  O8_43 
REMARK   23  A    between atoms: C24_33  and  C25_34 
REMARK   24  A    between atoms: C28_38  and  O6_39 
REMARK   25  A    between atoms: C29_42  and  O8_43 
REMARK   26  A    between atoms: C29_42  and  C35_49 
ROOT
ATOM      1  C14 non d ame      -7.094  11.532  67.826  0.00  0.00     0.089 C 
ATOM      2  H20 non d ame      -6.062  11.784  67.578  0.00  0.00     0.087 H 
ENDROOT
BRANCH   1   3
ATOM      3  N4  non d ame      -7.764  11.161  66.589  0.00  0.00    -0.346 N 
ATOM      4  C10 non d ame      -7.007  10.448  65.497  0.00  0.00     0.241 C 
ATOM      5  O4  non d ame      -5.858  10.186  65.636  0.00  0.00    -0.271 OA
ATOM      6  H19 non d ame      -8.742  11.395  66.489  0.00  0.00     0.163 HD
BRANCH   4   7
ATOM      7  C9  non d ame      -7.718  10.066  64.225  0.00  0.00     0.092 C 
ATOM      8  H11 non d ame      -8.040   9.027  64.292  0.00  0.00     0.088 H 
BRANCH   7   9
ATOM      9  N3  non d ame      -8.924  10.885  64.074  0.00  0.00    -0.346 N 
ATOM     10  C7  non d ame     -10.130  10.529  64.782  0.00  0.00     0.240 C 
ATOM     11  O3  non d ame     -10.146   9.586  65.476  0.00  0.00    -0.271 OA
ATOM     12  H10 non d ame      -8.925  11.700  63.478  0.00  0.00     0.163 HD
BRANCH  10  13
ATOM     13  C6  non d ame     -11.411  11.403  64.615  0.00  0.00     0.086 C 
ATOM     14  H6  non d ame     -12.316  10.892  64.946  0.00  0.00     0.086 H 
BRANCH  13  15
ATOM     15  N2  non d ame     -11.281  12.593  65.440  0.00  0.00    -0.343 N 
ATOM     16  C5  non d ame     -11.604  12.521  66.866  0.00  0.00     0.273 C 
ATOM     17  O2  non d ame     -11.970  11.502  67.341  0.00  0.00    -0.266 OA
ATOM     18  H5  non d ame     -10.970  13.460  65.025  0.00  0.00     0.163 HD
BRANCH  16  19
ATOM     19  C4  non d ame     -11.469  13.771  67.750  0.00  0.00     0.154 A 
ATOM     20  C1  non d ame     -11.644  13.850  69.168  0.00  0.00    -0.017 A 
ATOM     21  C2  non d ame     -11.411  15.207  69.488  0.00  0.00     0.077 A 
ATOM     22  H1  non d ame     -11.901  13.047  69.859  0.00  0.00     0.091 H 
ATOM     23  O1  non d ame     -11.134  15.824  68.377  0.00  0.00    -0.218 OA
ATOM     24  N1  non d ame     -11.162  15.008  67.349  0.00  0.00    -0.123 NA
BRANCH  21  25
ATOM     25  C3  non d ame     -11.472  15.829  70.876  0.00  0.00    -0.029 C 
ATOM     26  H2  non d ame     -10.789  16.677  70.925  0.00  0.00     0.036 H 
ATOM     27  H3  non d ame     -12.488  16.169  71.078  0.00  0.00     0.036 H 
ATOM     28  H4  non d ame     -11.184  15.086  71.621  0.00  0.00     0.036 H 
ENDBRANCH  21  25
ENDBRANCH  16  19
ENDBRANCH  13  15
BRANCH  13  29
ATOM     29  C8  non d ame     -11.573  11.792  63.168  0.00  0.00    -0.049 C 
ATOM     30  H7  non d ame     -12.551  12.250  63.021  0.00  0.00     0.030 H 
ATOM     31  H8  non d ame     -10.794  12.504  62.894  0.00  0.00     0.030 H 
ATOM     32  H9  non d ame     -11.491  10.904  62.542  0.00  0.00     0.030 H 
ENDBRANCH  13  29
ENDBRANCH  10  13
ENDBRANCH   7   9
BRANCH   7  33
ATOM     33  C11 non d ame      -6.774  10.309  63.010  0.00  0.00    -0.033 C 
ATOM     34  H12 non d ame      -5.968  10.961  63.346  0.00  0.00     0.042 H 
BRANCH  33  35
ATOM     35  C12 non d ame      -6.127   8.977  62.518  0.00  0.00    -0.071 C 
ATOM     36  H13 non d ame      -6.207   8.914  61.433  0.00  0.00     0.028 H 
ATOM     37  H14 non d ame      -5.076   8.956  62.806  0.00  0.00     0.028 H 
ATOM     38  H15 non d ame      -6.646   8.132  62.970  0.00  0.00     0.028 H 
ENDBRANCH  33  35
BRANCH  33  39
ATOM     39  C13 non d ame      -7.530  11.034  61.851  0.00  0.00    -0.071 C 
ATOM     40  H16 non d ame      -6.820  11.611  61.259  0.00  0.00     0.028 H 
ATOM     41  H17 non d ame      -8.016  10.293  61.215  0.00  0.00     0.028 H 
ATOM     42  H18 non d ame      -8.282  11.702  62.270  0.00  0.00     0.028 H 
ENDBRANCH  33  39
ENDBRANCH   7  33
ENDBRANCH   4   7
ENDBRANCH   1   3
BRANCH   1  43
ATOM     43  C15 non d ame      -7.185  10.336  68.817  0.00  0.00     0.240 C 
ATOM     44  O5  non d ame      -6.218   9.989  69.415  0.00  0.00    -0.271 OA
ATOM     45  N6  non d ame      -8.480   9.628  69.026  0.00  0.00    -0.355 N 
ATOM     46  H46 non d ame      -9.309   9.917  68.527  0.00  0.00     0.162 HD
BRANCH  45  47
ATOM     47  C20 non d ame      -8.550   8.494  69.973  0.00  0.00     0.013 C 
ATOM     48  H30 non d ame      -7.539   8.282  70.318  0.00  0.00     0.072 H 
BRANCH  47  49
ATOM     49  C21 non d ame      -9.118   7.286  69.263  0.00  0.00    -0.038 C 
ATOM     50  H31 non d ame      -9.031   6.461  69.970  0.00  0.00     0.036 H 
ATOM     51  H32 non d ame     -10.100   7.592  68.900  0.00  0.00     0.036 H 
BRANCH  49  52
ATOM     52  C22 non d ame      -8.299   6.882  68.018  0.00  0.00     0.018 C 
ATOM     53  H33 non d ame      -8.926   7.125  67.160  0.00  0.00     0.048 H 
ATOM     54  H34 non d ame      -7.327   7.362  68.136  0.00  0.00     0.048 H 
BRANCH  52  55
ATOM     55  C23 non d ame      -8.015   5.357  67.922  0.00  0.00     0.259 C 
ATOM     56  O7  non d ame      -7.257   4.836  68.675  0.00  0.00    -0.265 OA
BRANCH  55  57
ATOM     57  O8  non d ame      -8.663   4.590  66.915  0.00  0.00    -0.317 OA
BRANCH  57  58
ATOM     58  C29 non d ame      -9.652   5.313  66.178  0.00  0.00     0.052 C 
ATOM     59  H47 non d ame     -10.614   4.990  66.578  0.00  0.00     0.082 H 
ATOM     60  H48 non d ame      -9.361   6.361  66.243  0.00  0.00     0.082 H 
BRANCH  58  61
ATOM     61  C35 non d ame      -9.563   4.870  64.693  0.00  0.00    -0.034 A 
ATOM     62  C30 non d ame      -8.605   5.431  63.855  0.00  0.00    -0.075 A 
ATOM     63  C31 non d ame      -8.525   5.033  62.522  0.00  0.00    -0.082 A 
ATOM     64  H49 non d ame      -7.918   6.183  64.243  0.00  0.00     0.084 H 
ATOM     65  C32 non d ame      -9.409   4.071  62.026  0.00  0.00    -0.083 A 
ATOM     66  H50 non d ame      -7.772   5.473  61.868  0.00  0.00     0.083 H 
ATOM     67  C33 non d ame     -10.365   3.516  62.866  0.00  0.00    -0.082 A 
ATOM     68  H51 non d ame      -9.353   3.754  60.985  0.00  0.00     0.083 H 
ATOM     69  C34 non d ame     -10.448   3.909  64.200  0.00  0.00    -0.075 A 
ATOM     70  H52 non d ame     -11.055   2.767  62.475  0.00  0.00     0.083 H 
ATOM     71  H53 non d ame     -11.201   3.468  64.853  0.00  0.00     0.084 H 
ENDBRANCH  58  61
ENDBRANCH  57  58
ENDBRANCH  55  57
ENDBRANCH  52  55
ENDBRANCH  49  52
ENDBRANCH  47  49
BRANCH  47  72
ATOM     72  C24 non d ame      -9.448   8.861  71.153  0.00  0.00    -0.039 C 
ATOM     73  H35 non d ame      -9.253   8.103  71.912  0.00  0.00     0.036 H 
ATOM     74  H36 non d ame      -9.237   9.909  71.363  0.00  0.00     0.036 H 
BRANCH  72  75
ATOM     75  C25 non d ame     -11.000   8.759  70.770  0.00  0.00    -0.001 C 
ATOM     76  C26 non d ame     -11.626  10.266  70.564  0.00  0.00    -0.035 C 
ATOM     77  C27 non d ame     -12.749  10.378  71.314  0.00  0.00     0.085 C 
ATOM     78  H38 non d ame     -10.957  11.011  70.994  0.00  0.00     0.036 H 
ATOM     79  H39 non d ame     -11.989  10.384  69.543  0.00  0.00     0.036 H 
ATOM     80  N5  non d ame     -12.766   9.204  72.262  0.00  0.00    -0.049 N 
ATOM     81  H40 non d ame     -12.626  11.297  71.888  0.00  0.00     0.075 H 
ATOM     82  H41 non d ame     -13.578  10.281  70.613  0.00  0.00     0.075 H 
ATOM     83  C28 non d ame     -11.672   8.161  71.697  0.00  0.00     0.193 C 
ATOM     84  H42 non d ame     -12.447   9.553  73.155  0.00  0.00     0.280 HD
ATOM     85  H43 non d ame     -13.681   8.785  72.182  0.00  0.00     0.280 HD
ATOM     86  H44 non d ame     -11.986   7.262  71.165  0.00  0.00     0.129 H 
ATOM     87  H37 non d ame     -11.184   8.033  69.978  0.00  0.00     0.046 H 
BRANCH  83  88
ATOM     88  O6  non d ame     -10.833   7.702  72.759  0.00  0.00    -0.369 OA
ATOM     89  H45 non d ame      -9.951   7.535  72.421  0.00  0.00     0.212 HD
ENDBRANCH  83  88
ENDBRANCH  72  75
ENDBRANCH  47  72
ENDBRANCH  45  47
ENDBRANCH   1  43
BRANCH   1  90
ATOM     90  C16 non d ame      -7.790  12.744  68.423  0.00  0.00    -0.035 C 
ATOM     91  H21 non d ame      -8.789  12.749  67.985  0.00  0.00     0.037 H 
ATOM     92  H22 non d ame      -7.669  12.645  69.502  0.00  0.00     0.037 H 
BRANCH  90  93
ATOM     93  C17 non d ame      -7.130  14.104  68.028  0.00  0.00    -0.059 C 
ATOM     94  H23 non d ame      -7.404  14.317  66.995  0.00  0.00     0.038 H 
BRANCH  93  95
ATOM     95  C18 non d ame      -7.643  15.286  68.911  0.00  0.00    -0.073 C 
ATOM     96  H24 non d ame      -8.010  14.898  69.861  0.00  0.00     0.028 H 
ATOM     97  H25 non d ame      -6.825  15.984  69.095  0.00  0.00     0.028 H 
ATOM     98  H26 non d ame      -8.451  15.802  68.392  0.00  0.00     0.028 H 
ENDBRANCH  93  95
BRANCH  93  99
ATOM     99  C19 non d ame      -5.603  14.006  68.083  0.00  0.00    -0.073 C 
ATOM    100  H27 non d ame      -5.305  12.957  68.065  0.00  0.00     0.028 H 
ATOM    101  H28 non d ame      -5.175  14.521  67.222  0.00  0.00     0.028 H 
ATOM    102  H29 non d ame      -5.242  14.471  69.000  0.00  0.00     0.028 H 
ENDBRANCH  93  99
ENDBRANCH  90  93
ENDBRANCH   1  90
TORSDOF 26
ENDMDL
MODEL 18
REMARK VINA RESULT:      -5.7      2.946      4.602
REMARK  26 active torsions:
REMARK  status: ('A' for Active; 'I' for Inactive)
REMARK    1  A    between atoms: C2_2  and  C3_3 
REMARK    2  A    between atoms: C4_6  and  C5_7 
REMARK       I    between atoms: C5_7  and  N2_9 
REMARK    3  A    between atoms: N2_9  and  C6_10 
REMARK    4  A    between atoms: C6_10  and  C7_11 
REMARK    5  A    between atoms: C6_10  and  C8_13 
REMARK       I    between atoms: C7_11  and  N3_14 
REMARK    6  A    between atoms: N3_14  and  C9_15 
REMARK    7  A    between atoms: C9_15  and  C10_16 
REMARK    8  A    between atoms: C9_15  and  C11_18 
REMARK       I    between atoms: C10_16  and  N4_21 
REMARK    9  A    between atoms: C11_18  and  C12_19 
REMARK   10  A    between atoms: C11_18  and  C13_20 
REMARK   11  A    between atoms: N4_21  and  C14_22 
REMARK   12  A    between atoms: C14_22  and  C15_23 
REMARK   13  A    between atoms: C14_22  and  C16_25 
REMARK       I    between atoms: C15_23  and  N6_40 
REMARK   14  A    between atoms: C16_25  and  C17_26 
REMARK   15  A    between atoms: C17_26  and  C18_27 
REMARK   16  A    between atoms: C17_26  and  C19_28 
REMARK   17  A    between atoms: C20_29  and  C21_30 
REMARK   18  A    between atoms: C20_29  and  C24_33 
REMARK   19  A    between atoms: C20_29  and  N6_40 
REMARK   20  A    between atoms: C21_30  and  C22_31 
REMARK   21  A    between atoms: C22_31  and  C23_32 
REMARK   22  A    between atoms: C23_32  and  O8_43 
REMARK   23  A    between atoms: C24_33  and  C25_34 
REMARK   24  A    between atoms: C28_38  and  O6_39 
REMARK   25  A    between atoms: C29_42  and  O8_43 
REMARK   26  A    between atoms: C29_42  and  C35_49 
ROOT
ATOM      1  C14 non d ame      -7.549   7.887  68.433  0.00  0.00     0.089 C 
ATOM      2  H20 non d ame      -7.203   6.889  68.163  0.00  0.00     0.087 H 
ENDROOT
BRANCH   1   3
ATOM      3  N4  non d ame      -7.123   8.798  67.381  0.00  0.00    -0.346 N 
ATOM      4  C10 non d ame      -6.112   8.356  66.353  0.00  0.00     0.241 C 
ATOM      5  O4  non d ame      -5.654   7.262  66.395  0.00  0.00    -0.271 OA
ATOM      6  H19 non d ame      -7.523   9.726  67.365  0.00  0.00     0.163 HD
BRANCH   4   7
ATOM      7  C9  non d ame      -5.686   9.310  65.269  0.00  0.00     0.092 C 
ATOM      8  H11 non d ame      -5.199   8.750  64.470  0.00  0.00     0.088 H 
BRANCH   7   9
ATOM      9  N3  non d ame      -6.871   9.951  64.689  0.00  0.00    -0.346 N 
ATOM     10  C7  non d ame      -7.287   9.618  63.349  0.00  0.00     0.240 C 
ATOM     11  O3  non d ame      -6.680   8.837  62.723  0.00  0.00    -0.271 OA
ATOM     12  H10 non d ame      -7.403  10.628  65.216  0.00  0.00     0.163 HD
BRANCH  10  13
ATOM     13  C6  non d ame      -8.546  10.306  62.736  0.00  0.00     0.086 C 
ATOM     14  H6  non d ame      -9.399   9.631  62.657  0.00  0.00     0.086 H 
BRANCH  13  15
ATOM     15  N2  non d ame      -8.958  11.396  63.605  0.00  0.00    -0.343 N 
ATOM     16  C5  non d ame     -10.382  11.703  63.752  0.00  0.00     0.273 C 
ATOM     17  O2  non d ame     -11.189  11.070  63.163  0.00  0.00    -0.266 OA
ATOM     18  H5  non d ame      -8.261  11.933  64.102  0.00  0.00     0.163 HD
BRANCH  16  19
ATOM     19  C4  non d ame     -10.831  12.852  64.668  0.00  0.00     0.154 A 
ATOM     20  C1  non d ame     -10.092  14.030  65.004  0.00  0.00    -0.017 A 
ATOM     21  C2  non d ame     -10.940  14.758  65.868  0.00  0.00     0.077 A 
ATOM     22  H1  non d ame      -9.093  14.313  64.672  0.00  0.00     0.091 H 
ATOM     23  O1  non d ame     -12.036  14.070  66.005  0.00  0.00    -0.218 OA
ATOM     24  N1  non d ame     -11.996  12.954  65.314  0.00  0.00    -0.123 NA
BRANCH  21  25
ATOM     25  C3  non d ame     -10.629  16.099  66.518  0.00  0.00    -0.029 C 
ATOM     26  H2  non d ame     -11.133  16.895  65.969  0.00  0.00     0.036 H 
ATOM     27  H3  non d ame     -10.978  16.092  67.551  0.00  0.00     0.036 H 
ATOM     28  H4  non d ame      -9.552  16.271  66.500  0.00  0.00     0.036 H 
ENDBRANCH  21  25
ENDBRANCH  16  19
ENDBRANCH  13  15
BRANCH  13  29
ATOM     29  C8  non d ame      -8.215  10.836  61.364  0.00  0.00    -0.049 C 
ATOM     30  H7  non d ame      -8.056  11.913  61.420  0.00  0.00     0.030 H 
ATOM     31  H8  non d ame      -7.310  10.353  60.997  0.00  0.00     0.030 H 
ATOM     32  H9  non d ame      -9.041  10.626  60.685  0.00  0.00     0.030 H 
ENDBRANCH  13  29
ENDBRANCH  10  13
ENDBRANCH   7   9
BRANCH   7  33
ATOM     33  C11 non d ame      -4.754  10.400  65.873  0.00  0.00    -0.033 C 
ATOM     34  H12 non d ame      -4.167   9.929  66.662  0.00  0.00     0.042 H 
BRANCH  33  35
ATOM     35  C12 non d ame      -3.754  10.947  64.808  0.00  0.00    -0.071 C 
ATOM     36  H13 non d ame      -4.074  11.937  64.483  0.00  0.00     0.028 H 
ATOM     37  H14 non d ame      -2.758  11.013  65.245  0.00  0.00     0.028 H 
ATOM     38  H15 non d ame      -3.731  10.274  63.951  0.00  0.00     0.028 H 
ENDBRANCH  33  35
BRANCH  33  39
ATOM     39  C13 non d ame      -5.586  11.555  66.515  0.00  0.00    -0.071 C 
ATOM     40  H16 non d ame      -6.647  11.383  66.334  0.00  0.00     0.028 H 
ATOM     41  H17 non d ame      -5.401  11.584  67.589  0.00  0.00     0.028 H 
ATOM     42  H18 non d ame      -5.291  12.506  66.070  0.00  0.00     0.028 H 
ENDBRANCH  33  39
ENDBRANCH   7  33
ENDBRANCH   4   7
ENDBRANCH   1   3
BRANCH   1  43
ATOM     43  C15 non d ame      -9.098   7.960  68.553  0.00  0.00     0.240 C 
ATOM     44  O5  non d ame      -9.779   7.326  67.812  0.00  0.00    -0.271 OA
ATOM     45  N6  non d ame      -9.734   8.813  69.597  0.00  0.00    -0.355 N 
ATOM     46  H46 non d ame      -9.167   9.352  70.235  0.00  0.00     0.162 HD
BRANCH  45  47
ATOM     47  C20 non d ame     -11.209   8.869  69.699  0.00  0.00     0.013 C 
ATOM     48  H30 non d ame     -11.620   8.707  68.703  0.00  0.00     0.072 H 
BRANCH  47  49
ATOM     49  C21 non d ame     -11.622  10.230  70.213  0.00  0.00    -0.038 C 
ATOM     50  H31 non d ame     -12.545  10.067  70.770  0.00  0.00     0.036 H 
ATOM     51  H32 non d ame     -10.744  10.632  70.718  0.00  0.00     0.036 H 
BRANCH  49  52
ATOM     52  C22 non d ame     -11.965  11.220  69.079  0.00  0.00     0.018 C 
ATOM     53  H33 non d ame     -12.173  10.605  68.203  0.00  0.00     0.048 H 
ATOM     54  H34 non d ame     -12.740  11.874  69.482  0.00  0.00     0.048 H 
BRANCH  52  55
ATOM     55  C23 non d ame     -10.785  12.149  68.680  0.00  0.00     0.259 C 
ATOM     56  O7  non d ame      -9.921  11.754  67.968  0.00  0.00    -0.265 OA
BRANCH  55  57
ATOM     57  O8  non d ame     -10.743  13.478  69.188  0.00  0.00    -0.317 OA
BRANCH  57  58
ATOM     58  C29 non d ame     -12.021  14.116  69.256  0.00  0.00     0.052 C 
ATOM     59  H47 non d ame     -11.942  15.002  68.624  0.00  0.00     0.082 H 
ATOM     60  H48 non d ame     -12.751  13.342  69.020  0.00  0.00     0.082 H 
BRANCH  58  61
ATOM     61  C35 non d ame     -12.249  14.576  70.720  0.00  0.00    -0.034 A 
ATOM     62  C30 non d ame     -12.932  13.753  71.610  0.00  0.00    -0.075 A 
ATOM     63  C31 non d ame     -13.137  14.166  72.926  0.00  0.00    -0.082 A 
ATOM     64  H49 non d ame     -13.306  12.785  71.277  0.00  0.00     0.084 H 
ATOM     65  C32 non d ame     -12.659  15.409  73.350  0.00  0.00    -0.083 A 
ATOM     66  H50 non d ame     -13.671  13.518  73.621  0.00  0.00     0.083 H 
ATOM     67  C33 non d ame     -11.981  16.228  72.457  0.00  0.00    -0.082 A 
ATOM     68  H51 non d ame     -12.815  15.739  74.377  0.00  0.00     0.083 H 
ATOM     69  C34 non d ame     -11.772  15.819  71.142  0.00  0.00    -0.075 A 
ATOM     70  H52 non d ame     -11.611  17.198  72.791  0.00  0.00     0.083 H 
ATOM     71  H53 non d ame     -11.238  16.467  70.447  0.00  0.00     0.084 H 
ENDBRANCH  58  61
ENDBRANCH  57  58
ENDBRANCH  55  57
ENDBRANCH  52  55
ENDBRANCH  49  52
ENDBRANCH  47  49
BRANCH  47  72
ATOM     72  C24 non d ame     -11.702   7.790  70.660  0.00  0.00    -0.039 C 
ATOM     73  H35 non d ame     -12.533   8.242  71.202  0.00  0.00     0.036 H 
ATOM     74  H36 non d ame     -11.870   6.907  70.043  0.00  0.00     0.036 H 
BRANCH  72  75
ATOM     75  C25 non d ame     -10.585   7.404  71.742  0.00  0.00    -0.001 C 
ATOM     76  C26 non d ame     -10.109   5.846  71.524  0.00  0.00    -0.035 C 
ATOM     77  C27 non d ame     -10.188   5.195  72.710  0.00  0.00     0.085 C 
ATOM     78  H38 non d ame     -10.827   5.319  70.896  0.00  0.00     0.036 H 
ATOM     79  H39 non d ame      -9.046   5.810  71.284  0.00  0.00     0.036 H 
ATOM     80  N5  non d ame     -10.983   6.075  73.643  0.00  0.00    -0.049 N 
ATOM     81  H40 non d ame     -10.756   4.287  72.506  0.00  0.00     0.075 H 
ATOM     82  H41 non d ame      -9.163   5.127  73.073  0.00  0.00     0.075 H 
ATOM     83  C28 non d ame     -11.038   7.530  72.945  0.00  0.00     0.193 C 
ATOM     84  H42 non d ame     -11.919   5.695  73.668  0.00  0.00     0.280 HD
ATOM     85  H43 non d ame     -10.446   6.148  74.496  0.00  0.00     0.280 HD
ATOM     86  H44 non d ame     -10.409   8.343  73.309  0.00  0.00     0.129 H 
ATOM     87  H37 non d ame      -9.801   8.158  71.812  0.00  0.00     0.046 H 
BRANCH  83  88
ATOM     88  O6  non d ame     -12.372   8.038  72.969  0.00  0.00    -0.369 OA
ATOM     89  H45 non d ame     -12.985   7.342  72.721  0.00  0.00     0.212 HD
ENDBRANCH  83  88
ENDBRANCH  72  75
ENDBRANCH  47  72
ENDBRANCH  45  47
ENDBRANCH   1  43
BRANCH   1  90
ATOM     90  C16 non d ame      -6.914   8.314  69.747  0.00  0.00    -0.035 C 
ATOM     91  H21 non d ame      -6.919   9.404  69.729  0.00  0.00     0.037 H 
ATOM     92  H22 non d ame      -7.466   7.780  70.521  0.00  0.00     0.037 H 
BRANCH  90  93
ATOM     93  C17 non d ame      -5.421   7.882  69.891  0.00  0.00    -0.059 C 
ATOM     94  H23 non d ame      -5.192   7.202  69.070  0.00  0.00     0.038 H 
BRANCH  93  95
ATOM     95  C18 non d ame      -4.443   9.096  69.789  0.00  0.00    -0.073 C 
ATOM     96  H24 non d ame      -3.534   8.788  69.274  0.00  0.00     0.028 H 
ATOM     97  H25 non d ame      -4.922   9.902  69.233  0.00  0.00     0.028 H 
ATOM     98  H26 non d ame      -4.193   9.445  70.791  0.00  0.00     0.028 H 
ENDBRANCH  93  95
BRANCH  93  99
ATOM     99  C19 non d ame      -5.198   7.111  71.194  0.00  0.00    -0.073 C 
ATOM    100  H27 non d ame      -4.451   6.333  71.033  0.00  0.00     0.028 H 
ATOM    101  H28 non d ame      -4.848   7.796  71.967  0.00  0.00     0.028 H 
ATOM    102  H29 non d ame      -6.135   6.655  71.511  0.00  0.00     0.028 H 
ENDBRANCH  93  99
ENDBRANCH  90  93
ENDBRANCH   1  90
TORSDOF 26
ENDMDL
MODEL 19
REMARK VINA RESULT:      -5.6      2.972      9.526
REMARK  26 active torsions:
REMARK  status: ('A' for Active; 'I' for Inactive)
REMARK    1  A    between atoms: C2_2  and  C3_3 
REMARK    2  A    between atoms: C4_6  and  C5_7 
REMARK       I    between atoms: C5_7  and  N2_9 
REMARK    3  A    between atoms: N2_9  and  C6_10 
REMARK    4  A    between atoms: C6_10  and  C7_11 
REMARK    5  A    between atoms: C6_10  and  C8_13 
REMARK       I    between atoms: C7_11  and  N3_14 
REMARK    6  A    between atoms: N3_14  and  C9_15 
REMARK    7  A    between atoms: C9_15  and  C10_16 
REMARK    8  A    between atoms: C9_15  and  C11_18 
REMARK       I    between atoms: C10_16  and  N4_21 
REMARK    9  A    between atoms: C11_18  and  C12_19 
REMARK   10  A    between atoms: C11_18  and  C13_20 
REMARK   11  A    between atoms: N4_21  and  C14_22 
REMARK   12  A    between atoms: C14_22  and  C15_23 
REMARK   13  A    between atoms: C14_22  and  C16_25 
REMARK       I    between atoms: C15_23  and  N6_40 
REMARK   14  A    between atoms: C16_25  and  C17_26 
REMARK   15  A    between atoms: C17_26  and  C18_27 
REMARK   16  A    between atoms: C17_26  and  C19_28 
REMARK   17  A    between atoms: C20_29  and  C21_30 
REMARK   18  A    between atoms: C20_29  and  C24_33 
REMARK   19  A    between atoms: C20_29  and  N6_40 
REMARK   20  A    between atoms: C21_30  and  C22_31 
REMARK   21  A    between atoms: C22_31  and  C23_32 
REMARK   22  A    between atoms: C23_32  and  O8_43 
REMARK   23  A    between atoms: C24_33  and  C25_34 
REMARK   24  A    between atoms: C28_38  and  O6_39 
REMARK   25  A    between atoms: C29_42  and  O8_43 
REMARK   26  A    between atoms: C29_42  and  C35_49 
ROOT
ATOM      1  C14 non d ame      -9.211  10.988  65.814  0.00  0.00     0.089 C 
ATOM      2  H20 non d ame      -8.920  11.406  64.850  0.00  0.00     0.087 H 
ENDROOT
BRANCH   1   3
ATOM      3  N4  non d ame      -8.768   9.602  65.843  0.00  0.00    -0.346 N 
ATOM      4  C10 non d ame      -7.998   9.024  64.682  0.00  0.00     0.241 C 
ATOM      5  O4  non d ame      -7.749   9.694  63.734  0.00  0.00    -0.271 OA
ATOM      6  H19 non d ame      -8.991   9.049  66.658  0.00  0.00     0.163 HD
BRANCH   4   7
ATOM      7  C9  non d ame      -7.542   7.590  64.732  0.00  0.00     0.092 C 
ATOM      8  H11 non d ame      -6.698   7.505  65.417  0.00  0.00     0.088 H 
BRANCH   7   9
ATOM      9  N3  non d ame      -8.620   6.752  65.265  0.00  0.00    -0.346 N 
ATOM     10  C7  non d ame      -8.363   5.868  66.376  0.00  0.00     0.240 C 
ATOM     11  O3  non d ame      -7.294   5.818  66.851  0.00  0.00    -0.271 OA
ATOM     12  H10 non d ame      -9.546   6.783  64.865  0.00  0.00     0.163 HD
BRANCH  10  13
ATOM     13  C6  non d ame      -9.513   4.977  66.938  0.00  0.00     0.086 C 
ATOM     14  H6  non d ame      -9.151   4.045  67.373  0.00  0.00     0.086 H 
BRANCH  13  15
ATOM     15  N2  non d ame     -10.191   5.697  68.003  0.00  0.00    -0.343 N 
ATOM     16  C5  non d ame     -10.136   5.180  69.372  0.00  0.00     0.273 C 
ATOM     17  O2  non d ame      -9.546   4.182  69.605  0.00  0.00    -0.266 OA
ATOM     18  H5  non d ame     -10.695   6.547  67.794  0.00  0.00     0.163 HD
BRANCH  16  19
ATOM     19  C4  non d ame     -10.846   5.932  70.508  0.00  0.00     0.154 A 
ATOM     20  C1  non d ame     -11.570   7.163  70.410  0.00  0.00    -0.017 A 
ATOM     21  C2  non d ame     -12.023   7.424  71.723  0.00  0.00     0.077 A 
ATOM     22  H1  non d ame     -11.741   7.773  69.523  0.00  0.00     0.091 H 
ATOM     23  O1  non d ame     -11.604   6.450  72.478  0.00  0.00    -0.218 OA
ATOM     24  N1  non d ame     -10.915   5.568  71.792  0.00  0.00    -0.123 NA
BRANCH  21  25
ATOM     25  C3  non d ame     -12.849   8.622  72.170  0.00  0.00    -0.029 C 
ATOM     26  H2  non d ame     -13.897   8.457  71.916  0.00  0.00     0.036 H 
ATOM     27  H3  non d ame     -12.752   8.748  73.248  0.00  0.00     0.036 H 
ATOM     28  H4  non d ame     -12.491   9.520  71.666  0.00  0.00     0.036 H 
ENDBRANCH  21  25
ENDBRANCH  16  19
ENDBRANCH  13  15
BRANCH  13  29
ATOM     29  C8  non d ame     -10.487   4.652  65.833  0.00  0.00    -0.049 C 
ATOM     30  H7  non d ame     -11.250   3.972  66.209  0.00  0.00     0.030 H 
ATOM     31  H8  non d ame     -10.959   5.571  65.483  0.00  0.00     0.030 H 
ATOM     32  H9  non d ame      -9.954   4.180  65.008  0.00  0.00     0.030 H 
ENDBRANCH  13  29
ENDBRANCH  10  13
ENDBRANCH   7   9
BRANCH   7  33
ATOM     33  C11 non d ame      -7.179   7.111  63.295  0.00  0.00    -0.033 C 
ATOM     34  H12 non d ame      -7.284   7.966  62.627  0.00  0.00     0.042 H 
BRANCH  33  35
ATOM     35  C12 non d ame      -5.697   6.632  63.213  0.00  0.00    -0.071 C 
ATOM     36  H13 non d ame      -5.653   5.556  63.383  0.00  0.00     0.028 H 
ATOM     37  H14 non d ame      -5.296   6.859  62.225  0.00  0.00     0.028 H 
ATOM     38  H15 non d ame      -5.107   7.144  63.972  0.00  0.00     0.028 H 
ENDBRANCH  33  35
BRANCH  33  39
ATOM     39  C13 non d ame      -8.163   5.997  62.812  0.00  0.00    -0.071 C 
ATOM     40  H16 non d ame      -8.866   5.763  63.610  0.00  0.00     0.028 H 
ATOM     41  H17 non d ame      -8.710   6.350  61.937  0.00  0.00     0.028 H 
ATOM     42  H18 non d ame      -7.597   5.103  62.551  0.00  0.00     0.028 H 
ENDBRANCH  33  39
ENDBRANCH   7  33
ENDBRANCH   4   7
ENDBRANCH   1   3
BRANCH   1  43
ATOM     43  C15 non d ame      -8.553  11.743  67.004  0.00  0.00     0.240 C 
ATOM     44  O5  non d ame      -8.148  11.133  67.940  0.00  0.00    -0.271 OA
ATOM     45  N6  non d ame      -8.421  13.228  66.973  0.00  0.00    -0.355 N 
ATOM     46  H46 non d ame      -8.757  13.757  66.182  0.00  0.00     0.162 HD
BRANCH  45  47
ATOM     47  C20 non d ame      -7.792  13.931  68.112  0.00  0.00     0.013 C 
ATOM     48  H30 non d ame      -7.700  13.223  68.935  0.00  0.00     0.072 H 
BRANCH  47  49
ATOM     49  C21 non d ame      -8.666  15.094  68.526  0.00  0.00    -0.038 C 
ATOM     50  H31 non d ame      -9.122  14.798  69.470  0.00  0.00     0.036 H 
ATOM     51  H32 non d ame      -8.024  15.974  68.483  0.00  0.00     0.036 H 
BRANCH  49  52
ATOM     52  C22 non d ame      -9.827  15.351  67.541  0.00  0.00     0.018 C 
ATOM     53  H33 non d ame      -9.405  15.958  66.739  0.00  0.00     0.048 H 
ATOM     54  H34 non d ame     -10.247  14.370  67.318  0.00  0.00     0.048 H 
BRANCH  52  55
ATOM     55  C23 non d ame     -10.988  16.188  68.146  0.00  0.00     0.259 C 
ATOM     56  O7  non d ame     -11.982  15.656  68.522  0.00  0.00    -0.265 OA
BRANCH  55  57
ATOM     57  O8  non d ame     -10.855  17.601  68.236  0.00  0.00    -0.317 OA
BRANCH  57  58
ATOM     58  C29 non d ame     -10.406  18.221  67.027  0.00  0.00     0.052 C 
ATOM     59  H47 non d ame     -10.176  17.404  66.344  0.00  0.00     0.082 H 
ATOM     60  H48 non d ame     -11.174  18.949  66.766  0.00  0.00     0.082 H 
BRANCH  58  61
ATOM     61  C35 non d ame      -9.092  18.985  67.341  0.00  0.00    -0.034 A 
ATOM     62  C30 non d ame      -8.551  18.944  68.621  0.00  0.00    -0.075 A 
ATOM     63  C31 non d ame      -7.371  19.630  68.903  0.00  0.00    -0.082 A 
ATOM     64  H49 non d ame      -9.051  18.373  69.404  0.00  0.00     0.084 H 
ATOM     65  C32 non d ame      -6.732  20.362  67.898  0.00  0.00    -0.083 A 
ATOM     66  H50 non d ame      -6.947  19.593  69.907  0.00  0.00     0.083 H 
ATOM     67  C33 non d ame      -7.278  20.404  66.623  0.00  0.00    -0.082 A 
ATOM     68  H51 non d ame      -5.809  20.901  68.110  0.00  0.00     0.083 H 
ATOM     69  C34 non d ame      -8.457  19.718  66.336  0.00  0.00    -0.075 A 
ATOM     70  H52 non d ame      -6.779  20.978  65.842  0.00  0.00     0.083 H 
ATOM     71  H53 non d ame      -8.879  19.754  65.331  0.00  0.00     0.084 H 
ENDBRANCH  58  61
ENDBRANCH  57  58
ENDBRANCH  55  57
ENDBRANCH  52  55
ENDBRANCH  49  52
ENDBRANCH  47  49
BRANCH  47  72
ATOM     72  C24 non d ame      -6.414  14.449  67.702  0.00  0.00    -0.039 C 
ATOM     73  H35 non d ame      -5.702  13.895  68.315  0.00  0.00     0.036 H 
ATOM     74  H36 non d ame      -6.383  14.362  66.616  0.00  0.00     0.036 H 
BRANCH  72  75
ATOM     75  C25 non d ame      -6.235  16.001  68.057  0.00  0.00    -0.001 C 
ATOM     76  C26 non d ame      -5.919  16.855  66.688  0.00  0.00    -0.035 C 
ATOM     77  C27 non d ame      -4.815  17.613  66.891  0.00  0.00     0.085 C 
ATOM     78  H38 non d ame      -5.621  16.180  65.886  0.00  0.00     0.036 H 
ATOM     79  H39 non d ame      -6.705  17.592  66.516  0.00  0.00     0.036 H 
ATOM     80  N5  non d ame      -4.161  17.109  68.155  0.00  0.00    -0.049 N 
ATOM     81  H40 non d ame      -4.159  17.405  66.045  0.00  0.00     0.075 H 
ATOM     82  H41 non d ame      -5.182  18.624  67.061  0.00  0.00     0.075 H 
ATOM     83  C28 non d ame      -5.262  16.182  68.886  0.00  0.00     0.193 C 
ATOM     84  H42 non d ame      -3.390  16.524  67.865  0.00  0.00     0.280 HD
ATOM     85  H43 non d ame      -3.990  17.920  68.732  0.00  0.00     0.280 HD
ATOM     86  H44 non d ame      -5.808  16.551  69.755  0.00  0.00     0.129 H 
ATOM     87  H37 non d ame      -7.033  16.373  68.700  0.00  0.00     0.046 H 
BRANCH  83  88
ATOM     88  O6  non d ame      -4.671  14.949  69.301  0.00  0.00    -0.369 OA
ATOM     89  H45 non d ame      -5.213  14.549  69.985  0.00  0.00     0.212 HD
ENDBRANCH  83  88
ENDBRANCH  72  75
ENDBRANCH  47  72
ENDBRANCH  45  47
ENDBRANCH   1  43
BRANCH   1  90
ATOM     90  C16 non d ame     -10.724  11.028  65.957  0.00  0.00    -0.035 C 
ATOM     91  H21 non d ame     -11.055   9.999  65.812  0.00  0.00     0.037 H 
ATOM     92  H22 non d ame     -10.911  11.532  66.905  0.00  0.00     0.037 H 
BRANCH  90  93
ATOM     93  C17 non d ame     -11.435  11.879  64.857  0.00  0.00    -0.059 C 
ATOM     94  H23 non d ame     -12.257  11.284  64.459  0.00  0.00     0.038 H 
BRANCH  93  95
ATOM     95  C18 non d ame     -12.037  13.201  65.432  0.00  0.00    -0.073 C 
ATOM     96  H24 non d ame     -13.125  13.138  65.423  0.00  0.00     0.028 H 
ATOM     97  H25 non d ame     -11.690  13.343  66.456  0.00  0.00     0.028 H 
ATOM     98  H26 non d ame     -11.716  14.043  64.819  0.00  0.00     0.028 H 
ENDBRANCH  93  95
BRANCH  93  99
ATOM     99  C19 non d ame     -10.484  12.174  63.695  0.00  0.00    -0.073 C 
ATOM    100  H27 non d ame      -9.881  13.051  63.932  0.00  0.00     0.028 H 
ATOM    101  H28 non d ame      -9.830  11.317  63.534  0.00  0.00     0.028 H 
ATOM    102  H29 non d ame     -11.062  12.364  62.791  0.00  0.00     0.028 H 
ENDBRANCH  93  99
ENDBRANCH  90  93
ENDBRANCH   1  90
TORSDOF 26
ENDMDL
MODEL 20
REMARK VINA RESULT:      -5.5      2.568      5.543
REMARK  26 active torsions:
REMARK  status: ('A' for Active; 'I' for Inactive)
REMARK    1  A    between atoms: C2_2  and  C3_3 
REMARK    2  A    between atoms: C4_6  and  C5_7 
REMARK       I    between atoms: C5_7  and  N2_9 
REMARK    3  A    between atoms: N2_9  and  C6_10 
REMARK    4  A    between atoms: C6_10  and  C7_11 
REMARK    5  A    between atoms: C6_10  and  C8_13 
REMARK       I    between atoms: C7_11  and  N3_14 
REMARK    6  A    between atoms: N3_14  and  C9_15 
REMARK    7  A    between atoms: C9_15  and  C10_16 
REMARK    8  A    between atoms: C9_15  and  C11_18 
REMARK       I    between atoms: C10_16  and  N4_21 
REMARK    9  A    between atoms: C11_18  and  C12_19 
REMARK   10  A    between atoms: C11_18  and  C13_20 
REMARK   11  A    between atoms: N4_21  and  C14_22 
REMARK   12  A    between atoms: C14_22  and  C15_23 
REMARK   13  A    between atoms: C14_22  and  C16_25 
REMARK       I    between atoms: C15_23  and  N6_40 
REMARK   14  A    between atoms: C16_25  and  C17_26 
REMARK   15  A    between atoms: C17_26  and  C18_27 
REMARK   16  A    between atoms: C17_26  and  C19_28 
REMARK   17  A    between atoms: C20_29  and  C21_30 
REMARK   18  A    between atoms: C20_29  and  C24_33 
REMARK   19  A    between atoms: C20_29  and  N6_40 
REMARK   20  A    between atoms: C21_30  and  C22_31 
REMARK   21  A    between atoms: C22_31  and  C23_32 
REMARK   22  A    between atoms: C23_32  and  O8_43 
REMARK   23  A    between atoms: C24_33  and  C25_34 
REMARK   24  A    between atoms: C28_38  and  O6_39 
REMARK   25  A    between atoms: C29_42  and  O8_43 
REMARK   26  A    between atoms: C29_42  and  C35_49 
ROOT
ATOM      1  C14 non d ame      -7.310  11.211  67.774  0.00  0.00     0.089 C 
ATOM      2  H20 non d ame      -6.241  11.223  67.558  0.00  0.00     0.087 H 
ENDROOT
BRANCH   1   3
ATOM      3  N4  non d ame      -8.009  11.011  66.514  0.00  0.00    -0.346 N 
ATOM      4  C10 non d ame      -7.338  10.281  65.378  0.00  0.00     0.241 C 
ATOM      5  O4  non d ame      -6.233   9.866  65.500  0.00  0.00    -0.271 OA
ATOM      6  H19 non d ame      -8.948  11.374  66.429  0.00  0.00     0.163 HD
BRANCH   4   7
ATOM      7  C9  non d ame      -8.079  10.078  64.082  0.00  0.00     0.092 C 
ATOM      8  H11 non d ame      -8.510   9.076  64.069  0.00  0.00     0.088 H 
BRANCH   7   9
ATOM      9  N3  non d ame      -9.192  11.029  64.001  0.00  0.00    -0.346 N 
ATOM     10  C7  non d ame     -10.406  10.783  64.740  0.00  0.00     0.240 C 
ATOM     11  O3  non d ame     -10.504   9.824  65.404  0.00  0.00    -0.271 OA
ATOM     12  H10 non d ame      -9.122  11.860  63.431  0.00  0.00     0.163 HD
BRANCH  10  13
ATOM     13  C6  non d ame     -11.588  11.797  64.647  0.00  0.00     0.086 C 
ATOM     14  H6  non d ame     -12.517  11.401  65.056  0.00  0.00     0.086 H 
BRANCH  13  15
ATOM     15  N2  non d ame     -11.259  12.977  65.430  0.00  0.00    -0.343 N 
ATOM     16  C5  non d ame     -11.514  12.981  66.872  0.00  0.00     0.273 C 
ATOM     17  O2  non d ame     -11.987  12.031  67.392  0.00  0.00    -0.266 OA
ATOM     18  H5  non d ame     -10.857  13.786  64.976  0.00  0.00     0.163 HD
BRANCH  16  19
ATOM     19  C4  non d ame     -11.170  14.221  67.711  0.00  0.00     0.154 A 
ATOM     20  C1  non d ame     -10.756  15.503  67.230  0.00  0.00    -0.017 A 
ATOM     21  C2  non d ame     -10.567  16.284  68.392  0.00  0.00     0.077 A 
ATOM     22  H1  non d ame     -10.614  15.819  66.196  0.00  0.00     0.091 H 
ATOM     23  O1  non d ame     -10.844  15.530  69.415  0.00  0.00    -0.218 OA
ATOM     24  N1  non d ame     -11.198  14.321  69.043  0.00  0.00    -0.123 NA
BRANCH  21  25
ATOM     25  C3  non d ame     -10.122  17.740  68.438  0.00  0.00    -0.029 C 
ATOM     26  H2  non d ame     -10.789  18.304  69.090  0.00  0.00     0.036 H 
ATOM     27  H3  non d ame      -9.104  17.797  68.822  0.00  0.00     0.036 H 
ATOM     28  H4  non d ame     -10.155  18.162  67.433  0.00  0.00     0.036 H 
ENDBRANCH  21  25
ENDBRANCH  16  19
ENDBRANCH  13  15
BRANCH  13  29
ATOM     29  C8  non d ame     -11.814  12.179  63.206  0.00  0.00    -0.049 C 
ATOM     30  H7  non d ame     -11.229  13.068  62.970  0.00  0.00     0.030 H 
ATOM     31  H8  non d ame     -11.504  11.358  62.560  0.00  0.00     0.030 H 
ATOM     32  H9  non d ame     -12.871  12.388  63.048  0.00  0.00     0.030 H 
ENDBRANCH  13  29
ENDBRANCH  10  13
ENDBRANCH   7   9
BRANCH   7  33
ATOM     33  C11 non d ame      -7.110  10.314  62.887  0.00  0.00    -0.033 C 
ATOM     34  H12 non d ame      -6.312  10.970  63.236  0.00  0.00     0.042 H 
BRANCH  33  35
ATOM     35  C12 non d ame      -6.450   8.980  62.418  0.00  0.00    -0.071 C 
ATOM     36  H13 non d ame      -5.664   9.199  61.694  0.00  0.00     0.028 H 
ATOM     37  H14 non d ame      -6.019   8.467  63.277  0.00  0.00     0.028 H 
ATOM     38  H15 non d ame      -7.204   8.345  61.955  0.00  0.00     0.028 H 
ENDBRANCH  33  35
BRANCH  33  39
ATOM     39  C13 non d ame      -7.842  11.030  61.707  0.00  0.00    -0.071 C 
ATOM     40  H16 non d ame      -7.120  11.605  61.127  0.00  0.00     0.028 H 
ATOM     41  H17 non d ame      -8.312  10.284  61.065  0.00  0.00     0.028 H 
ATOM     42  H18 non d ame      -8.604  11.700  62.105  0.00  0.00     0.028 H 
ENDBRANCH  33  39
ENDBRANCH   7  33
ENDBRANCH   4   7
ENDBRANCH   1   3
BRANCH   1  43
ATOM     43  C15 non d ame      -7.700  10.061  68.746  0.00  0.00     0.240 C 
ATOM     44  O5  non d ame      -6.870   9.564  69.437  0.00  0.00    -0.271 OA
ATOM     45  N6  non d ame      -9.110   9.584  68.820  0.00  0.00    -0.355 N 
ATOM     46  H46 non d ame      -9.824  10.001  68.241  0.00  0.00     0.162 HD
BRANCH  45  47
ATOM     47  C20 non d ame      -9.465   8.490  69.750  0.00  0.00     0.013 C 
ATOM     48  H30 non d ame      -8.549   7.958  70.008  0.00  0.00     0.072 H 
BRANCH  47  49
ATOM     49  C21 non d ame     -10.433   7.549  69.069  0.00  0.00    -0.038 C 
ATOM     50  H31 non d ame     -11.135   7.237  69.843  0.00  0.00     0.036 H 
ATOM     51  H32 non d ame     -10.793   8.084  68.189  0.00  0.00     0.036 H 
BRANCH  49  52
ATOM     52  C22 non d ame      -9.755   6.263  68.550  0.00  0.00     0.018 C 
ATOM     53  H33 non d ame      -8.689   6.395  68.738  0.00  0.00     0.048 H 
ATOM     54  H34 non d ame     -10.292   5.437  69.017  0.00  0.00     0.048 H 
BRANCH  52  55
ATOM     55  C23 non d ame      -9.897   6.054  67.017  0.00  0.00     0.259 C 
ATOM     56  O7  non d ame     -10.819   5.450  66.574  0.00  0.00    -0.265 OA
BRANCH  55  57
ATOM     57  O8  non d ame      -8.904   6.583  66.147  0.00  0.00    -0.317 OA
BRANCH  57  58
ATOM     58  C29 non d ame      -7.681   6.930  66.802  0.00  0.00     0.052 C 
ATOM     59  H47 non d ame      -7.496   7.973  66.547  0.00  0.00     0.082 H 
ATOM     60  H48 non d ame      -7.811   6.638  67.844  0.00  0.00     0.082 H 
BRANCH  58  61
ATOM     61  C35 non d ame      -6.547   6.066  66.188  0.00  0.00    -0.034 A 
ATOM     62  C30 non d ame      -6.061   4.961  66.880  0.00  0.00    -0.075 A 
ATOM     63  C31 non d ame      -5.042   4.185  66.330  0.00  0.00    -0.082 A 
ATOM     64  H49 non d ame      -6.478   4.703  67.854  0.00  0.00     0.084 H 
ATOM     65  C32 non d ame      -4.508   4.518  65.082  0.00  0.00    -0.083 A 
ATOM     66  H50 non d ame      -4.665   3.318  66.873  0.00  0.00     0.083 H 
ATOM     67  C33 non d ame      -4.994   5.624  64.397  0.00  0.00    -0.082 A 
ATOM     68  H51 non d ame      -3.712   3.916  64.644  0.00  0.00     0.083 H 
ATOM     69  C34 non d ame      -6.013   6.401  64.943  0.00  0.00    -0.075 A 
ATOM     70  H52 non d ame      -4.573   5.883  63.425  0.00  0.00     0.083 H 
ATOM     71  H53 non d ame      -6.390   7.267  64.398  0.00  0.00     0.084 H 
ENDBRANCH  58  61
ENDBRANCH  57  58
ENDBRANCH  55  57
ENDBRANCH  52  55
ENDBRANCH  49  52
ENDBRANCH  47  49
BRANCH  47  72
ATOM     72  C24 non d ame     -10.115   9.069  71.005  0.00  0.00    -0.039 C 
ATOM     73  H35 non d ame      -9.942   8.331  71.788  0.00  0.00     0.036 H 
ATOM     74  H36 non d ame      -9.706  10.075  71.105  0.00  0.00     0.036 H 
BRANCH  72  75
ATOM     75  C25 non d ame     -11.701   9.218  70.837  0.00  0.00    -0.001 C 
ATOM     76  C26 non d ame     -12.113  10.809  70.797  0.00  0.00    -0.035 C 
ATOM     77  C27 non d ame     -13.099  11.027  71.699  0.00  0.00     0.085 C 
ATOM     78  H38 non d ame     -11.289  11.418  71.168  0.00  0.00     0.036 H 
ATOM     79  H39 non d ame     -12.582  11.050  69.843  0.00  0.00     0.036 H 
ATOM     80  N5  non d ame     -13.171   9.803  72.580  0.00  0.00    -0.049 N 
ATOM     81  H40 non d ame     -12.765  11.876  72.297  0.00  0.00     0.075 H 
ATOM     82  H41 non d ame     -14.017  11.099  71.116  0.00  0.00     0.075 H 
ATOM     83  C28 non d ame     -12.329   8.657  71.815  0.00  0.00     0.193 C 
ATOM     84  H42 non d ame     -12.690  10.038  73.436  0.00  0.00     0.280 HD
ATOM     85  H43 non d ame     -14.142   9.526  72.605  0.00  0.00     0.280 HD
ATOM     86  H44 non d ame     -12.842   7.853  71.287  0.00  0.00     0.129 H 
ATOM     87  H37 non d ame     -12.093   8.584  70.041  0.00  0.00     0.046 H 
BRANCH  83  88
ATOM     88  O6  non d ame     -11.440   8.009  72.726  0.00  0.00    -0.369 OA
ATOM     89  H45 non d ame     -11.008   8.667  73.275  0.00  0.00     0.212 HD
ENDBRANCH  83  88
ENDBRANCH  72  75
ENDBRANCH  47  72
ENDBRANCH  45  47
ENDBRANCH   1  43
BRANCH   1  90
ATOM     90  C16 non d ame      -7.729  12.546  68.368  0.00  0.00    -0.035 C 
ATOM     91  H21 non d ame      -8.524  12.914  67.718  0.00  0.00     0.037 H 
ATOM     92  H22 non d ame      -7.935  12.343  69.419  0.00  0.00     0.037 H 
BRANCH  90  93
ATOM     93  C17 non d ame      -6.602  13.627  68.340  0.00  0.00    -0.059 C 
ATOM     94  H23 non d ame      -6.599  14.076  67.347  0.00  0.00     0.038 H 
BRANCH  93  95
ATOM     95  C18 non d ame      -6.853  14.768  69.377  0.00  0.00    -0.073 C 
ATOM     96  H24 non d ame      -5.902  15.222  69.655  0.00  0.00     0.028 H 
ATOM     97  H25 non d ame      -7.502  15.524  68.936  0.00  0.00     0.028 H 
ATOM     98  H26 non d ame      -7.331  14.352  70.265  0.00  0.00     0.028 H 
ENDBRANCH  93  95
BRANCH  93  99
ATOM     99  C19 non d ame      -5.227  12.988  68.555  0.00  0.00    -0.073 C 
ATOM    100  H27 non d ame      -4.450  13.683  68.236  0.00  0.00     0.028 H 
ATOM    101  H28 non d ame      -5.096  12.756  69.612  0.00  0.00     0.028 H 
ATOM    102  H29 non d ame      -5.157  12.071  67.970  0.00  0.00     0.028 H 
ENDBRANCH  93  99
ENDBRANCH  90  93
ENDBRANCH   1  90
TORSDOF 26
ENDMDL
