MODEL 1
REMARK VINA RESULT:      -7.4      0.000      0.000
REMARK  26 active torsions:
REMARK  status: ('A' for Active; 'I' for Inactive)
REMARK    1  A    between atoms: C2_2  and  C3_3 
REMARK    2  A    between atoms: C4_6  and  C5_7 
REMARK       I    between atoms: C5_7  and  N2_9 
REMARK    3  A    between atoms: N2_9  and  C6_10 
REMARK    4  A    between atoms: C6_10  and  C7_11 
REMARK    5  A    between atoms: C6_10  and  C8_13 
REMARK       I    between atoms: C7_11  and  N3_14 
REMARK    6  A    between atoms: N3_14  and  C9_15 
REMARK    7  A    between atoms: C9_15  and  C10_16 
REMARK    8  A    between atoms: C9_15  and  C11_18 
REMARK       I    between atoms: C10_16  and  N4_21 
REMARK    9  A    between atoms: C11_18  and  C12_19 
REMARK   10  A    between atoms: C11_18  and  C13_20 
REMARK   11  A    between atoms: N4_21  and  C14_22 
REMARK   12  A    between atoms: C14_22  and  C15_23 
REMARK   13  A    between atoms: C14_22  and  C16_25 
REMARK       I    between atoms: C15_23  and  N6_40 
REMARK   14  A    between atoms: C16_25  and  C17_26 
REMARK   15  A    between atoms: C17_26  and  C18_27 
REMARK   16  A    between atoms: C17_26  and  C19_28 
REMARK   17  A    between atoms: C20_29  and  C21_30 
REMARK   18  A    between atoms: C20_29  and  C24_33 
REMARK   19  A    between atoms: C20_29  and  N6_40 
REMARK   20  A    between atoms: C21_30  and  C22_31 
REMARK   21  A    between atoms: C22_31  and  C23_32 
REMARK   22  A    between atoms: C23_32  and  O8_43 
REMARK   23  A    between atoms: C24_33  and  C25_34 
REMARK   24  A    between atoms: C28_38  and  O6_39 
REMARK   25  A    between atoms: C29_42  and  O8_43 
REMARK   26  A    between atoms: C29_42  and  C35_49 
ROOT
ATOM      1  C14 non d ame     -12.276  14.333  70.349  0.00  0.00     0.089 C 
ATOM      2  H20 non d ame     -13.357  14.295  70.488  0.00  0.00     0.087 H 
ENDROOT
BRANCH   1   3
ATOM      3  N4  non d ame     -11.821  12.977  70.083  0.00  0.00    -0.346 N 
ATOM      4  C10 non d ame     -12.420  11.811  70.828  0.00  0.00     0.241 C 
ATOM      5  O4  non d ame     -13.267  11.990  71.641  0.00  0.00    -0.271 OA
ATOM      6  H19 non d ame     -11.098  12.846  69.389  0.00  0.00     0.163 HD
BRANCH   4   7
ATOM      7  C9  non d ame     -11.941  10.414  70.536  0.00  0.00     0.092 C 
ATOM      8  H11 non d ame     -12.468  10.029  69.663  0.00  0.00     0.088 H 
BRANCH   7   9
ATOM      9  N3  non d ame     -10.514  10.447  70.200  0.00  0.00    -0.346 N 
ATOM     10  C7  non d ame     -10.077  10.077  68.876  0.00  0.00     0.240 C 
ATOM     11  O3  non d ame     -10.859   9.749  68.069  0.00  0.00    -0.271 OA
ATOM     12  H10 non d ame      -9.827  10.726  70.886  0.00  0.00     0.163 HD
BRANCH  10  13
ATOM     13  C6  non d ame      -8.557  10.111  68.525  0.00  0.00     0.086 C 
ATOM     14  H6  non d ame      -8.361   9.891  67.476  0.00  0.00     0.086 H 
BRANCH  13  15
ATOM     15  N2  non d ame      -8.046  11.449  68.771  0.00  0.00    -0.343 N 
ATOM     16  C5  non d ame      -7.240  12.114  67.745  0.00  0.00     0.273 C 
ATOM     17  O2  non d ame      -7.006  11.562  66.726  0.00  0.00    -0.266 OA
ATOM     18  H5  non d ame      -8.249  11.912  69.646  0.00  0.00     0.163 HD
BRANCH  16  19
ATOM     19  C4  non d ame      -6.695  13.529  67.991  0.00  0.00     0.154 A 
ATOM     20  C1  non d ame      -7.204  14.505  68.906  0.00  0.00    -0.017 A 
ATOM     21  C2  non d ame      -6.357  15.625  68.751  0.00  0.00     0.077 A 
ATOM     22  H1  non d ame      -8.058  14.415  69.578  0.00  0.00     0.091 H 
ATOM     23  O1  non d ame      -5.468  15.318  67.852  0.00  0.00    -0.218 OA
ATOM     24  N1  non d ame      -5.645  14.100  67.394  0.00  0.00    -0.123 NA
BRANCH  21  25
ATOM     25  C3  non d ame      -6.465  16.947  69.500  0.00  0.00    -0.029 C 
ATOM     26  H2  non d ame      -6.426  16.761  70.573  0.00  0.00     0.036 H 
ATOM     27  H3  non d ame      -5.636  17.595  69.213  0.00  0.00     0.036 H 
ATOM     28  H4  non d ame      -7.409  17.432  69.248  0.00  0.00     0.036 H 
ENDBRANCH  21  25
ENDBRANCH  16  19
ENDBRANCH  13  15
BRANCH  13  29
ATOM     29  C8  non d ame      -7.819   9.111  69.379  0.00  0.00    -0.049 C 
ATOM     30  H7  non d ame      -8.494   8.302  69.658  0.00  0.00     0.030 H 
ATOM     31  H8  non d ame      -6.977   8.705  68.818  0.00  0.00     0.030 H 
ATOM     32  H9  non d ame      -7.452   9.604  70.280  0.00  0.00     0.030 H 
ENDBRANCH  13  29
ENDBRANCH  10  13
ENDBRANCH   7   9
BRANCH   7  33
ATOM     33  C11 non d ame     -12.155   9.519  71.791  0.00  0.00    -0.033 C 
ATOM     34  H12 non d ame     -12.314  10.180  72.643  0.00  0.00     0.042 H 
BRANCH  33  35
ATOM     35  C12 non d ame     -13.427   8.628  71.644  0.00  0.00    -0.071 C 
ATOM     36  H13 non d ame     -13.280   7.916  70.831  0.00  0.00     0.028 H 
ATOM     37  H14 non d ame     -13.601   8.086  72.573  0.00  0.00     0.028 H 
ATOM     38  H15 non d ame     -14.288   9.258  71.423  0.00  0.00     0.028 H 
ENDBRANCH  33  35
BRANCH  33  39
ATOM     39  C13 non d ame     -10.888   8.652  72.083  0.00  0.00    -0.071 C 
ATOM     40  H16 non d ame     -10.602   8.767  73.128  0.00  0.00     0.028 H 
ATOM     41  H17 non d ame     -11.109   7.604  71.879  0.00  0.00     0.028 H 
ATOM     42  H18 non d ame     -10.068   8.981  71.444  0.00  0.00     0.028 H 
ENDBRANCH  33  39
ENDBRANCH   7  33
ENDBRANCH   4   7
ENDBRANCH   1   3
BRANCH   1  43
ATOM     43  C15 non d ame     -11.870  15.237  69.150  0.00  0.00     0.240 C 
ATOM     44  O5  non d ame     -12.181  16.384  69.143  0.00  0.00    -0.271 OA
ATOM     45  N6  non d ame     -11.086  14.674  68.014  0.00  0.00    -0.355 N 
ATOM     46  H46 non d ame     -10.813  13.702  68.011  0.00  0.00     0.162 HD
BRANCH  45  47
ATOM     47  C20 non d ame     -10.707  15.546  66.882  0.00  0.00     0.013 C 
ATOM     48  H30 non d ame     -11.606  16.054  66.534  0.00  0.00     0.072 H 
BRANCH  47  49
ATOM     49  C21 non d ame     -10.128  14.700  65.771  0.00  0.00    -0.038 C 
ATOM     50  H31 non d ame      -9.562  15.387  65.141  0.00  0.00     0.036 H 
ATOM     51  H32 non d ame      -9.623  13.871  66.265  0.00  0.00     0.036 H 
BRANCH  49  52
ATOM     52  C22 non d ame     -11.213  14.074  64.868  0.00  0.00     0.018 C 
ATOM     53  H33 non d ame     -12.140  14.591  65.117  0.00  0.00     0.048 H 
ATOM     54  H34 non d ame     -10.818  14.123  63.853  0.00  0.00     0.048 H 
BRANCH  52  55
ATOM     55  C23 non d ame     -11.472  12.568  65.153  0.00  0.00     0.259 C 
ATOM     56  O7  non d ame     -11.985  12.226  66.169  0.00  0.00    -0.265 OA
BRANCH  55  57
ATOM     57  O8  non d ame     -11.079  11.599  64.189  0.00  0.00    -0.317 OA
BRANCH  57  58
ATOM     58  C29 non d ame     -10.173  10.612  64.692  0.00  0.00     0.052 C 
ATOM     59  H47 non d ame      -9.598  11.111  65.473  0.00  0.00     0.082 H 
ATOM     60  H48 non d ame     -10.786   9.745  64.936  0.00  0.00     0.082 H 
BRANCH  58  61
ATOM     61  C35 non d ame      -9.205  10.221  63.544  0.00  0.00    -0.034 A 
ATOM     62  C30 non d ame      -8.875  11.152  62.563  0.00  0.00    -0.075 A 
ATOM     63  C31 non d ame      -8.006  10.801  61.532  0.00  0.00    -0.082 A 
ATOM     64  H49 non d ame      -9.297  12.156  62.604  0.00  0.00     0.084 H 
ATOM     65  C32 non d ame      -7.467   9.512  61.481  0.00  0.00    -0.083 A 
ATOM     66  H50 non d ame      -7.747  11.533  60.766  0.00  0.00     0.083 H 
ATOM     67  C33 non d ame      -7.802   8.586  62.460  0.00  0.00    -0.082 A 
ATOM     68  H51 non d ame      -6.786   9.229  60.678  0.00  0.00     0.083 H 
ATOM     69  C34 non d ame      -8.669   8.933  63.494  0.00  0.00    -0.075 A 
ATOM     70  H52 non d ame      -7.382   7.581  62.416  0.00  0.00     0.083 H 
ATOM     71  H53 non d ame      -8.926   8.201  64.259  0.00  0.00     0.084 H 
ENDBRANCH  58  61
ENDBRANCH  57  58
ENDBRANCH  55  57
ENDBRANCH  52  55
ENDBRANCH  49  52
ENDBRANCH  47  49
BRANCH  47  72
ATOM     72  C24 non d ame      -9.666  16.565  67.341  0.00  0.00    -0.039 C 
ATOM     73  H35 non d ame     -10.104  17.054  68.212  0.00  0.00     0.036 H 
ATOM     74  H36 non d ame      -8.736  16.005  67.441  0.00  0.00     0.036 H 
BRANCH  72  75
ATOM     75  C25 non d ame      -9.419  17.699  66.237  0.00  0.00    -0.001 C 
ATOM     76  C26 non d ame      -7.825  18.104  66.198  0.00  0.00    -0.035 C 
ATOM     77  C27 non d ame      -7.715  19.451  66.296  0.00  0.00     0.085 C 
ATOM     78  H38 non d ame      -7.325  17.741  67.095  0.00  0.00     0.036 H 
ATOM     79  H39 non d ame      -7.408  17.886  65.215  0.00  0.00     0.036 H 
ATOM     80  N5  non d ame      -9.064  19.974  66.728  0.00  0.00    -0.049 N 
ATOM     81  H40 non d ame      -6.994  19.627  67.095  0.00  0.00     0.075 H 
ATOM     82  H41 non d ame      -7.505  19.800  65.286  0.00  0.00     0.075 H 
ATOM     83  C28 non d ame     -10.105  18.762  66.497  0.00  0.00     0.193 C 
ATOM     84  H42 non d ame      -8.997  20.156  67.719  0.00  0.00     0.280 HD
ATOM     85  H43 non d ame      -9.297  20.723  66.091  0.00  0.00     0.280 HD
ATOM     86  H44 non d ame     -10.785  18.771  65.645  0.00  0.00     0.129 H 
ATOM     87  H37 non d ame      -9.893  17.459  65.285  0.00  0.00     0.046 H 
BRANCH  83  88
ATOM     88  O6  non d ame     -10.936  18.599  67.648  0.00  0.00    -0.369 OA
ATOM     89  H45 non d ame     -11.430  17.780  67.572  0.00  0.00     0.212 HD
ENDBRANCH  83  88
ENDBRANCH  72  75
ENDBRANCH  47  72
ENDBRANCH  45  47
ENDBRANCH   1  43
BRANCH   1  90
ATOM     90  C16 non d ame     -11.611  14.839  71.619  0.00  0.00    -0.035 C 
ATOM     91  H21 non d ame     -11.313  13.944  72.166  0.00  0.00     0.037 H 
ATOM     92  H22 non d ame     -10.856  15.551  71.285  0.00  0.00     0.037 H 
BRANCH  90  93
ATOM     93  C17 non d ame     -12.576  15.629  72.560  0.00  0.00    -0.059 C 
ATOM     94  H23 non d ame     -12.359  16.691  72.440  0.00  0.00     0.038 H 
BRANCH  93  95
ATOM     95  C18 non d ame     -14.077  15.404  72.188  0.00  0.00    -0.073 C 
ATOM     96  H24 non d ame     -14.217  15.583  71.122  0.00  0.00     0.028 H 
ATOM     97  H25 non d ame     -14.360  14.379  72.425  0.00  0.00     0.028 H 
ATOM     98  H26 non d ame     -14.700  16.094  72.758  0.00  0.00     0.028 H 
ENDBRANCH  93  95
BRANCH  93  99
ATOM     99  C19 non d ame     -12.320  15.276  74.027  0.00  0.00    -0.073 C 
ATOM    100  H27 non d ame     -11.306  15.568  74.300  0.00  0.00     0.028 H 
ATOM    101  H28 non d ame     -13.034  15.806  74.658  0.00  0.00     0.028 H 
ATOM    102  H29 non d ame     -12.439  14.202  74.168  0.00  0.00     0.028 H 
ENDBRANCH  93  99
ENDBRANCH  90  93
ENDBRANCH   1  90
TORSDOF 26
ENDMDL
MODEL 2
REMARK VINA RESULT:      -7.4      1.479      2.051
REMARK  26 active torsions:
REMARK  status: ('A' for Active; 'I' for Inactive)
REMARK    1  A    between atoms: C2_2  and  C3_3 
REMARK    2  A    between atoms: C4_6  and  C5_7 
REMARK       I    between atoms: C5_7  and  N2_9 
REMARK    3  A    between atoms: N2_9  and  C6_10 
REMARK    4  A    between atoms: C6_10  and  C7_11 
REMARK    5  A    between atoms: C6_10  and  C8_13 
REMARK       I    between atoms: C7_11  and  N3_14 
REMARK    6  A    between atoms: N3_14  and  C9_15 
REMARK    7  A    between atoms: C9_15  and  C10_16 
REMARK    8  A    between atoms: C9_15  and  C11_18 
REMARK       I    between atoms: C10_16  and  N4_21 
REMARK    9  A    between atoms: C11_18  and  C12_19 
REMARK   10  A    between atoms: C11_18  and  C13_20 
REMARK   11  A    between atoms: N4_21  and  C14_22 
REMARK   12  A    between atoms: C14_22  and  C15_23 
REMARK   13  A    between atoms: C14_22  and  C16_25 
REMARK       I    between atoms: C15_23  and  N6_40 
REMARK   14  A    between atoms: C16_25  and  C17_26 
REMARK   15  A    between atoms: C17_26  and  C18_27 
REMARK   16  A    between atoms: C17_26  and  C19_28 
REMARK   17  A    between atoms: C20_29  and  C21_30 
REMARK   18  A    between atoms: C20_29  and  C24_33 
REMARK   19  A    between atoms: C20_29  and  N6_40 
REMARK   20  A    between atoms: C21_30  and  C22_31 
REMARK   21  A    between atoms: C22_31  and  C23_32 
REMARK   22  A    between atoms: C23_32  and  O8_43 
REMARK   23  A    between atoms: C24_33  and  C25_34 
REMARK   24  A    between atoms: C28_38  and  O6_39 
REMARK   25  A    between atoms: C29_42  and  O8_43 
REMARK   26  A    between atoms: C29_42  and  C35_49 
ROOT
ATOM      1  C14 non d ame     -11.904  14.052  69.790  0.00  0.00     0.089 C 
ATOM      2  H20 non d ame     -12.905  13.634  69.682  0.00  0.00     0.087 H 
ENDROOT
BRANCH   1   3
ATOM      3  N4  non d ame     -10.954  12.962  69.621  0.00  0.00    -0.346 N 
ATOM      4  C10 non d ame     -11.235  11.852  68.640  0.00  0.00     0.241 C 
ATOM      5  O4  non d ame     -12.234  11.855  68.000  0.00  0.00    -0.271 OA
ATOM      6  H19 non d ame     -10.111  12.977  70.177  0.00  0.00     0.163 HD
BRANCH   4   7
ATOM      7  C9  non d ame     -10.238  10.735  68.474  0.00  0.00     0.092 C 
ATOM      8  H11 non d ame     -10.074  10.555  67.412  0.00  0.00     0.088 H 
BRANCH   7   9
ATOM      9  N3  non d ame      -8.951  11.139  69.049  0.00  0.00    -0.346 N 
ATOM     10  C7  non d ame      -7.778  11.207  68.212  0.00  0.00     0.240 C 
ATOM     11  O3  non d ame      -7.852  10.939  67.075  0.00  0.00    -0.271 OA
ATOM     12  H10 non d ame      -8.871  11.372  70.028  0.00  0.00     0.163 HD
BRANCH  10  13
ATOM     13  C6  non d ame      -6.410  11.635  68.830  0.00  0.00     0.086 C 
ATOM     14  H6  non d ame      -5.560  11.339  68.216  0.00  0.00     0.086 H 
BRANCH  13  15
ATOM     15  N2  non d ame      -6.369  13.085  68.925  0.00  0.00    -0.343 N 
ATOM     16  C5  non d ame      -5.572  13.849  67.964  0.00  0.00     0.273 C 
ATOM     17  O2  non d ame      -4.965  13.288  67.118  0.00  0.00    -0.266 OA
ATOM     18  H5  non d ame      -6.889  13.556  69.653  0.00  0.00     0.163 HD
BRANCH  16  19
ATOM     19  C4  non d ame      -5.521  15.382  68.052  0.00  0.00     0.154 A 
ATOM     20  C1  non d ame      -5.788  16.191  69.202  0.00  0.00    -0.017 A 
ATOM     21  C2  non d ame      -5.605  17.521  68.761  0.00  0.00     0.077 A 
ATOM     22  H1  non d ame      -6.071  15.864  70.202  0.00  0.00     0.091 H 
ATOM     23  O1  non d ame      -5.271  17.470  67.505  0.00  0.00    -0.218 OA
ATOM     24  N1  non d ame      -5.215  16.233  67.068  0.00  0.00    -0.123 NA
BRANCH  21  25
ATOM     25  C3  non d ame      -5.768  18.780  69.602  0.00  0.00    -0.029 C 
ATOM     26  H2  non d ame      -5.908  18.504  70.647  0.00  0.00     0.036 H 
ATOM     27  H3  non d ame      -4.875  19.399  69.506  0.00  0.00     0.036 H 
ATOM     28  H4  non d ame      -6.636  19.340  69.254  0.00  0.00     0.036 H 
ENDBRANCH  21  25
ENDBRANCH  16  19
ENDBRANCH  13  15
BRANCH  13  29
ATOM     29  C8  non d ame      -6.261  11.022  70.199  0.00  0.00    -0.049 C 
ATOM     30  H7  non d ame      -6.139  11.813  70.939  0.00  0.00     0.030 H 
ATOM     31  H8  non d ame      -7.150  10.437  70.434  0.00  0.00     0.030 H 
ATOM     32  H9  non d ame      -5.385  10.374  70.213  0.00  0.00     0.030 H 
ENDBRANCH  13  29
ENDBRANCH  10  13
ENDBRANCH   7   9
BRANCH   7  33
ATOM     33  C11 non d ame     -10.755   9.465  69.210  0.00  0.00    -0.033 C 
ATOM     34  H12 non d ame     -11.844   9.498  69.197  0.00  0.00     0.042 H 
BRANCH  33  35
ATOM     35  C12 non d ame     -10.316   8.162  68.472  0.00  0.00    -0.071 C 
ATOM     36  H13 non d ame     -10.379   7.317  69.158  0.00  0.00     0.028 H 
ATOM     37  H14 non d ame     -10.975   7.988  67.621  0.00  0.00     0.028 H 
ATOM     38  H15 non d ame      -9.290   8.271  68.122  0.00  0.00     0.028 H 
ENDBRANCH  33  35
BRANCH  33  39
ATOM     39  C13 non d ame     -10.290   9.454  70.702  0.00  0.00    -0.071 C 
ATOM     40  H16 non d ame      -9.422  10.103  70.817  0.00  0.00     0.028 H 
ATOM     41  H17 non d ame     -11.099   9.814  71.338  0.00  0.00     0.028 H 
ATOM     42  H18 non d ame     -10.024   8.437  70.992  0.00  0.00     0.028 H 
ENDBRANCH  33  39
ENDBRANCH   7  33
ENDBRANCH   4   7
ENDBRANCH   1   3
BRANCH   1  43
ATOM     43  C15 non d ame     -11.604  15.141  68.720  0.00  0.00     0.240 C 
ATOM     44  O5  non d ame     -12.045  16.236  68.852  0.00  0.00    -0.271 OA
ATOM     45  N6  non d ame     -10.760  14.819  67.534  0.00  0.00    -0.355 N 
ATOM     46  H46 non d ame     -10.376  13.893  67.413  0.00  0.00     0.162 HD
BRANCH  45  47
ATOM     47  C20 non d ame     -10.483  15.866  66.527  0.00  0.00     0.013 C 
ATOM     48  H30 non d ame     -11.223  16.656  66.652  0.00  0.00     0.072 H 
BRANCH  47  49
ATOM     49  C21 non d ame     -10.595  15.269  65.142  0.00  0.00    -0.038 C 
ATOM     50  H31 non d ame     -10.539  16.111  64.452  0.00  0.00     0.036 H 
ATOM     51  H32 non d ame      -9.845  14.479  65.101  0.00  0.00     0.036 H 
BRANCH  49  52
ATOM     52  C22 non d ame     -11.959  14.589  64.891  0.00  0.00     0.018 C 
ATOM     53  H33 non d ame     -12.528  14.721  65.811  0.00  0.00     0.048 H 
ATOM     54  H34 non d ame     -12.330  15.008  63.956  0.00  0.00     0.048 H 
BRANCH  52  55
ATOM     55  C23 non d ame     -11.861  13.055  64.663  0.00  0.00     0.259 C 
ATOM     56  O7  non d ame     -12.790  12.350  64.895  0.00  0.00    -0.265 OA
BRANCH  55  57
ATOM     57  O8  non d ame     -10.643  12.497  64.186  0.00  0.00    -0.317 OA
BRANCH  57  58
ATOM     58  C29 non d ame     -10.453  11.124  64.538  0.00  0.00     0.052 C 
ATOM     59  H47 non d ame     -10.033  11.133  65.544  0.00  0.00     0.082 H 
ATOM     60  H48 non d ame     -11.410  10.637  64.351  0.00  0.00     0.082 H 
BRANCH  58  61
ATOM     61  C35 non d ame      -9.399  10.523  63.571  0.00  0.00    -0.034 A 
ATOM     62  C30 non d ame      -8.953  11.261  62.479  0.00  0.00    -0.075 A 
ATOM     63  C31 non d ame      -8.007  10.721  61.610  0.00  0.00    -0.082 A 
ATOM     64  H49 non d ame      -9.345  12.263  62.305  0.00  0.00     0.084 H 
ATOM     65  C32 non d ame      -7.507   9.435  61.834  0.00  0.00    -0.083 A 
ATOM     66  H50 non d ame      -7.658  11.304  60.757  0.00  0.00     0.083 H 
ATOM     67  C33 non d ame      -7.957   8.701  62.923  0.00  0.00    -0.082 A 
ATOM     68  H51 non d ame      -6.766   9.006  61.160  0.00  0.00     0.083 H 
ATOM     69  C34 non d ame      -8.902   9.238  63.795  0.00  0.00    -0.075 A 
ATOM     70  H52 non d ame      -7.567   7.697  63.094  0.00  0.00     0.083 H 
ATOM     71  H53 non d ame      -9.249   8.655  64.649  0.00  0.00     0.084 H 
ENDBRANCH  58  61
ENDBRANCH  57  58
ENDBRANCH  55  57
ENDBRANCH  52  55
ENDBRANCH  49  52
ENDBRANCH  47  49
BRANCH  47  72
ATOM     72  C24 non d ame      -9.074  16.420  66.731  0.00  0.00    -0.039 C 
ATOM     73  H35 non d ame      -8.628  15.799  67.508  0.00  0.00     0.036 H 
ATOM     74  H36 non d ame      -8.628  16.451  65.737  0.00  0.00     0.036 H 
BRANCH  72  75
ATOM     75  C25 non d ame      -9.103  17.923  67.284  0.00  0.00    -0.001 C 
ATOM     76  C26 non d ame     -10.611  18.555  67.110  0.00  0.00    -0.035 C 
ATOM     77  C27 non d ame     -10.512  19.751  66.480  0.00  0.00     0.085 C 
ATOM     78  H38 non d ame     -11.192  17.949  66.416  0.00  0.00     0.036 H 
ATOM     79  H39 non d ame     -11.023  18.814  68.085  0.00  0.00     0.036 H 
ATOM     80  N5  non d ame      -9.114  19.840  65.918  0.00  0.00    -0.049 N 
ATOM     81  H40 non d ame     -11.224  19.705  65.655  0.00  0.00     0.075 H 
ATOM     82  H41 non d ame     -10.630  20.501  67.261  0.00  0.00     0.075 H 
ATOM     83  C28 non d ame      -8.268  18.672  66.645  0.00  0.00     0.193 C 
ATOM     84  H42 non d ame      -9.186  19.621  64.935  0.00  0.00     0.280 HD
ATOM     85  H43 non d ame      -8.744  20.733  66.211  0.00  0.00     0.280 HD
ATOM     86  H44 non d ame      -7.566  18.912  67.443  0.00  0.00     0.129 H 
ATOM     87  H37 non d ame      -8.639  18.010  68.267  0.00  0.00     0.046 H 
BRANCH  83  88
ATOM     88  O6  non d ame      -7.513  17.937  65.680  0.00  0.00    -0.369 OA
ATOM     89  H45 non d ame      -8.108  17.409  65.143  0.00  0.00     0.212 HD
ENDBRANCH  83  88
ENDBRANCH  72  75
ENDBRANCH  47  72
ENDBRANCH  45  47
ENDBRANCH   1  43
BRANCH   1  90
ATOM     90  C16 non d ame     -11.739  14.643  71.181  0.00  0.00    -0.035 C 
ATOM     91  H21 non d ame     -10.911  14.095  71.631  0.00  0.00     0.037 H 
ATOM     92  H22 non d ame     -11.661  15.720  71.029  0.00  0.00     0.037 H 
BRANCH  90  93
ATOM     93  C17 non d ame     -12.975  14.416  72.108  0.00  0.00    -0.059 C 
ATOM     94  H23 non d ame     -13.127  13.341  72.200  0.00  0.00     0.038 H 
BRANCH  93  95
ATOM     95  C18 non d ame     -12.748  14.990  73.544  0.00  0.00    -0.073 C 
ATOM     96  H24 non d ame     -12.893  16.070  73.530  0.00  0.00     0.028 H 
ATOM     97  H25 non d ame     -13.460  14.536  74.233  0.00  0.00     0.028 H 
ATOM     98  H26 non d ame     -11.732  14.763  73.869  0.00  0.00     0.028 H 
ENDBRANCH  93  95
BRANCH  93  99
ATOM     99  C19 non d ame     -14.243  15.003  71.482  0.00  0.00    -0.073 C 
ATOM    100  H27 non d ame     -14.030  15.999  71.095  0.00  0.00     0.028 H 
ATOM    101  H28 non d ame     -14.576  14.359  70.667  0.00  0.00     0.028 H 
ATOM    102  H29 non d ame     -15.026  15.065  72.237  0.00  0.00     0.028 H 
ENDBRANCH  93  99
ENDBRANCH  90  93
ENDBRANCH   1  90
TORSDOF 26
ENDMDL
MODEL 3
REMARK VINA RESULT:      -6.8      2.534      6.444
REMARK  26 active torsions:
REMARK  status: ('A' for Active; 'I' for Inactive)
REMARK    1  A    between atoms: C2_2  and  C3_3 
REMARK    2  A    between atoms: C4_6  and  C5_7 
REMARK       I    between atoms: C5_7  and  N2_9 
REMARK    3  A    between atoms: N2_9  and  C6_10 
REMARK    4  A    between atoms: C6_10  and  C7_11 
REMARK    5  A    between atoms: C6_10  and  C8_13 
REMARK       I    between atoms: C7_11  and  N3_14 
REMARK    6  A    between atoms: N3_14  and  C9_15 
REMARK    7  A    between atoms: C9_15  and  C10_16 
REMARK    8  A    between atoms: C9_15  and  C11_18 
REMARK       I    between atoms: C10_16  and  N4_21 
REMARK    9  A    between atoms: C11_18  and  C12_19 
REMARK   10  A    between atoms: C11_18  and  C13_20 
REMARK   11  A    between atoms: N4_21  and  C14_22 
REMARK   12  A    between atoms: C14_22  and  C15_23 
REMARK   13  A    between atoms: C14_22  and  C16_25 
REMARK       I    between atoms: C15_23  and  N6_40 
REMARK   14  A    between atoms: C16_25  and  C17_26 
REMARK   15  A    between atoms: C17_26  and  C18_27 
REMARK   16  A    between atoms: C17_26  and  C19_28 
REMARK   17  A    between atoms: C20_29  and  C21_30 
REMARK   18  A    between atoms: C20_29  and  C24_33 
REMARK   19  A    between atoms: C20_29  and  N6_40 
REMARK   20  A    between atoms: C21_30  and  C22_31 
REMARK   21  A    between atoms: C22_31  and  C23_32 
REMARK   22  A    between atoms: C23_32  and  O8_43 
REMARK   23  A    between atoms: C24_33  and  C25_34 
REMARK   24  A    between atoms: C28_38  and  O6_39 
REMARK   25  A    between atoms: C29_42  and  O8_43 
REMARK   26  A    between atoms: C29_42  and  C35_49 
ROOT
ATOM      1  C14 non d ame     -11.982  14.228  69.656  0.00  0.00     0.089 C 
ATOM      2  H20 non d ame     -12.981  14.218  69.219  0.00  0.00     0.087 H 
ENDROOT
BRANCH   1   3
ATOM      3  N4  non d ame     -11.647  12.857  70.013  0.00  0.00    -0.346 N 
ATOM      4  C10 non d ame     -11.888  11.735  69.035  0.00  0.00     0.241 C 
ATOM      5  O4  non d ame     -12.355  11.959  67.967  0.00  0.00    -0.271 OA
ATOM      6  H19 non d ame     -11.252  12.687  70.927  0.00  0.00     0.163 HD
BRANCH   4   7
ATOM      7  C9  non d ame     -11.530  10.323  69.419  0.00  0.00     0.092 C 
ATOM      8  H11 non d ame     -12.187   9.631  68.893  0.00  0.00     0.088 H 
BRANCH   7   9
ATOM      9  N3  non d ame     -10.159  10.031  68.988  0.00  0.00    -0.346 N 
ATOM     10  C7  non d ame      -9.929   9.167  67.856  0.00  0.00     0.240 C 
ATOM     11  O3  non d ame     -10.834   8.697  67.282  0.00  0.00    -0.271 OA
ATOM     12  H10 non d ame      -9.368  10.429  69.474  0.00  0.00     0.163 HD
BRANCH  10  13
ATOM     13  C6  non d ame      -8.468   8.858  67.404  0.00  0.00     0.086 C 
ATOM     14  H6  non d ame      -7.979   8.116  68.035  0.00  0.00     0.086 H 
BRANCH  13  15
ATOM     15  N2  non d ame      -8.497   8.306  66.060  0.00  0.00    -0.343 N 
ATOM     16  C5  non d ame      -8.252   6.876  65.862  0.00  0.00     0.273 C 
ATOM     17  O2  non d ame      -8.030   6.178  66.790  0.00  0.00    -0.266 OA
ATOM     18  H5  non d ame      -8.686   8.910  65.272  0.00  0.00     0.163 HD
BRANCH  16  19
ATOM     19  C4  non d ame      -8.282   6.278  64.446  0.00  0.00     0.154 A 
ATOM     20  C1  non d ame      -8.990   5.112  64.015  0.00  0.00    -0.017 A 
ATOM     21  C2  non d ame      -8.691   4.993  62.639  0.00  0.00     0.077 A 
ATOM     22  H1  non d ame      -9.624   4.453  64.609  0.00  0.00     0.091 H 
ATOM     23  O1  non d ame      -7.904   5.981  62.327  0.00  0.00    -0.218 OA
ATOM     24  N1  non d ame      -7.651   6.744  63.365  0.00  0.00    -0.123 NA
BRANCH  21  25
ATOM     25  C3  non d ame      -9.198   3.910  61.696  0.00  0.00    -0.029 C 
ATOM     26  H2  non d ame      -9.203   4.290  60.674  0.00  0.00     0.036 H 
ATOM     27  H3  non d ame      -8.544   3.040  61.758  0.00  0.00     0.036 H 
ATOM     28  H4  non d ame     -10.211   3.623  61.982  0.00  0.00     0.036 H 
ENDBRANCH  21  25
ENDBRANCH  16  19
ENDBRANCH  13  15
BRANCH  13  29
ATOM     29  C8  non d ame      -7.653  10.127  67.423  0.00  0.00    -0.049 C 
ATOM     30  H7  non d ame      -6.600   9.885  67.281  0.00  0.00     0.030 H 
ATOM     31  H8  non d ame      -7.987  10.785  66.621  0.00  0.00     0.030 H 
ATOM     32  H9  non d ame      -7.784  10.627  68.383  0.00  0.00     0.030 H 
ENDBRANCH  13  29
ENDBRANCH  10  13
ENDBRANCH   7   9
BRANCH   7  33
ATOM     33  C11 non d ame     -11.629  10.165  70.964  0.00  0.00    -0.033 C 
ATOM     34  H12 non d ame     -11.198  11.059  71.415  0.00  0.00     0.042 H 
BRANCH  33  35
ATOM     35  C12 non d ame     -13.115  10.074  71.432  0.00  0.00    -0.071 C 
ATOM     36  H13 non d ame     -13.528   9.106  71.144  0.00  0.00     0.028 H 
ATOM     37  H14 non d ame     -13.162  10.180  72.516  0.00  0.00     0.028 H 
ATOM     38  H15 non d ame     -13.693  10.870  70.963  0.00  0.00     0.028 H 
ENDBRANCH  33  35
BRANCH  33  39
ATOM     39  C13 non d ame     -10.804   8.932  71.455  0.00  0.00    -0.071 C 
ATOM     40  H16 non d ame     -10.722   8.958  72.541  0.00  0.00     0.028 H 
ATOM     41  H17 non d ame     -11.307   8.014  71.150  0.00  0.00     0.028 H 
ATOM     42  H18 non d ame      -9.807   8.964  71.014  0.00  0.00     0.028 H 
ENDBRANCH  33  39
ENDBRANCH   7  33
ENDBRANCH   4   7
ENDBRANCH   1   3
BRANCH   1  43
ATOM     43  C15 non d ame     -10.910  14.756  68.660  0.00  0.00     0.240 C 
ATOM     44  O5  non d ame      -9.813  14.999  69.046  0.00  0.00    -0.271 OA
ATOM     45  N6  non d ame     -11.250  14.952  67.222  0.00  0.00    -0.355 N 
ATOM     46  H46 non d ame     -12.177  14.745  66.881  0.00  0.00     0.162 HD
BRANCH  45  47
ATOM     47  C20 non d ame     -10.219  15.454  66.287  0.00  0.00     0.013 C 
ATOM     48  H30 non d ame      -9.271  15.495  66.824  0.00  0.00     0.072 H 
BRANCH  47  49
ATOM     49  C21 non d ame     -10.605  16.837  65.814  0.00  0.00    -0.038 C 
ATOM     50  H31 non d ame      -9.870  17.105  65.054  0.00  0.00     0.036 H 
ATOM     51  H32 non d ame     -11.662  16.775  65.553  0.00  0.00     0.036 H 
BRANCH  49  52
ATOM     52  C22 non d ame     -10.492  17.904  66.925  0.00  0.00     0.018 C 
ATOM     53  H33 non d ame     -11.416  18.480  66.876  0.00  0.00     0.048 H 
ATOM     54  H34 non d ame     -10.238  17.358  67.834  0.00  0.00     0.048 H 
BRANCH  52  55
ATOM     55  C23 non d ame      -9.340  18.922  66.701  0.00  0.00     0.259 C 
ATOM     56  O7  non d ame      -9.357  19.981  67.241  0.00  0.00    -0.265 OA
BRANCH  55  57
ATOM     57  O8  non d ame      -8.268  18.581  65.830  0.00  0.00    -0.317 OA
BRANCH  57  58
ATOM     58  C29 non d ame      -6.971  18.760  66.406  0.00  0.00     0.052 C 
ATOM     59  H47 non d ame      -6.266  18.669  65.579  0.00  0.00     0.082 H 
ATOM     60  H48 non d ame      -7.026  19.688  66.975  0.00  0.00     0.082 H 
BRANCH  58  61
ATOM     61  C35 non d ame      -6.721  17.591  67.396  0.00  0.00    -0.034 A 
ATOM     62  C30 non d ame      -6.776  16.275  66.948  0.00  0.00    -0.075 A 
ATOM     63  C31 non d ame      -6.552  15.225  67.838  0.00  0.00    -0.082 A 
ATOM     64  H49 non d ame      -6.994  16.067  65.901  0.00  0.00     0.084 H 
ATOM     65  C32 non d ame      -6.274  15.495  69.180  0.00  0.00    -0.083 A 
ATOM     66  H50 non d ame      -6.593  14.195  67.483  0.00  0.00     0.083 H 
ATOM     67  C33 non d ame      -6.224  16.810  69.623  0.00  0.00    -0.082 A 
ATOM     68  H51 non d ame      -6.097  14.681  69.882  0.00  0.00     0.083 H 
ATOM     69  C34 non d ame      -6.445  17.863  68.738  0.00  0.00    -0.075 A 
ATOM     70  H52 non d ame      -6.009  17.018  70.672  0.00  0.00     0.083 H 
ATOM     71  H53 non d ame      -6.403  18.893  69.093  0.00  0.00     0.084 H 
ENDBRANCH  58  61
ENDBRANCH  57  58
ENDBRANCH  55  57
ENDBRANCH  52  55
ENDBRANCH  49  52
ENDBRANCH  47  49
BRANCH  47  72
ATOM     72  C24 non d ame     -10.110  14.517  65.087  0.00  0.00    -0.039 C 
ATOM     73  H35 non d ame     -10.512  15.077  64.243  0.00  0.00     0.036 H 
ATOM     74  H36 non d ame      -9.072  14.183  65.073  0.00  0.00     0.036 H 
BRANCH  72  75
ATOM     75  C25 non d ame     -11.024  13.213  65.267  0.00  0.00    -0.001 C 
ATOM     76  C26 non d ame     -10.112  11.859  65.071  0.00  0.00    -0.035 C 
ATOM     77  C27 non d ame     -10.720  11.051  64.169  0.00  0.00     0.085 C 
ATOM     78  H38 non d ame      -9.167  12.111  64.591  0.00  0.00     0.036 H 
ATOM     79  H39 non d ame     -10.118  11.268  65.987  0.00  0.00     0.036 H 
ATOM     80  N5  non d ame     -11.789  11.873  63.490  0.00  0.00    -0.049 N 
ATOM     81  H40 non d ame      -9.950  10.797  63.440  0.00  0.00     0.075 H 
ATOM     82  H41 non d ame     -11.195  10.265  64.756  0.00  0.00     0.075 H 
ATOM     83  C28 non d ame     -11.982  13.191  64.402  0.00  0.00     0.193 C 
ATOM     84  H42 non d ame     -11.411  12.152  62.597  0.00  0.00     0.280 HD
ATOM     85  H43 non d ame     -12.638  11.327  63.531  0.00  0.00     0.280 HD
ATOM     86  H44 non d ame     -12.846  13.287  65.060  0.00  0.00     0.129 H 
ATOM     87  H37 non d ame     -11.647  13.267  66.160  0.00  0.00     0.046 H 
BRANCH  83  88
ATOM     88  O6  non d ame     -11.995  14.360  63.581  0.00  0.00    -0.369 OA
ATOM     89  H45 non d ame     -12.743  14.322  62.982  0.00  0.00     0.212 HD
ENDBRANCH  83  88
ENDBRANCH  72  75
ENDBRANCH  47  72
ENDBRANCH  45  47
ENDBRANCH   1  43
BRANCH   1  90
ATOM     90  C16 non d ame     -11.978  15.083  70.913  0.00  0.00    -0.035 C 
ATOM     91  H21 non d ame     -10.964  15.010  71.308  0.00  0.00     0.037 H 
ATOM     92  H22 non d ame     -12.374  16.051  70.605  0.00  0.00     0.037 H 
BRANCH  90  93
ATOM     93  C17 non d ame     -12.928  14.553  72.034  0.00  0.00    -0.059 C 
ATOM     94  H23 non d ame     -12.817  13.470  72.077  0.00  0.00     0.038 H 
BRANCH  93  95
ATOM     95  C18 non d ame     -12.558  15.127  73.439  0.00  0.00    -0.073 C 
ATOM     96  H24 non d ame     -11.865  15.960  73.320  0.00  0.00     0.028 H 
ATOM     97  H25 non d ame     -13.463  15.476  73.938  0.00  0.00     0.028 H 
ATOM     98  H26 non d ame     -12.091  14.346  74.039  0.00  0.00     0.028 H 
ENDBRANCH  93  95
BRANCH  93  99
ATOM     99  C19 non d ame     -14.391  14.847  71.693  0.00  0.00    -0.073 C 
ATOM    100  H27 non d ame     -14.798  15.556  72.415  0.00  0.00     0.028 H 
ATOM    101  H28 non d ame     -14.453  15.273  70.691  0.00  0.00     0.028 H 
ATOM    102  H29 non d ame     -14.966  13.921  71.730  0.00  0.00     0.028 H 
ENDBRANCH  93  99
ENDBRANCH  90  93
ENDBRANCH   1  90
TORSDOF 26
ENDMDL
MODEL 4
REMARK VINA RESULT:      -6.7      1.881      5.335
REMARK  26 active torsions:
REMARK  status: ('A' for Active; 'I' for Inactive)
REMARK    1  A    between atoms: C2_2  and  C3_3 
REMARK    2  A    between atoms: C4_6  and  C5_7 
REMARK       I    between atoms: C5_7  and  N2_9 
REMARK    3  A    between atoms: N2_9  and  C6_10 
REMARK    4  A    between atoms: C6_10  and  C7_11 
REMARK    5  A    between atoms: C6_10  and  C8_13 
REMARK       I    between atoms: C7_11  and  N3_14 
REMARK    6  A    between atoms: N3_14  and  C9_15 
REMARK    7  A    between atoms: C9_15  and  C10_16 
REMARK    8  A    between atoms: C9_15  and  C11_18 
REMARK       I    between atoms: C10_16  and  N4_21 
REMARK    9  A    between atoms: C11_18  and  C12_19 
REMARK   10  A    between atoms: C11_18  and  C13_20 
REMARK   11  A    between atoms: N4_21  and  C14_22 
REMARK   12  A    between atoms: C14_22  and  C15_23 
REMARK   13  A    between atoms: C14_22  and  C16_25 
REMARK       I    between atoms: C15_23  and  N6_40 
REMARK   14  A    between atoms: C16_25  and  C17_26 
REMARK   15  A    between atoms: C17_26  and  C18_27 
REMARK   16  A    between atoms: C17_26  and  C19_28 
REMARK   17  A    between atoms: C20_29  and  C21_30 
REMARK   18  A    between atoms: C20_29  and  C24_33 
REMARK   19  A    between atoms: C20_29  and  N6_40 
REMARK   20  A    between atoms: C21_30  and  C22_31 
REMARK   21  A    between atoms: C22_31  and  C23_32 
REMARK   22  A    between atoms: C23_32  and  O8_43 
REMARK   23  A    between atoms: C24_33  and  C25_34 
REMARK   24  A    between atoms: C28_38  and  O6_39 
REMARK   25  A    between atoms: C29_42  and  O8_43 
REMARK   26  A    between atoms: C29_42  and  C35_49 
ROOT
ATOM      1  C14 non d ame     -12.218  13.859  70.124  0.00  0.00     0.089 C 
ATOM      2  H20 non d ame     -13.308  13.887  70.128  0.00  0.00     0.087 H 
ENDROOT
BRANCH   1   3
ATOM      3  N4  non d ame     -11.814  12.463  70.054  0.00  0.00    -0.346 N 
ATOM      4  C10 non d ame     -12.488  11.431  70.923  0.00  0.00     0.241 C 
ATOM      5  O4  non d ame     -13.351  11.749  71.674  0.00  0.00    -0.271 OA
ATOM      6  H19 non d ame     -11.077  12.213  69.410  0.00  0.00     0.163 HD
BRANCH   4   7
ATOM      7  C9  non d ame     -12.062   9.989  70.833  0.00  0.00     0.092 C 
ATOM      8  H11 non d ame     -12.403   9.573  69.885  0.00  0.00     0.088 H 
BRANCH   7   9
ATOM      9  N3  non d ame     -10.598   9.910  70.839  0.00  0.00    -0.346 N 
ATOM     10  C7  non d ame      -9.878   9.784  69.596  0.00  0.00     0.240 C 
ATOM     11  O3  non d ame     -10.461   9.743  68.582  0.00  0.00    -0.271 OA
ATOM     12  H10 non d ame     -10.082   9.943  71.707  0.00  0.00     0.163 HD
BRANCH  10  13
ATOM     13  C6  non d ame      -8.320   9.697  69.609  0.00  0.00     0.086 C 
ATOM     14  H6  non d ame      -7.916   9.240  68.707  0.00  0.00     0.086 H 
BRANCH  13  15
ATOM     15  N2  non d ame      -7.774  11.043  69.675  0.00  0.00    -0.343 N 
ATOM     16  C5  non d ame      -7.560  11.796  68.437  0.00  0.00     0.273 C 
ATOM     17  O2  non d ame      -7.829  11.309  67.394  0.00  0.00    -0.266 OA
ATOM     18  H5  non d ame      -7.545  11.450  70.571  0.00  0.00     0.163 HD
BRANCH  16  19
ATOM     19  C4  non d ame      -6.985  13.220  68.491  0.00  0.00     0.154 A 
ATOM     20  C1  non d ame      -5.893  13.740  67.728  0.00  0.00    -0.017 A 
ATOM     21  C2  non d ame      -5.764  15.084  68.147  0.00  0.00     0.077 A 
ATOM     22  H1  non d ame      -5.286  13.223  66.984  0.00  0.00     0.091 H 
ATOM     23  O1  non d ame      -6.681  15.299  69.044  0.00  0.00    -0.218 OA
ATOM     24  N1  non d ame      -7.406  14.226  69.263  0.00  0.00    -0.123 NA
BRANCH  21  25
ATOM     25  C3  non d ame      -4.742  16.092  67.640  0.00  0.00    -0.029 C 
ATOM     26  H2  non d ame      -4.002  15.582  67.023  0.00  0.00     0.036 H 
ATOM     27  H3  non d ame      -5.247  16.853  67.045  0.00  0.00     0.036 H 
ATOM     28  H4  non d ame      -4.246  16.565  68.488  0.00  0.00     0.036 H 
ENDBRANCH  21  25
ENDBRANCH  16  19
ENDBRANCH  13  15
BRANCH  13  29
ATOM     29  C8  non d ame      -7.869   8.898  70.805  0.00  0.00    -0.049 C 
ATOM     30  H7  non d ame      -8.083   7.842  70.638  0.00  0.00     0.030 H 
ATOM     31  H8  non d ame      -6.797   9.033  70.949  0.00  0.00     0.030 H 
ATOM     32  H9  non d ame      -8.401   9.240  71.692  0.00  0.00     0.030 H 
ENDBRANCH  13  29
ENDBRANCH  10  13
ENDBRANCH   7   9
BRANCH   7  33
ATOM     33  C11 non d ame     -12.626   9.204  72.054  0.00  0.00    -0.033 C 
ATOM     34  H12 non d ame     -12.786   9.921  72.859  0.00  0.00     0.042 H 
BRANCH  33  35
ATOM     35  C12 non d ame     -14.006   8.554  71.723  0.00  0.00    -0.071 C 
ATOM     36  H13 non d ame     -14.631   8.554  72.617  0.00  0.00     0.028 H 
ATOM     37  H14 non d ame     -14.498   9.127  70.937  0.00  0.00     0.028 H 
ATOM     38  H15 non d ame     -13.853   7.530  71.385  0.00  0.00     0.028 H 
ENDBRANCH  33  35
BRANCH  33  39
ATOM     39  C13 non d ame     -11.602   8.136  72.554  0.00  0.00    -0.071 C 
ATOM     40  H16 non d ame     -12.085   7.159  72.591  0.00  0.00     0.028 H 
ATOM     41  H17 non d ame     -10.755   8.096  71.868  0.00  0.00     0.028 H 
ATOM     42  H18 non d ame     -11.252   8.407  73.549  0.00  0.00     0.028 H 
ENDBRANCH  33  39
ENDBRANCH   7  33
ENDBRANCH   4   7
ENDBRANCH   1   3
BRANCH   1  43
ATOM     43  C15 non d ame     -11.616  14.611  68.903  0.00  0.00     0.240 C 
ATOM     44  O5  non d ame     -11.984  15.711  68.645  0.00  0.00    -0.271 OA
ATOM     45  N6  non d ame     -10.573  13.962  68.058  0.00  0.00    -0.355 N 
ATOM     46  H46 non d ame     -10.248  13.029  68.269  0.00  0.00     0.162 HD
BRANCH  45  47
ATOM     47  C20 non d ame     -10.010  14.690  66.900  0.00  0.00     0.013 C 
ATOM     48  H30 non d ame      -9.121  14.154  66.567  0.00  0.00     0.072 H 
BRANCH  47  49
ATOM     49  C21 non d ame      -9.637  16.092  67.326  0.00  0.00    -0.038 C 
ATOM     50  H31 non d ame     -10.476  16.452  67.923  0.00  0.00     0.036 H 
ATOM     51  H32 non d ame      -8.646  16.011  67.771  0.00  0.00     0.036 H 
BRANCH  49  52
ATOM     52  C22 non d ame      -9.503  17.064  66.133  0.00  0.00     0.018 C 
ATOM     53  H33 non d ame      -8.476  17.431  66.166  0.00  0.00     0.048 H 
ATOM     54  H34 non d ame      -9.857  16.513  65.262  0.00  0.00     0.048 H 
BRANCH  52  55
ATOM     55  C23 non d ame     -10.410  18.321  66.244  0.00  0.00     0.259 C 
ATOM     56  O7  non d ame     -10.871  18.820  65.268  0.00  0.00    -0.265 OA
BRANCH  55  57
ATOM     57  O8  non d ame     -10.676  18.878  67.525  0.00  0.00    -0.317 OA
BRANCH  57  58
ATOM     58  C29 non d ame     -10.087  20.165  67.734  0.00  0.00     0.052 C 
ATOM     59  H47 non d ame     -10.247  20.716  66.808  0.00  0.00     0.082 H 
ATOM     60  H48 non d ame     -10.508  20.534  68.668  0.00  0.00     0.082 H 
BRANCH  58  61
ATOM     61  C35 non d ame      -8.560  19.966  67.929  0.00  0.00    -0.034 A 
ATOM     62  C30 non d ame      -7.660  20.621  67.095  0.00  0.00    -0.075 A 
ATOM     63  C31 non d ame      -6.288  20.442  67.270  0.00  0.00    -0.082 A 
ATOM     64  H49 non d ame      -8.029  21.275  66.305  0.00  0.00     0.084 H 
ATOM     65  C32 non d ame      -5.818  19.602  68.283  0.00  0.00    -0.083 A 
ATOM     66  H50 non d ame      -5.585  20.959  66.616  0.00  0.00     0.083 H 
ATOM     67  C33 non d ame      -6.720  18.948  69.111  0.00  0.00    -0.082 A 
ATOM     68  H51 non d ame      -4.747  19.458  68.427  0.00  0.00     0.083 H 
ATOM     69  C34 non d ame      -8.091  19.125  68.941  0.00  0.00    -0.075 A 
ATOM     70  H52 non d ame      -6.349  18.292  69.899  0.00  0.00     0.083 H 
ATOM     71  H53 non d ame      -8.793  18.609  69.596  0.00  0.00     0.084 H 
ENDBRANCH  58  61
ENDBRANCH  57  58
ENDBRANCH  55  57
ENDBRANCH  52  55
ENDBRANCH  49  52
ENDBRANCH  47  49
BRANCH  47  72
ATOM     72  C24 non d ame     -11.043  14.755  65.778  0.00  0.00    -0.039 C 
ATOM     73  H35 non d ame     -11.922  15.225  66.220  0.00  0.00     0.036 H 
ATOM     74  H36 non d ame     -10.533  15.231  64.941  0.00  0.00     0.036 H 
BRANCH  72  75
ATOM     75  C25 non d ame     -11.483  13.293  65.293  0.00  0.00    -0.001 C 
ATOM     76  C26 non d ame     -10.151  12.363  65.036  0.00  0.00    -0.035 C 
ATOM     77  C27 non d ame     -10.236  11.810  63.803  0.00  0.00     0.085 C 
ATOM     78  H38 non d ame      -9.263  12.992  64.973  0.00  0.00     0.036 H 
ATOM     79  H39 non d ame     -10.162  11.501  65.704  0.00  0.00     0.036 H 
ATOM     80  N5  non d ame     -11.339  12.533  63.069  0.00  0.00    -0.049 N 
ATOM     81  H40 non d ame      -9.284  12.029  63.319  0.00  0.00     0.075 H 
ATOM     82  H41 non d ame     -10.538  10.776  63.968  0.00  0.00     0.075 H 
ATOM     83  C28 non d ame     -12.160  13.349  64.195  0.00  0.00     0.193 C 
ATOM     84  H42 non d ame     -10.887  13.197  62.456  0.00  0.00     0.280 HD
ATOM     85  H43 non d ame     -11.943  11.821  62.684  0.00  0.00     0.280 HD
ATOM     86  H44 non d ame     -13.130  12.990  64.541  0.00  0.00     0.129 H 
ATOM     87  H37 non d ame     -12.270  12.870  65.917  0.00  0.00     0.046 H 
BRANCH  83  88
ATOM     88  O6  non d ame     -12.382  14.694  63.766  0.00  0.00    -0.369 OA
ATOM     89  H45 non d ame     -11.599  15.219  63.945  0.00  0.00     0.212 HD
ENDBRANCH  83  88
ENDBRANCH  72  75
ENDBRANCH  47  72
ENDBRANCH  45  47
ENDBRANCH   1  43
BRANCH   1  90
ATOM     90  C16 non d ame     -11.683  14.466  71.412  0.00  0.00    -0.035 C 
ATOM     91  H21 non d ame     -11.144  13.659  71.909  0.00  0.00     0.037 H 
ATOM     92  H22 non d ame     -11.152  15.368  71.107  0.00  0.00     0.037 H 
BRANCH  90  93
ATOM     93  C17 non d ame     -12.801  14.924  72.401  0.00  0.00    -0.059 C 
ATOM     94  H23 non d ame     -12.996  14.099  73.086  0.00  0.00     0.038 H 
BRANCH  93  95
ATOM     95  C18 non d ame     -12.365  16.159  73.253  0.00  0.00    -0.073 C 
ATOM     96  H24 non d ame     -12.349  15.884  74.308  0.00  0.00     0.028 H 
ATOM     97  H25 non d ame     -11.369  16.478  72.946  0.00  0.00     0.028 H 
ATOM     98  H26 non d ame     -13.072  16.974  73.100  0.00  0.00     0.028 H 
ENDBRANCH  93  95
BRANCH  93  99
ATOM     99  C19 non d ame     -14.106  15.212  71.654  0.00  0.00    -0.073 C 
ATOM    100  H27 non d ame     -14.939  15.200  72.359  0.00  0.00     0.028 H 
ATOM    101  H28 non d ame     -14.045  16.192  71.181  0.00  0.00     0.028 H 
ATOM    102  H29 non d ame     -14.264  14.450  70.891  0.00  0.00     0.028 H 
ENDBRANCH  93  99
ENDBRANCH  90  93
ENDBRANCH   1  90
TORSDOF 26
ENDMDL
MODEL 5
REMARK VINA RESULT:      -6.7      2.763      7.716
REMARK  26 active torsions:
REMARK  status: ('A' for Active; 'I' for Inactive)
REMARK    1  A    between atoms: C2_2  and  C3_3 
REMARK    2  A    between atoms: C4_6  and  C5_7 
REMARK       I    between atoms: C5_7  and  N2_9 
REMARK    3  A    between atoms: N2_9  and  C6_10 
REMARK    4  A    between atoms: C6_10  and  C7_11 
REMARK    5  A    between atoms: C6_10  and  C8_13 
REMARK       I    between atoms: C7_11  and  N3_14 
REMARK    6  A    between atoms: N3_14  and  C9_15 
REMARK    7  A    between atoms: C9_15  and  C10_16 
REMARK    8  A    between atoms: C9_15  and  C11_18 
REMARK       I    between atoms: C10_16  and  N4_21 
REMARK    9  A    between atoms: C11_18  and  C12_19 
REMARK   10  A    between atoms: C11_18  and  C13_20 
REMARK   11  A    between atoms: N4_21  and  C14_22 
REMARK   12  A    between atoms: C14_22  and  C15_23 
REMARK   13  A    between atoms: C14_22  and  C16_25 
REMARK       I    between atoms: C15_23  and  N6_40 
REMARK   14  A    between atoms: C16_25  and  C17_26 
REMARK   15  A    between atoms: C17_26  and  C18_27 
REMARK   16  A    between atoms: C17_26  and  C19_28 
REMARK   17  A    between atoms: C20_29  and  C21_30 
REMARK   18  A    between atoms: C20_29  and  C24_33 
REMARK   19  A    between atoms: C20_29  and  N6_40 
REMARK   20  A    between atoms: C21_30  and  C22_31 
REMARK   21  A    between atoms: C22_31  and  C23_32 
REMARK   22  A    between atoms: C23_32  and  O8_43 
REMARK   23  A    between atoms: C24_33  and  C25_34 
REMARK   24  A    between atoms: C28_38  and  O6_39 
REMARK   25  A    between atoms: C29_42  and  O8_43 
REMARK   26  A    between atoms: C29_42  and  C35_49 
ROOT
ATOM      1  C14 non d ame     -10.062   9.279  66.784  0.00  0.00     0.089 C 
ATOM      2  H20 non d ame     -11.078   8.884  66.802  0.00  0.00     0.087 H 
ENDROOT
BRANCH   1   3
ATOM      3  N4  non d ame     -10.147  10.693  66.452  0.00  0.00    -0.346 N 
ATOM      4  C10 non d ame     -11.271  11.537  66.997  0.00  0.00     0.241 C 
ATOM      5  O4  non d ame     -12.098  11.055  67.698  0.00  0.00    -0.271 OA
ATOM      6  H19 non d ame      -9.435  11.084  65.851  0.00  0.00     0.163 HD
BRANCH   4   7
ATOM      7  C9  non d ame     -11.341  13.001  66.647  0.00  0.00     0.092 C 
ATOM      8  H11 non d ame     -12.377  13.334  66.701  0.00  0.00     0.088 H 
BRANCH   7   9
ATOM      9  N3  non d ame     -10.585  13.776  67.636  0.00  0.00    -0.346 N 
ATOM     10  C7  non d ame     -11.273  14.410  68.733  0.00  0.00     0.240 C 
ATOM     11  O3  non d ame     -12.435  14.308  68.835  0.00  0.00    -0.271 OA
ATOM     12  H10 non d ame      -9.583  13.874  67.560  0.00  0.00     0.163 HD
BRANCH  10  13
ATOM     13  C6  non d ame     -10.464  15.236  69.780  0.00  0.00     0.086 C 
ATOM     14  H6  non d ame      -9.565  14.722  70.120  0.00  0.00     0.086 H 
BRANCH  13  15
ATOM     15  N2  non d ame     -10.025  16.478  69.164  0.00  0.00    -0.343 N 
ATOM     16  C5  non d ame      -8.710  16.539  68.523  0.00  0.00     0.273 C 
ATOM     17  O2  non d ame      -8.012  15.586  68.510  0.00  0.00    -0.266 OA
ATOM     18  H5  non d ame     -10.628  17.289  69.182  0.00  0.00     0.163 HD
BRANCH  16  19
ATOM     19  C4  non d ame      -8.234  17.845  67.866  0.00  0.00     0.154 A 
ATOM     20  C1  non d ame      -7.673  18.000  66.559  0.00  0.00    -0.017 A 
ATOM     21  C2  non d ame      -7.406  19.383  66.440  0.00  0.00     0.077 A 
ATOM     22  H1  non d ame      -7.488  17.229  65.811  0.00  0.00     0.091 H 
ATOM     23  O1  non d ame      -7.776  19.945  67.554  0.00  0.00    -0.218 OA
ATOM     24  N1  non d ame      -8.262  19.068  68.401  0.00  0.00    -0.123 NA
BRANCH  21  25
ATOM     25  C3  non d ame      -6.800  20.083  65.232  0.00  0.00    -0.029 C 
ATOM     26  H2  non d ame      -6.380  19.340  64.553  0.00  0.00     0.036 H 
ATOM     27  H3  non d ame      -7.573  20.652  64.716  0.00  0.00     0.036 H 
ATOM     28  H4  non d ame      -6.011  20.760  65.562  0.00  0.00     0.036 H 
ENDBRANCH  21  25
ENDBRANCH  16  19
ENDBRANCH  13  15
BRANCH  13  29
ATOM     29  C8  non d ame     -11.336  15.532  70.974  0.00  0.00    -0.049 C 
ATOM     30  H7  non d ame     -11.328  16.604  71.174  0.00  0.00     0.030 H 
ATOM     31  H8  non d ame     -12.356  15.209  70.768  0.00  0.00     0.030 H 
ATOM     32  H9  non d ame     -10.954  14.998  71.844  0.00  0.00     0.030 H 
ENDBRANCH  13  29
ENDBRANCH  10  13
ENDBRANCH   7   9
BRANCH   7  33
ATOM     33  C11 non d ame     -10.725  13.226  65.235  0.00  0.00    -0.033 C 
ATOM     34  H12 non d ame      -9.879  12.548  65.133  0.00  0.00     0.042 H 
BRANCH  33  35
ATOM     35  C12 non d ame     -11.746  12.876  64.108  0.00  0.00    -0.071 C 
ATOM     36  H13 non d ame     -11.557  11.864  63.748  0.00  0.00     0.028 H 
ATOM     37  H14 non d ame     -12.760  12.936  64.504  0.00  0.00     0.028 H 
ATOM     38  H15 non d ame     -11.635  13.581  63.285  0.00  0.00     0.028 H 
ENDBRANCH  33  35
BRANCH  33  39
ATOM     39  C13 non d ame     -10.194  14.688  65.083  0.00  0.00    -0.071 C 
ATOM     40  H16 non d ame     -10.100  14.933  64.026  0.00  0.00     0.028 H 
ATOM     41  H17 non d ame     -10.892  15.380  65.556  0.00  0.00     0.028 H 
ATOM     42  H18 non d ame      -9.219  14.771  65.564  0.00  0.00     0.028 H 
ENDBRANCH  33  39
ENDBRANCH   7  33
ENDBRANCH   4   7
ENDBRANCH   1   3
BRANCH   1  43
ATOM     43  C15 non d ame      -9.351   9.135  68.160  0.00  0.00     0.240 C 
ATOM     44  O5  non d ame      -8.329   9.708  68.360  0.00  0.00    -0.271 OA
ATOM     45  N6  non d ame      -9.949   8.290  69.232  0.00  0.00    -0.355 N 
ATOM     46  H46 non d ame     -10.820   7.803  69.076  0.00  0.00     0.162 HD
BRANCH  45  47
ATOM     47  C20 non d ame      -9.262   8.164  70.536  0.00  0.00     0.013 C 
ATOM     48  H30 non d ame      -8.356   8.770  70.497  0.00  0.00     0.072 H 
BRANCH  47  49
ATOM     49  C21 non d ame      -8.905   6.715  70.775  0.00  0.00    -0.038 C 
ATOM     50  H31 non d ame      -8.034   6.519  70.149  0.00  0.00     0.036 H 
ATOM     51  H32 non d ame      -8.834   6.604  71.857  0.00  0.00     0.036 H 
BRANCH  49  52
ATOM     52  C22 non d ame     -10.008   5.741  70.307  0.00  0.00     0.018 C 
ATOM     53  H33 non d ame     -10.182   5.067  71.146  0.00  0.00     0.048 H 
ATOM     54  H34 non d ame     -10.818   6.369  69.936  0.00  0.00     0.048 H 
BRANCH  52  55
ATOM     55  C23 non d ame      -9.583   4.840  69.115  0.00  0.00     0.259 C 
ATOM     56  O7  non d ame      -9.613   3.656  69.213  0.00  0.00    -0.265 OA
BRANCH  55  57
ATOM     57  O8  non d ame      -9.145   5.446  67.905  0.00  0.00    -0.317 OA
BRANCH  57  58
ATOM     58  C29 non d ame      -9.423   4.674  66.733  0.00  0.00     0.052 C 
ATOM     59  H47 non d ame      -9.200   3.641  67.000  0.00  0.00     0.082 H 
ATOM     60  H48 non d ame     -10.431   4.953  66.429  0.00  0.00     0.082 H 
BRANCH  58  61
ATOM     61  C35 non d ame      -8.435   5.118  65.622  0.00  0.00    -0.034 A 
ATOM     62  C30 non d ame      -7.146   5.522  65.956  0.00  0.00    -0.075 A 
ATOM     63  C31 non d ame      -6.258   5.921  64.958  0.00  0.00    -0.082 A 
ATOM     64  H49 non d ame      -6.831   5.524  66.999  0.00  0.00     0.084 H 
ATOM     65  C32 non d ame      -6.665   5.919  63.621  0.00  0.00    -0.083 A 
ATOM     66  H50 non d ame      -5.248   6.234  65.222  0.00  0.00     0.083 H 
ATOM     67  C33 non d ame      -7.953   5.519  63.292  0.00  0.00    -0.082 A 
ATOM     68  H51 non d ame      -5.977   6.229  62.834  0.00  0.00     0.083 H 
ATOM     69  C34 non d ame      -8.843   5.117  64.286  0.00  0.00    -0.075 A 
ATOM     70  H52 non d ame      -8.268   5.520  62.248  0.00  0.00     0.083 H 
ATOM     71  H53 non d ame      -9.852   4.803  64.020  0.00  0.00     0.084 H 
ENDBRANCH  58  61
ENDBRANCH  57  58
ENDBRANCH  55  57
ENDBRANCH  52  55
ENDBRANCH  49  52
ENDBRANCH  47  49
BRANCH  47  72
ATOM     72  C24 non d ame     -10.180   8.654  71.654  0.00  0.00    -0.039 C 
ATOM     73  H35 non d ame     -10.213   7.841  72.379  0.00  0.00     0.036 H 
ATOM     74  H36 non d ame      -9.788   9.629  71.945  0.00  0.00     0.036 H 
BRANCH  72  75
ATOM     75  C25 non d ame     -11.678   8.884  71.132  0.00  0.00    -0.001 C 
ATOM     76  C26 non d ame     -12.007  10.494  71.067  0.00  0.00    -0.035 C 
ATOM     77  C27 non d ame     -13.166  10.729  71.728  0.00  0.00     0.085 C 
ATOM     78  H38 non d ame     -11.268  11.050  71.643  0.00  0.00     0.036 H 
ATOM     79  H39 non d ame     -12.234  10.788  70.043  0.00  0.00     0.036 H 
ATOM     80  N5  non d ame     -13.487   9.481  72.515  0.00  0.00    -0.049 N 
ATOM     81  H40 non d ame     -12.947  11.540  72.422  0.00  0.00     0.075 H 
ATOM     82  H41 non d ame     -13.921  10.863  70.953  0.00  0.00     0.075 H 
ATOM     83  C28 non d ame     -12.536   8.322  71.916  0.00  0.00     0.193 C 
ATOM     84  H42 non d ame     -13.208   9.664  73.468  0.00  0.00     0.280 HD
ATOM     85  H43 non d ame     -14.447   9.249  72.305  0.00  0.00     0.280 HD
ATOM     86  H44 non d ame     -12.944   7.561  71.250  0.00  0.00     0.129 H 
ATOM     87  H37 non d ame     -11.900   8.296  70.242  0.00  0.00     0.046 H 
BRANCH  83  88
ATOM     88  O6  non d ame     -11.907   7.602  72.978  0.00  0.00    -0.369 OA
ATOM     89  H45 non d ame     -12.550   7.423  73.667  0.00  0.00     0.212 HD
ENDBRANCH  83  88
ENDBRANCH  72  75
ENDBRANCH  47  72
ENDBRANCH  45  47
ENDBRANCH   1  43
BRANCH   1  90
ATOM     90  C16 non d ame      -9.252   8.566  65.713  0.00  0.00    -0.035 C 
ATOM     91  H21 non d ame      -8.490   8.003  66.254  0.00  0.00     0.037 H 
ATOM     92  H22 non d ame      -9.984   8.040  65.100  0.00  0.00     0.037 H 
BRANCH  90  93
ATOM     93  C17 non d ame      -8.488   9.535  64.756  0.00  0.00    -0.059 C 
ATOM     94  H23 non d ame      -8.926  10.526  64.870  0.00  0.00     0.038 H 
BRANCH  93  95
ATOM     95  C18 non d ame      -6.971   9.640  65.111  0.00  0.00    -0.073 C 
ATOM     96  H24 non d ame      -6.648  10.677  65.022  0.00  0.00     0.028 H 
ATOM     97  H25 non d ame      -6.812   9.296  66.134  0.00  0.00     0.028 H 
ATOM     98  H26 non d ame      -6.393   9.019  64.426  0.00  0.00     0.028 H 
ENDBRANCH  93  95
BRANCH  93  99
ATOM     99  C19 non d ame      -8.678   9.121  63.294  0.00  0.00    -0.073 C 
ATOM    100  H27 non d ame      -9.476   8.381  63.226  0.00  0.00     0.028 H 
ATOM    101  H28 non d ame      -8.942   9.996  62.700  0.00  0.00     0.028 H 
ATOM    102  H29 non d ame      -7.751   8.692  62.915  0.00  0.00     0.028 H 
ENDBRANCH  93  99
ENDBRANCH  90  93
ENDBRANCH   1  90
TORSDOF 26
ENDMDL
MODEL 6
REMARK VINA RESULT:      -6.6      2.708      5.570
REMARK  26 active torsions:
REMARK  status: ('A' for Active; 'I' for Inactive)
REMARK    1  A    between atoms: C2_2  and  C3_3 
REMARK    2  A    between atoms: C4_6  and  C5_7 
REMARK       I    between atoms: C5_7  and  N2_9 
REMARK    3  A    between atoms: N2_9  and  C6_10 
REMARK    4  A    between atoms: C6_10  and  C7_11 
REMARK    5  A    between atoms: C6_10  and  C8_13 
REMARK       I    between atoms: C7_11  and  N3_14 
REMARK    6  A    between atoms: N3_14  and  C9_15 
REMARK    7  A    between atoms: C9_15  and  C10_16 
REMARK    8  A    between atoms: C9_15  and  C11_18 
REMARK       I    between atoms: C10_16  and  N4_21 
REMARK    9  A    between atoms: C11_18  and  C12_19 
REMARK   10  A    between atoms: C11_18  and  C13_20 
REMARK   11  A    between atoms: N4_21  and  C14_22 
REMARK   12  A    between atoms: C14_22  and  C15_23 
REMARK   13  A    between atoms: C14_22  and  C16_25 
REMARK       I    between atoms: C15_23  and  N6_40 
REMARK   14  A    between atoms: C16_25  and  C17_26 
REMARK   15  A    between atoms: C17_26  and  C18_27 
REMARK   16  A    between atoms: C17_26  and  C19_28 
REMARK   17  A    between atoms: C20_29  and  C21_30 
REMARK   18  A    between atoms: C20_29  and  C24_33 
REMARK   19  A    between atoms: C20_29  and  N6_40 
REMARK   20  A    between atoms: C21_30  and  C22_31 
REMARK   21  A    between atoms: C22_31  and  C23_32 
REMARK   22  A    between atoms: C23_32  and  O8_43 
REMARK   23  A    between atoms: C24_33  and  C25_34 
REMARK   24  A    between atoms: C28_38  and  O6_39 
REMARK   25  A    between atoms: C29_42  and  O8_43 
REMARK   26  A    between atoms: C29_42  and  C35_49 
ROOT
ATOM      1  C14 non d ame     -12.106  13.798  69.921  0.00  0.00     0.089 C 
ATOM      2  H20 non d ame     -13.135  13.447  69.843  0.00  0.00     0.087 H 
ENDROOT
BRANCH   1   3
ATOM      3  N4  non d ame     -11.255  12.627  70.075  0.00  0.00    -0.346 N 
ATOM      4  C10 non d ame     -11.493  11.397  69.238  0.00  0.00     0.241 C 
ATOM      5  O4  non d ame     -12.378  11.370  68.448  0.00  0.00    -0.271 OA
ATOM      6  H19 non d ame     -10.508  12.669  70.755  0.00  0.00     0.163 HD
BRANCH   4   7
ATOM      7  C9  non d ame     -10.599  10.196  69.406  0.00  0.00     0.092 C 
ATOM      8  H11 non d ame      -9.924  10.367  70.245  0.00  0.00     0.088 H 
BRANCH   7   9
ATOM      9  N3  non d ame     -11.412   9.023  69.736  0.00  0.00    -0.346 N 
ATOM     10  C7  non d ame     -12.171   8.994  70.963  0.00  0.00     0.240 C 
ATOM     11  O3  non d ame     -12.138   9.906  71.695  0.00  0.00    -0.271 OA
ATOM     12  H10 non d ame     -11.450   8.227  69.115  0.00  0.00     0.163 HD
BRANCH  10  13
ATOM     13  C6  non d ame     -13.033   7.741  71.310  0.00  0.00     0.086 C 
ATOM     14  H6  non d ame     -13.029   6.993  70.517  0.00  0.00     0.086 H 
BRANCH  13  15
ATOM     15  N2  non d ame     -12.477   7.099  72.490  0.00  0.00    -0.343 N 
ATOM     16  C5  non d ame     -11.346   6.181  72.346  0.00  0.00     0.273 C 
ATOM     17  O2  non d ame     -10.892   5.963  71.276  0.00  0.00    -0.266 OA
ATOM     18  H5  non d ame     -12.873   7.289  73.400  0.00  0.00     0.163 HD
BRANCH  16  19
ATOM     19  C4  non d ame     -10.747   5.496  73.584  0.00  0.00     0.154 A 
ATOM     20  C1  non d ame     -10.701   4.093  73.859  0.00  0.00    -0.017 A 
ATOM     21  C2  non d ame     -10.054   3.988  75.111  0.00  0.00     0.077 A 
ATOM     22  H1  non d ame     -11.078   3.275  73.245  0.00  0.00     0.091 H 
ATOM     23  O1  non d ame      -9.766   5.196  75.500  0.00  0.00    -0.218 OA
ATOM     24  N1  non d ame     -10.160   6.093  74.626  0.00  0.00    -0.123 NA
BRANCH  21  25
ATOM     25  C3  non d ame      -9.751   2.700  75.864  0.00  0.00    -0.029 C 
ATOM     26  H2  non d ame     -10.678   2.153  76.037  0.00  0.00     0.036 H 
ATOM     27  H3  non d ame      -9.070   2.086  75.274  0.00  0.00     0.036 H 
ATOM     28  H4  non d ame      -9.286   2.939  76.822  0.00  0.00     0.036 H 
ENDBRANCH  21  25
ENDBRANCH  16  19
ENDBRANCH  13  15
BRANCH  13  29
ATOM     29  C8  non d ame     -14.456   8.163  71.574  0.00  0.00    -0.049 C 
ATOM     30  H7  non d ame     -14.464   9.167  71.999  0.00  0.00     0.030 H 
ATOM     31  H8  non d ame     -15.016   8.160  70.639  0.00  0.00     0.030 H 
ATOM     32  H9  non d ame     -14.917   7.469  72.276  0.00  0.00     0.030 H 
ENDBRANCH  13  29
ENDBRANCH  10  13
ENDBRANCH   7   9
BRANCH   7  33
ATOM     33  C11 non d ame      -9.828   9.933  68.079  0.00  0.00    -0.033 C 
ATOM     34  H12 non d ame      -8.837   9.563  68.342  0.00  0.00     0.042 H 
BRANCH  33  35
ATOM     35  C12 non d ame     -10.529   8.832  67.224  0.00  0.00    -0.071 C 
ATOM     36  H13 non d ame     -10.044   7.871  67.401  0.00  0.00     0.028 H 
ATOM     37  H14 non d ame     -11.579   8.765  67.508  0.00  0.00     0.028 H 
ATOM     38  H15 non d ame     -10.453   9.089  66.168  0.00  0.00     0.028 H 
ENDBRANCH  33  35
BRANCH  33  39
ATOM     39  C13 non d ame      -9.650  11.255  67.264  0.00  0.00    -0.071 C 
ATOM     40  H16 non d ame     -10.351  12.004  67.630  0.00  0.00     0.028 H 
ATOM     41  H17 non d ame      -8.630  11.622  67.386  0.00  0.00     0.028 H 
ATOM     42  H18 non d ame      -9.842  11.059  66.210  0.00  0.00     0.028 H 
ENDBRANCH  33  39
ENDBRANCH   7  33
ENDBRANCH   4   7
ENDBRANCH   1   3
BRANCH   1  43
ATOM     43  C15 non d ame     -11.653  14.576  68.653  0.00  0.00     0.240 C 
ATOM     44  O5  non d ame     -12.381  14.656  67.717  0.00  0.00    -0.271 OA
ATOM     45  N6  non d ame     -10.314  15.230  68.609  0.00  0.00    -0.355 N 
ATOM     46  H46 non d ame      -9.689  15.173  69.400  0.00  0.00     0.162 HD
BRANCH  45  47
ATOM     47  C20 non d ame      -9.899  15.968  67.396  0.00  0.00     0.013 C 
ATOM     48  H30 non d ame     -10.751  16.552  67.051  0.00  0.00     0.072 H 
BRANCH  47  49
ATOM     49  C21 non d ame      -9.482  14.981  66.329  0.00  0.00    -0.038 C 
ATOM     50  H31 non d ame      -8.493  15.302  66.002  0.00  0.00     0.036 H 
ATOM     51  H32 non d ame      -9.616  13.994  66.773  0.00  0.00     0.036 H 
BRANCH  49  52
ATOM     52  C22 non d ame     -10.391  15.027  65.082  0.00  0.00     0.018 C 
ATOM     53  H33 non d ame     -11.284  15.574  65.387  0.00  0.00     0.048 H 
ATOM     54  H34 non d ame      -9.766  15.411  64.275  0.00  0.00     0.048 H 
BRANCH  52  55
ATOM     55  C23 non d ame     -10.884  13.630  64.614  0.00  0.00     0.259 C 
ATOM     56  O7  non d ame     -11.957  13.230  64.933  0.00  0.00    -0.265 OA
BRANCH  55  57
ATOM     57  O8  non d ame     -10.031  12.824  63.810  0.00  0.00    -0.317 OA
BRANCH  57  58
ATOM     58  C29 non d ame     -10.482  11.475  63.653  0.00  0.00     0.052 C 
ATOM     59  H47 non d ame     -10.775  11.145  64.650  0.00  0.00     0.082 H 
ATOM     60  H48 non d ame     -11.218  11.501  62.850  0.00  0.00     0.082 H 
BRANCH  58  61
ATOM     61  C35 non d ame      -9.275  10.618  63.186  0.00  0.00    -0.034 A 
ATOM     62  C30 non d ame      -8.949   9.447  63.863  0.00  0.00    -0.075 A 
ATOM     63  C31 non d ame      -7.865   8.677  63.443  0.00  0.00    -0.082 A 
ATOM     64  H49 non d ame      -9.543   9.132  64.721  0.00  0.00     0.084 H 
ATOM     65  C32 non d ame      -7.104   9.084  62.344  0.00  0.00    -0.083 A 
ATOM     66  H50 non d ame      -7.614   7.759  63.974  0.00  0.00     0.083 H 
ATOM     67  C33 non d ame      -7.431  10.255  61.674  0.00  0.00    -0.082 A 
ATOM     68  H51 non d ame      -6.255   8.488  62.009  0.00  0.00     0.083 H 
ATOM     69  C34 non d ame      -8.515  11.026  62.088  0.00  0.00    -0.075 A 
ATOM     70  H52 non d ame      -6.834  10.571  60.818  0.00  0.00     0.083 H 
ATOM     71  H53 non d ame      -8.766  11.944  61.557  0.00  0.00     0.084 H 
ENDBRANCH  58  61
ENDBRANCH  57  58
ENDBRANCH  55  57
ENDBRANCH  52  55
ENDBRANCH  49  52
ENDBRANCH  47  49
BRANCH  47  72
ATOM     72  C24 non d ame      -8.725  16.887  67.728  0.00  0.00    -0.039 C 
ATOM     73  H35 non d ame      -8.256  16.452  68.611  0.00  0.00     0.036 H 
ATOM     74  H36 non d ame      -8.159  16.981  66.801  0.00  0.00     0.036 H 
BRANCH  72  75
ATOM     75  C25 non d ame      -9.218  18.357  68.131  0.00  0.00    -0.001 C 
ATOM     76  C26 non d ame     -10.481  18.804  67.177  0.00  0.00    -0.035 C 
ATOM     77  C27 non d ame     -10.217  20.022  66.646  0.00  0.00     0.085 C 
ATOM     78  H38 non d ame     -10.540  18.154  66.306  0.00  0.00     0.036 H 
ATOM     79  H39 non d ame     -11.367  18.980  67.788  0.00  0.00     0.036 H 
ATOM     80  N5  non d ame      -8.753  20.301  66.887  0.00  0.00    -0.049 N 
ATOM     81  H40 non d ame     -10.387  19.916  65.574  0.00  0.00     0.075 H 
ATOM     82  H41 non d ame     -10.812  20.728  67.225  0.00  0.00     0.075 H 
ATOM     83  C28 non d ame      -8.271  19.223  67.989  0.00  0.00     0.193 C 
ATOM     84  H42 non d ame      -8.278  20.106  66.018  0.00  0.00     0.280 HD
ATOM     85  H43 non d ame      -8.700  21.223  67.295  0.00  0.00     0.280 HD
ATOM     86  H44 non d ame      -8.119  19.522  69.026  0.00  0.00     0.129 H 
ATOM     87  H37 non d ame      -9.346  18.469  69.208  0.00  0.00     0.046 H 
BRANCH  83  88
ATOM     88  O6  non d ame      -7.043  18.618  67.582  0.00  0.00    -0.369 OA
ATOM     89  H45 non d ame      -7.094  17.669  67.717  0.00  0.00     0.212 HD
ENDBRANCH  83  88
ENDBRANCH  72  75
ENDBRANCH  47  72
ENDBRANCH  45  47
ENDBRANCH   1  43
BRANCH   1  90
ATOM     90  C16 non d ame     -11.956  14.685  71.147  0.00  0.00    -0.035 C 
ATOM     91  H21 non d ame     -11.033  14.360  71.628  0.00  0.00     0.037 H 
ATOM     92  H22 non d ame     -12.046  15.706  70.776  0.00  0.00     0.037 H 
BRANCH  90  93
ATOM     93  C17 non d ame     -13.093  14.496  72.201  0.00  0.00    -0.059 C 
ATOM     94  H23 non d ame     -13.228  13.425  72.353  0.00  0.00     0.038 H 
BRANCH  93  95
ATOM     95  C18 non d ame     -12.730  15.131  73.581  0.00  0.00    -0.073 C 
ATOM     96  H24 non d ame     -13.246  16.084  73.689  0.00  0.00     0.028 H 
ATOM     97  H25 non d ame     -13.036  14.458  74.382  0.00  0.00     0.028 H 
ATOM     98  H26 non d ame     -11.653  15.292  73.634  0.00  0.00     0.028 H 
ENDBRANCH  93  95
BRANCH  93  99
ATOM     99  C19 non d ame     -14.421  15.051  71.678  0.00  0.00    -0.073 C 
ATOM    100  H27 non d ame     -15.187  14.943  72.446  0.00  0.00     0.028 H 
ATOM    101  H28 non d ame     -14.300  16.106  71.431  0.00  0.00     0.028 H 
ATOM    102  H29 non d ame     -14.719  14.501  70.786  0.00  0.00     0.028 H 
ENDBRANCH  93  99
ENDBRANCH  90  93
ENDBRANCH   1  90
TORSDOF 26
ENDMDL
MODEL 7
REMARK VINA RESULT:      -6.6      3.052      9.175
REMARK  26 active torsions:
REMARK  status: ('A' for Active; 'I' for Inactive)
REMARK    1  A    between atoms: C2_2  and  C3_3 
REMARK    2  A    between atoms: C4_6  and  C5_7 
REMARK       I    between atoms: C5_7  and  N2_9 
REMARK    3  A    between atoms: N2_9  and  C6_10 
REMARK    4  A    between atoms: C6_10  and  C7_11 
REMARK    5  A    between atoms: C6_10  and  C8_13 
REMARK       I    between atoms: C7_11  and  N3_14 
REMARK    6  A    between atoms: N3_14  and  C9_15 
REMARK    7  A    between atoms: C9_15  and  C10_16 
REMARK    8  A    between atoms: C9_15  and  C11_18 
REMARK       I    between atoms: C10_16  and  N4_21 
REMARK    9  A    between atoms: C11_18  and  C12_19 
REMARK   10  A    between atoms: C11_18  and  C13_20 
REMARK   11  A    between atoms: N4_21  and  C14_22 
REMARK   12  A    between atoms: C14_22  and  C15_23 
REMARK   13  A    between atoms: C14_22  and  C16_25 
REMARK       I    between atoms: C15_23  and  N6_40 
REMARK   14  A    between atoms: C16_25  and  C17_26 
REMARK   15  A    between atoms: C17_26  and  C18_27 
REMARK   16  A    between atoms: C17_26  and  C19_28 
REMARK   17  A    between atoms: C20_29  and  C21_30 
REMARK   18  A    between atoms: C20_29  and  C24_33 
REMARK   19  A    between atoms: C20_29  and  N6_40 
REMARK   20  A    between atoms: C21_30  and  C22_31 
REMARK   21  A    between atoms: C22_31  and  C23_32 
REMARK   22  A    between atoms: C23_32  and  O8_43 
REMARK   23  A    between atoms: C24_33  and  C25_34 
REMARK   24  A    between atoms: C28_38  and  O6_39 
REMARK   25  A    between atoms: C29_42  and  O8_43 
REMARK   26  A    between atoms: C29_42  and  C35_49 
ROOT
ATOM      1  C14 non d ame      -8.725   6.229  66.620  0.00  0.00     0.089 C 
ATOM      2  H20 non d ame      -8.993   5.593  65.776  0.00  0.00     0.087 H 
ENDROOT
BRANCH   1   3
ATOM      3  N4  non d ame      -8.562   7.584  66.113  0.00  0.00    -0.346 N 
ATOM      4  C10 non d ame      -8.257   7.821  64.656  0.00  0.00     0.241 C 
ATOM      5  O4  non d ame      -8.144   6.904  63.910  0.00  0.00    -0.271 OA
ATOM      6  H19 non d ame      -8.660   8.350  66.765  0.00  0.00     0.163 HD
BRANCH   4   7
ATOM      7  C9  non d ame      -8.097   9.230  64.148  0.00  0.00     0.092 C 
ATOM      8  H11 non d ame      -8.137   9.225  63.059  0.00  0.00     0.088 H 
BRANCH   7   9
ATOM      9  N3  non d ame      -9.217  10.050  64.619  0.00  0.00    -0.346 N 
ATOM     10  C7  non d ame      -9.885  10.947  63.709  0.00  0.00     0.240 C 
ATOM     11  O3  non d ame      -9.534  11.023  62.595  0.00  0.00    -0.271 OA
ATOM     12  H10 non d ame      -9.530   9.996  65.577  0.00  0.00     0.163 HD
BRANCH  10  13
ATOM     13  C6  non d ame     -11.075  11.820  64.217  0.00  0.00     0.086 C 
ATOM     14  H6  non d ame     -11.481  11.468  65.165  0.00  0.00     0.086 H 
BRANCH  13  15
ATOM     15  N2  non d ame     -10.602  13.175  64.444  0.00  0.00    -0.343 N 
ATOM     16  C5  non d ame     -11.498  14.159  65.056  0.00  0.00     0.273 C 
ATOM     17  O2  non d ame     -12.598  13.850  65.359  0.00  0.00    -0.266 OA
ATOM     18  H5  non d ame      -9.661  13.431  64.179  0.00  0.00     0.163 HD
BRANCH  16  19
ATOM     19  C4  non d ame     -11.011  15.595  65.303  0.00  0.00     0.154 A 
ATOM     20  C1  non d ame     -10.189  16.056  66.380  0.00  0.00    -0.017 A 
ATOM     21  C2  non d ame     -10.032  17.441  66.150  0.00  0.00     0.077 A 
ATOM     22  H1  non d ame      -9.772  15.475  67.203  0.00  0.00     0.091 H 
ATOM     23  O1  non d ame     -10.688  17.730  65.065  0.00  0.00    -0.218 OA
ATOM     24  N1  non d ame     -11.269  16.670  64.553  0.00  0.00    -0.123 NA
BRANCH  21  25
ATOM     25  C3  non d ame      -9.238  18.413  67.013  0.00  0.00    -0.029 C 
ATOM     26  H2  non d ame      -9.804  18.644  67.915  0.00  0.00     0.036 H 
ATOM     27  H3  non d ame      -8.285  17.961  67.287  0.00  0.00     0.036 H 
ATOM     28  H4  non d ame      -9.057  19.332  66.453  0.00  0.00     0.036 H 
ENDBRANCH  21  25
ENDBRANCH  16  19
ENDBRANCH  13  15
BRANCH  13  29
ATOM     29  C8  non d ame     -12.176  11.822  63.187  0.00  0.00    -0.049 C 
ATOM     30  H7  non d ame     -12.246  12.811  62.733  0.00  0.00     0.030 H 
ATOM     31  H8  non d ame     -11.954  11.083  62.417  0.00  0.00     0.030 H 
ATOM     32  H9  non d ame     -13.122  11.575  63.667  0.00  0.00     0.030 H 
ENDBRANCH  13  29
ENDBRANCH  10  13
ENDBRANCH   7   9
BRANCH   7  33
ATOM     33  C11 non d ame      -6.761   9.825  64.682  0.00  0.00    -0.033 C 
ATOM     34  H12 non d ame      -6.145   8.994  65.026  0.00  0.00     0.042 H 
BRANCH  33  35
ATOM     35  C12 non d ame      -5.972  10.556  63.551  0.00  0.00    -0.071 C 
ATOM     36  H13 non d ame      -6.416  10.316  62.585  0.00  0.00     0.028 H 
ATOM     37  H14 non d ame      -6.019  11.633  63.714  0.00  0.00     0.028 H 
ATOM     38  H15 non d ame      -4.933  10.231  63.565  0.00  0.00     0.028 H 
ENDBRANCH  33  35
BRANCH  33  39
ATOM     39  C13 non d ame      -7.018  10.772  65.898  0.00  0.00    -0.071 C 
ATOM     40  H16 non d ame      -6.166  10.732  66.576  0.00  0.00     0.028 H 
ATOM     41  H17 non d ame      -7.149  11.794  65.540  0.00  0.00     0.028 H 
ATOM     42  H18 non d ame      -7.917  10.453  66.423  0.00  0.00     0.028 H 
ENDBRANCH  33  39
ENDBRANCH   7  33
ENDBRANCH   4   7
ENDBRANCH   1   3
BRANCH   1  43
ATOM     43  C15 non d ame      -9.826   6.241  67.719  0.00  0.00     0.240 C 
ATOM     44  O5  non d ame     -10.767   5.521  67.620  0.00  0.00    -0.271 OA
ATOM     45  N6  non d ame      -9.703   7.143  68.899  0.00  0.00    -0.355 N 
ATOM     46  H46 non d ame      -8.906   7.755  68.996  0.00  0.00     0.162 HD
BRANCH  45  47
ATOM     47  C20 non d ame     -10.758   7.141  69.936  0.00  0.00     0.013 C 
ATOM     48  H30 non d ame     -11.600   6.562  69.557  0.00  0.00     0.072 H 
BRANCH  47  49
ATOM     49  C21 non d ame     -11.190   8.563  70.212  0.00  0.00    -0.038 C 
ATOM     50  H31 non d ame     -12.197   8.650  69.804  0.00  0.00     0.036 H 
ATOM     51  H32 non d ame     -11.017   8.721  71.277  0.00  0.00     0.036 H 
BRANCH  49  52
ATOM     52  C22 non d ame     -10.327   9.606  69.470  0.00  0.00     0.018 C 
ATOM     53  H33 non d ame     -10.238  10.454  70.150  0.00  0.00     0.048 H 
ATOM     54  H34 non d ame      -9.433   9.073  69.145  0.00  0.00     0.048 H 
BRANCH  52  55
ATOM     55  C23 non d ame     -10.988  10.161  68.178  0.00  0.00     0.259 C 
ATOM     56  O7  non d ame     -10.750   9.672  67.121  0.00  0.00    -0.265 OA
BRANCH  55  57
ATOM     57  O8  non d ame     -11.874  11.270  68.269  0.00  0.00    -0.317 OA
BRANCH  57  58
ATOM     58  C29 non d ame     -11.215  12.537  68.351  0.00  0.00     0.052 C 
ATOM     59  H47 non d ame     -10.188  12.316  68.644  0.00  0.00     0.082 H 
ATOM     60  H48 non d ame     -11.416  13.036  67.404  0.00  0.00     0.082 H 
BRANCH  58  61
ATOM     61  C35 non d ame     -11.885  13.353  69.488  0.00  0.00    -0.034 A 
ATOM     62  C30 non d ame     -11.960  14.739  69.401  0.00  0.00    -0.075 A 
ATOM     63  C31 non d ame     -12.562  15.472  70.422  0.00  0.00    -0.082 A 
ATOM     64  H49 non d ame     -11.546  15.251  68.531  0.00  0.00     0.084 H 
ATOM     65  C32 non d ame     -13.089  14.814  71.536  0.00  0.00    -0.083 A 
ATOM     66  H50 non d ame     -12.620  16.558  70.349  0.00  0.00     0.083 H 
ATOM     67  C33 non d ame     -13.010  13.431  71.621  0.00  0.00    -0.082 A 
ATOM     68  H51 non d ame     -13.562  15.379  72.339  0.00  0.00     0.083 H 
ATOM     69  C34 non d ame     -12.411  12.694  70.602  0.00  0.00    -0.075 A 
ATOM     70  H52 non d ame     -13.420  12.920  72.493  0.00  0.00     0.083 H 
ATOM     71  H53 non d ame     -12.353  11.607  70.675  0.00  0.00     0.084 H 
ENDBRANCH  58  61
ENDBRANCH  57  58
ENDBRANCH  55  57
ENDBRANCH  52  55
ENDBRANCH  49  52
ENDBRANCH  47  49
BRANCH  47  72
ATOM     72  C24 non d ame     -10.218   6.513  71.220  0.00  0.00    -0.039 C 
ATOM     73  H35 non d ame     -10.949   5.754  71.501  0.00  0.00     0.036 H 
ATOM     74  H36 non d ame      -9.192   6.224  70.993  0.00  0.00     0.036 H 
BRANCH  72  75
ATOM     75  C25 non d ame     -10.156   7.575  72.418  0.00  0.00    -0.001 C 
ATOM     76  C26 non d ame      -8.590   7.921  72.779  0.00  0.00    -0.035 C 
ATOM     77  C27 non d ame      -8.405   7.767  74.113  0.00  0.00     0.085 C 
ATOM     78  H38 non d ame      -7.931   7.170  72.343  0.00  0.00     0.036 H 
ATOM     79  H39 non d ame      -8.393   8.980  72.616  0.00  0.00     0.036 H 
ATOM     80  N5  non d ame      -9.613   7.034  74.644  0.00  0.00    -0.049 N 
ATOM     81  H40 non d ame      -7.528   7.127  74.214  0.00  0.00     0.075 H 
ATOM     82  H41 non d ame      -8.394   8.776  74.523  0.00  0.00     0.075 H 
ATOM     83  C28 non d ame     -10.729   7.115  73.480  0.00  0.00     0.193 C 
ATOM     84  H42 non d ame      -9.336   6.069  74.757  0.00  0.00     0.280 HD
ATOM     85  H43 non d ame      -9.941   7.562  75.440  0.00  0.00     0.280 HD
ATOM     86  H44 non d ame     -11.570   7.805  73.566  0.00  0.00     0.129 H 
ATOM     87  H37 non d ame     -10.826   8.420  72.256  0.00  0.00     0.046 H 
BRANCH  83  88
ATOM     88  O6  non d ame     -11.312   5.829  73.264  0.00  0.00    -0.369 OA
ATOM     89  H45 non d ame     -10.633   5.215  72.974  0.00  0.00     0.212 HD
ENDBRANCH  83  88
ENDBRANCH  72  75
ENDBRANCH  47  72
ENDBRANCH  45  47
ENDBRANCH   1  43
BRANCH   1  90
ATOM     90  C16 non d ame      -7.409   5.762  67.220  0.00  0.00    -0.035 C 
ATOM     91  H21 non d ame      -6.766   5.540  66.368  0.00  0.00     0.037 H 
ATOM     92  H22 non d ame      -7.123   6.539  67.930  0.00  0.00     0.037 H 
BRANCH  90  93
ATOM     93  C17 non d ame      -7.529   4.438  68.039  0.00  0.00    -0.059 C 
ATOM     94  H23 non d ame      -8.589   4.208  68.143  0.00  0.00     0.038 H 
BRANCH  93  95
ATOM     95  C18 non d ame      -6.849   3.233  67.313  0.00  0.00    -0.073 C 
ATOM     96  H24 non d ame      -5.977   3.585  66.763  0.00  0.00     0.028 H 
ATOM     97  H25 non d ame      -6.538   2.493  68.052  0.00  0.00     0.028 H 
ATOM     98  H26 non d ame      -7.558   2.779  66.620  0.00  0.00     0.028 H 
ENDBRANCH  93  95
BRANCH  93  99
ATOM     99  C19 non d ame      -6.961   4.614  69.450  0.00  0.00    -0.073 C 
ATOM    100  H27 non d ame      -7.378   5.517  69.899  0.00  0.00     0.028 H 
ATOM    101  H28 non d ame      -7.226   3.750  70.059  0.00  0.00     0.028 H 
ATOM    102  H29 non d ame      -5.877   4.702  69.397  0.00  0.00     0.028 H 
ENDBRANCH  93  99
ENDBRANCH  90  93
ENDBRANCH   1  90
TORSDOF 26
ENDMDL
MODEL 8
REMARK VINA RESULT:      -6.6      3.402      9.489
REMARK  26 active torsions:
REMARK  status: ('A' for Active; 'I' for Inactive)
REMARK    1  A    between atoms: C2_2  and  C3_3 
REMARK    2  A    between atoms: C4_6  and  C5_7 
REMARK       I    between atoms: C5_7  and  N2_9 
REMARK    3  A    between atoms: N2_9  and  C6_10 
REMARK    4  A    between atoms: C6_10  and  C7_11 
REMARK    5  A    between atoms: C6_10  and  C8_13 
REMARK       I    between atoms: C7_11  and  N3_14 
REMARK    6  A    between atoms: N3_14  and  C9_15 
REMARK    7  A    between atoms: C9_15  and  C10_16 
REMARK    8  A    between atoms: C9_15  and  C11_18 
REMARK       I    between atoms: C10_16  and  N4_21 
REMARK    9  A    between atoms: C11_18  and  C12_19 
REMARK   10  A    between atoms: C11_18  and  C13_20 
REMARK   11  A    between atoms: N4_21  and  C14_22 
REMARK   12  A    between atoms: C14_22  and  C15_23 
REMARK   13  A    between atoms: C14_22  and  C16_25 
REMARK       I    between atoms: C15_23  and  N6_40 
REMARK   14  A    between atoms: C16_25  and  C17_26 
REMARK   15  A    between atoms: C17_26  and  C18_27 
REMARK   16  A    between atoms: C17_26  and  C19_28 
REMARK   17  A    between atoms: C20_29  and  C21_30 
REMARK   18  A    between atoms: C20_29  and  C24_33 
REMARK   19  A    between atoms: C20_29  and  N6_40 
REMARK   20  A    between atoms: C21_30  and  C22_31 
REMARK   21  A    between atoms: C22_31  and  C23_32 
REMARK   22  A    between atoms: C23_32  and  O8_43 
REMARK   23  A    between atoms: C24_33  and  C25_34 
REMARK   24  A    between atoms: C28_38  and  O6_39 
REMARK   25  A    between atoms: C29_42  and  O8_43 
REMARK   26  A    between atoms: C29_42  and  C35_49 
ROOT
ATOM      1  C14 non d ame      -8.164   8.278  63.108  0.00  0.00     0.089 C 
ATOM      2  H20 non d ame      -8.548   8.366  62.091  0.00  0.00     0.087 H 
ENDROOT
BRANCH   1   3
ATOM      3  N4  non d ame      -9.056   9.028  63.979  0.00  0.00    -0.346 N 
ATOM      4  C10 non d ame      -9.592  10.370  63.548  0.00  0.00     0.241 C 
ATOM      5  O4  non d ame      -9.290  10.827  62.495  0.00  0.00    -0.271 OA
ATOM      6  H19 non d ame      -9.299   8.623  64.872  0.00  0.00     0.163 HD
BRANCH   4   7
ATOM      7  C9  non d ame     -10.519  11.129  64.461  0.00  0.00     0.092 C 
ATOM      8  H11 non d ame     -11.237  10.437  64.899  0.00  0.00     0.088 H 
BRANCH   7   9
ATOM      9  N3  non d ame      -9.749  11.712  65.564  0.00  0.00    -0.346 N 
ATOM     10  C7  non d ame      -9.796  11.108  66.873  0.00  0.00     0.240 C 
ATOM     11  O3  non d ame     -10.448  10.154  67.056  0.00  0.00    -0.271 OA
ATOM     12  H10 non d ame      -9.183  12.536  65.421  0.00  0.00     0.163 HD
BRANCH  10  13
ATOM     13  C6  non d ame      -8.977  11.735  68.044  0.00  0.00     0.086 C 
ATOM     14  H6  non d ame      -8.229  12.450  67.700  0.00  0.00     0.086 H 
BRANCH  13  15
ATOM     15  N2  non d ame      -9.882  12.466  68.914  0.00  0.00    -0.343 N 
ATOM     16  C5  non d ame     -10.279  13.831  68.560  0.00  0.00     0.273 C 
ATOM     17  O2  non d ame      -9.861  14.332  67.574  0.00  0.00    -0.266 OA
ATOM     18  H5  non d ame     -10.232  12.031  69.756  0.00  0.00     0.163 HD
BRANCH  16  19
ATOM     19  C4  non d ame     -11.237  14.615  69.470  0.00  0.00     0.154 A 
ATOM     20  C1  non d ame     -12.308  14.086  70.259  0.00  0.00    -0.017 A 
ATOM     21  C2  non d ame     -12.873  15.208  70.904  0.00  0.00     0.077 A 
ATOM     22  H1  non d ame     -12.625  13.047  70.349  0.00  0.00     0.091 H 
ATOM     23  O1  non d ame     -12.198  16.254  70.525  0.00  0.00    -0.218 OA
ATOM     24  N1  non d ame     -11.239  15.933  69.688  0.00  0.00    -0.123 NA
BRANCH  21  25
ATOM     25  C3  non d ame     -14.054  15.195  71.866  0.00  0.00    -0.029 C 
ATOM     26  H2  non d ame     -14.708  14.356  71.628  0.00  0.00     0.036 H 
ATOM     27  H3  non d ame     -13.688  15.093  72.888  0.00  0.00     0.036 H 
ATOM     28  H4  non d ame     -14.611  16.128  71.771  0.00  0.00     0.036 H 
ENDBRANCH  21  25
ENDBRANCH  16  19
ENDBRANCH  13  15
BRANCH  13  29
ATOM     29  C8  non d ame      -8.285  10.642  68.818  0.00  0.00    -0.049 C 
ATOM     30  H7  non d ame      -8.646  10.642  69.847  0.00  0.00     0.030 H 
ATOM     31  H8  non d ame      -8.500   9.678  68.357  0.00  0.00     0.030 H 
ATOM     32  H9  non d ame      -7.210  10.817  68.811  0.00  0.00     0.030 H 
ENDBRANCH  13  29
ENDBRANCH  10  13
ENDBRANCH   7   9
BRANCH   7  33
ATOM     33  C11 non d ame     -11.216  12.268  63.660  0.00  0.00    -0.033 C 
ATOM     34  H12 non d ame     -10.661  12.405  62.732  0.00  0.00     0.042 H 
BRANCH  33  35
ATOM     35  C12 non d ame     -12.679  11.881  63.279  0.00  0.00    -0.071 C 
ATOM     36  H13 non d ame     -12.767  11.819  62.194  0.00  0.00     0.028 H 
ATOM     37  H14 non d ame     -12.925  10.914  63.718  0.00  0.00     0.028 H 
ATOM     38  H15 non d ame     -13.365  12.638  63.657  0.00  0.00     0.028 H 
ENDBRANCH  33  35
BRANCH  33  39
ATOM     39  C13 non d ame     -11.175  13.615  64.452  0.00  0.00    -0.071 C 
ATOM     40  H16 non d ame     -12.149  14.099  64.395  0.00  0.00     0.028 H 
ATOM     41  H17 non d ame     -10.928  13.415  65.495  0.00  0.00     0.028 H 
ATOM     42  H18 non d ame     -10.418  14.268  64.018  0.00  0.00     0.028 H 
ENDBRANCH  33  39
ENDBRANCH   7  33
ENDBRANCH   4   7
ENDBRANCH   1   3
BRANCH   1  43
ATOM     43  C15 non d ame      -8.122   6.801  63.594  0.00  0.00     0.240 C 
ATOM     44  O5  non d ame      -7.699   5.954  62.876  0.00  0.00    -0.271 OA
ATOM     45  N6  non d ame      -8.600   6.444  64.960  0.00  0.00    -0.355 N 
ATOM     46  H46 non d ame      -8.957   7.156  65.581  0.00  0.00     0.162 HD
BRANCH  45  47
ATOM     47  C20 non d ame      -8.552   5.036  65.409  0.00  0.00     0.013 C 
ATOM     48  H30 non d ame      -8.837   4.405  64.566  0.00  0.00     0.072 H 
BRANCH  47  49
ATOM     49  C21 non d ame      -9.525   4.841  66.550  0.00  0.00    -0.038 C 
ATOM     50  H31 non d ame     -10.180   4.026  66.243  0.00  0.00     0.036 H 
ATOM     51  H32 non d ame      -8.911   4.741  67.445  0.00  0.00     0.036 H 
BRANCH  49  52
ATOM     52  C22 non d ame     -10.433   6.069  66.779  0.00  0.00     0.018 C 
ATOM     53  H33 non d ame     -10.091   6.826  66.073  0.00  0.00     0.048 H 
ATOM     54  H34 non d ame     -11.456   5.694  66.723  0.00  0.00     0.048 H 
BRANCH  52  55
ATOM     55  C23 non d ame     -10.287   6.702  68.190  0.00  0.00     0.259 C 
ATOM     56  O7  non d ame      -9.319   7.332  68.471  0.00  0.00    -0.265 OA
BRANCH  55  57
ATOM     57  O8  non d ame     -11.318   6.509  69.151  0.00  0.00    -0.317 OA
BRANCH  57  58
ATOM     58  C29 non d ame     -10.929   6.817  70.493  0.00  0.00     0.052 C 
ATOM     59  H47 non d ame     -11.254   5.970  71.096  0.00  0.00     0.082 H 
ATOM     60  H48 non d ame      -9.871   7.076  70.441  0.00  0.00     0.082 H 
BRANCH  58  61
ATOM     61  C35 non d ame     -11.720   8.074  70.944  0.00  0.00    -0.034 A 
ATOM     62  C30 non d ame     -12.795   7.944  71.818  0.00  0.00    -0.075 A 
ATOM     63  C31 non d ame     -13.506   9.072  72.223  0.00  0.00    -0.082 A 
ATOM     64  H49 non d ame     -13.079   6.958  72.185  0.00  0.00     0.084 H 
ATOM     65  C32 non d ame     -13.140  10.335  71.749  0.00  0.00    -0.083 A 
ATOM     66  H50 non d ame     -14.346   8.967  72.910  0.00  0.00     0.083 H 
ATOM     67  C33 non d ame     -12.069  10.459  70.874  0.00  0.00    -0.082 A 
ATOM     68  H51 non d ame     -13.690  11.222  72.061  0.00  0.00     0.083 H 
ATOM     69  C34 non d ame     -11.354   9.335  70.468  0.00  0.00    -0.075 A 
ATOM     70  H52 non d ame     -11.788  11.446  70.504  0.00  0.00     0.083 H 
ATOM     71  H53 non d ame     -10.514   9.441  69.782  0.00  0.00     0.084 H 
ENDBRANCH  58  61
ENDBRANCH  57  58
ENDBRANCH  55  57
ENDBRANCH  52  55
ENDBRANCH  49  52
ENDBRANCH  47  49
BRANCH  47  72
ATOM     72  C24 non d ame      -7.140   4.690  65.877  0.00  0.00    -0.039 C 
ATOM     73  H35 non d ame      -7.050   3.611  65.755  0.00  0.00     0.036 H 
ATOM     74  H36 non d ame      -6.480   5.358  65.324  0.00  0.00     0.036 H 
BRANCH  72  75
ATOM     75  C25 non d ame      -6.938   5.008  67.434  0.00  0.00    -0.001 C 
ATOM     76  C26 non d ame      -6.111   6.418  67.615  0.00  0.00    -0.035 C 
ATOM     77  C27 non d ame      -5.067   6.206  68.451  0.00  0.00     0.085 C 
ATOM     78  H38 non d ame      -5.634   6.694  66.676  0.00  0.00     0.036 H 
ATOM     79  H39 non d ame      -6.723   7.144  68.151  0.00  0.00     0.036 H 
ATOM     80  N5  non d ame      -4.913   4.712  68.597  0.00  0.00    -0.049 N 
ATOM     81  H40 non d ame      -4.193   6.604  67.933  0.00  0.00     0.075 H 
ATOM     82  H41 non d ame      -5.370   6.627  69.409  0.00  0.00     0.075 H 
ATOM     83  C28 non d ame      -6.277   4.067  68.021  0.00  0.00     0.193 C 
ATOM     84  H42 non d ame      -4.150   4.442  67.993  0.00  0.00     0.280 HD
ATOM     85  H43 non d ame      -4.863   4.525  69.589  0.00  0.00     0.280 HD
ATOM     86  H44 non d ame      -7.038   3.684  68.701  0.00  0.00     0.129 H 
ATOM     87  H37 non d ame      -7.863   4.899  68.001  0.00  0.00     0.046 H 
BRANCH  83  88
ATOM     88  O6  non d ame      -5.976   2.987  67.136  0.00  0.00    -0.369 OA
ATOM     89  H45 non d ame      -6.713   2.850  66.537  0.00  0.00     0.212 HD
ENDBRANCH  83  88
ENDBRANCH  72  75
ENDBRANCH  47  72
ENDBRANCH  45  47
ENDBRANCH   1  43
BRANCH   1  90
ATOM     90  C16 non d ame      -6.771   8.882  63.185  0.00  0.00    -0.035 C 
ATOM     91  H21 non d ame      -6.167   8.305  62.484  0.00  0.00     0.037 H 
ATOM     92  H22 non d ame      -6.911   9.952  63.031  0.00  0.00     0.037 H 
BRANCH  90  93
ATOM     93  C17 non d ame      -6.095   8.722  64.584  0.00  0.00    -0.059 C 
ATOM     94  H23 non d ame      -6.754   8.110  65.201  0.00  0.00     0.038 H 
BRANCH  93  95
ATOM     95  C18 non d ame      -4.716   7.993  64.493  0.00  0.00    -0.073 C 
ATOM     96  H24 non d ame      -4.798   7.003  64.940  0.00  0.00     0.028 H 
ATOM     97  H25 non d ame      -4.425   7.897  63.447  0.00  0.00     0.028 H 
ATOM     98  H26 non d ame      -3.964   8.573  65.028  0.00  0.00     0.028 H 
ENDBRANCH  93  95
BRANCH  93  99
ATOM     99  C19 non d ame      -5.950  10.078  65.279  0.00  0.00    -0.073 C 
ATOM    100  H27 non d ame      -5.752   9.923  66.341  0.00  0.00     0.028 H 
ATOM    101  H28 non d ame      -5.123  10.629  64.832  0.00  0.00     0.028 H 
ATOM    102  H29 non d ame      -6.872  10.647  65.161  0.00  0.00     0.028 H 
ENDBRANCH  93  99
ENDBRANCH  90  93
ENDBRANCH   1  90
TORSDOF 26
ENDMDL
MODEL 9
REMARK VINA RESULT:      -6.5      2.120      5.092
REMARK  26 active torsions:
REMARK  status: ('A' for Active; 'I' for Inactive)
REMARK    1  A    between atoms: C2_2  and  C3_3 
REMARK    2  A    between atoms: C4_6  and  C5_7 
REMARK       I    between atoms: C5_7  and  N2_9 
REMARK    3  A    between atoms: N2_9  and  C6_10 
REMARK    4  A    between atoms: C6_10  and  C7_11 
REMARK    5  A    between atoms: C6_10  and  C8_13 
REMARK       I    between atoms: C7_11  and  N3_14 
REMARK    6  A    between atoms: N3_14  and  C9_15 
REMARK    7  A    between atoms: C9_15  and  C10_16 
REMARK    8  A    between atoms: C9_15  and  C11_18 
REMARK       I    between atoms: C10_16  and  N4_21 
REMARK    9  A    between atoms: C11_18  and  C12_19 
REMARK   10  A    between atoms: C11_18  and  C13_20 
REMARK   11  A    between atoms: N4_21  and  C14_22 
REMARK   12  A    between atoms: C14_22  and  C15_23 
REMARK   13  A    between atoms: C14_22  and  C16_25 
REMARK       I    between atoms: C15_23  and  N6_40 
REMARK   14  A    between atoms: C16_25  and  C17_26 
REMARK   15  A    between atoms: C17_26  and  C18_27 
REMARK   16  A    between atoms: C17_26  and  C19_28 
REMARK   17  A    between atoms: C20_29  and  C21_30 
REMARK   18  A    between atoms: C20_29  and  C24_33 
REMARK   19  A    between atoms: C20_29  and  N6_40 
REMARK   20  A    between atoms: C21_30  and  C22_31 
REMARK   21  A    between atoms: C22_31  and  C23_32 
REMARK   22  A    between atoms: C23_32  and  O8_43 
REMARK   23  A    between atoms: C24_33  and  C25_34 
REMARK   24  A    between atoms: C28_38  and  O6_39 
REMARK   25  A    between atoms: C29_42  and  O8_43 
REMARK   26  A    between atoms: C29_42  and  C35_49 
ROOT
ATOM      1  C14 non d ame      -9.817  10.309  68.479  0.00  0.00     0.089 C 
ATOM      2  H20 non d ame      -9.201  10.654  69.310  0.00  0.00     0.087 H 
ENDROOT
BRANCH   1   3
ATOM      3  N4  non d ame     -10.607   9.184  68.956  0.00  0.00    -0.346 N 
ATOM      4  C10 non d ame      -9.962   8.091  69.770  0.00  0.00     0.241 C 
ATOM      5  O4  non d ame      -8.804   8.137  70.026  0.00  0.00    -0.271 OA
ATOM      6  H19 non d ame     -11.590   9.162  68.725  0.00  0.00     0.163 HD
BRANCH   4   7
ATOM      7  C9  non d ame     -10.797   6.936  70.259  0.00  0.00     0.092 C 
ATOM      8  H11 non d ame     -10.337   6.515  71.154  0.00  0.00     0.088 H 
BRANCH   7   9
ATOM      9  N3  non d ame     -12.126   7.422  70.643  0.00  0.00    -0.346 N 
ATOM     10  C7  non d ame     -12.338   7.979  71.957  0.00  0.00     0.240 C 
ATOM     11  O3  non d ame     -11.450   8.042  72.718  0.00  0.00    -0.271 OA
ATOM     12  H10 non d ame     -12.901   7.372  69.998  0.00  0.00     0.163 HD
BRANCH  10  13
ATOM     13  C6  non d ame     -13.755   8.491  72.361  0.00  0.00     0.086 C 
ATOM     14  H6  non d ame     -14.111   8.055  73.294  0.00  0.00     0.086 H 
BRANCH  13  15
ATOM     15  N2  non d ame     -13.695   9.928  72.569  0.00  0.00    -0.343 N 
ATOM     16  C5  non d ame     -13.248  10.797  71.478  0.00  0.00     0.273 C 
ATOM     17  O2  non d ame     -12.935  10.330  70.438  0.00  0.00    -0.266 OA
ATOM     18  H5  non d ame     -13.962  10.318  73.462  0.00  0.00     0.163 HD
BRANCH  16  19
ATOM     19  C4  non d ame     -13.181  12.318  71.684  0.00  0.00     0.154 A 
ATOM     20  C1  non d ame     -12.360  13.252  70.975  0.00  0.00    -0.017 A 
ATOM     21  C2  non d ame     -12.672  14.510  71.537  0.00  0.00     0.077 A 
ATOM     22  H1  non d ame     -11.648  13.047  70.176  0.00  0.00     0.091 H 
ATOM     23  O1  non d ame     -13.568  14.311  72.458  0.00  0.00    -0.218 OA
ATOM     24  N1  non d ame     -13.882  13.040  72.563  0.00  0.00    -0.123 NA
BRANCH  21  25
ATOM     25  C3  non d ame     -12.070  15.850  71.136  0.00  0.00    -0.029 C 
ATOM     26  H2  non d ame     -11.342  15.698  70.339  0.00  0.00     0.036 H 
ATOM     27  H3  non d ame     -12.861  16.513  70.786  0.00  0.00     0.036 H 
ATOM     28  H4  non d ame     -11.575  16.299  71.998  0.00  0.00     0.036 H 
ENDBRANCH  21  25
ENDBRANCH  16  19
ENDBRANCH  13  15
BRANCH  13  29
ATOM     29  C8  non d ame     -14.740   8.168  71.266  0.00  0.00    -0.049 C 
ATOM     30  H7  non d ame     -15.055   9.090  70.777  0.00  0.00     0.030 H 
ATOM     31  H8  non d ame     -14.268   7.512  70.535  0.00  0.00     0.030 H 
ATOM     32  H9  non d ame     -15.609   7.670  71.695  0.00  0.00     0.030 H 
ENDBRANCH  13  29
ENDBRANCH  10  13
ENDBRANCH   7   9
BRANCH   7  33
ATOM     33  C11 non d ame     -10.941   5.882  69.123  0.00  0.00    -0.033 C 
ATOM     34  H12 non d ame     -11.878   5.349  69.286  0.00  0.00     0.042 H 
BRANCH  33  35
ATOM     35  C12 non d ame     -11.027   6.564  67.722  0.00  0.00    -0.071 C 
ATOM     36  H13 non d ame     -10.918   7.643  67.836  0.00  0.00     0.028 H 
ATOM     37  H14 non d ame     -10.230   6.184  67.084  0.00  0.00     0.028 H 
ATOM     38  H15 non d ame     -11.993   6.342  67.270  0.00  0.00     0.028 H 
ENDBRANCH  33  35
BRANCH  33  39
ATOM     39  C13 non d ame      -9.777   4.841  69.176  0.00  0.00    -0.071 C 
ATOM     40  H16 non d ame      -9.841   4.180  68.312  0.00  0.00     0.028 H 
ATOM     41  H17 non d ame      -8.820   5.364  69.162  0.00  0.00     0.028 H 
ATOM     42  H18 non d ame      -9.857   4.253  70.090  0.00  0.00     0.028 H 
ENDBRANCH  33  39
ENDBRANCH   7  33
ENDBRANCH   4   7
ENDBRANCH   1   3
BRANCH   1  43
ATOM     43  C15 non d ame     -10.785  11.414  67.969  0.00  0.00     0.240 C 
ATOM     44  O5  non d ame     -11.932  11.158  67.790  0.00  0.00    -0.271 OA
ATOM     45  N6  non d ame     -10.285  12.795  67.711  0.00  0.00    -0.355 N 
ATOM     46  H46 non d ame      -9.314  13.025  67.864  0.00  0.00     0.162 HD
BRANCH  45  47
ATOM     47  C20 non d ame     -11.219  13.834  67.228  0.00  0.00     0.013 C 
ATOM     48  H30 non d ame     -12.225  13.549  67.533  0.00  0.00     0.072 H 
BRANCH  47  49
ATOM     49  C21 non d ame     -11.140  13.915  65.720  0.00  0.00    -0.038 C 
ATOM     50  H31 non d ame     -11.387  14.946  65.466  0.00  0.00     0.036 H 
ATOM     51  H32 non d ame     -10.164  13.507  65.454  0.00  0.00     0.036 H 
BRANCH  49  52
ATOM     52  C22 non d ame     -12.190  13.028  65.017  0.00  0.00     0.018 C 
ATOM     53  H33 non d ame     -12.652  12.434  65.806  0.00  0.00     0.048 H 
ATOM     54  H34 non d ame     -12.799  13.708  64.420  0.00  0.00     0.048 H 
BRANCH  52  55
ATOM     55  C23 non d ame     -11.580  12.008  64.015  0.00  0.00     0.259 C 
ATOM     56  O7  non d ame     -12.262  11.488  63.193  0.00  0.00    -0.265 OA
BRANCH  55  57
ATOM     57  O8  non d ame     -10.196  11.692  64.100  0.00  0.00    -0.317 OA
BRANCH  57  58
ATOM     58  C29 non d ame      -9.623  11.250  62.866  0.00  0.00     0.052 C 
ATOM     59  H47 non d ame     -10.429  10.751  62.329  0.00  0.00     0.082 H 
ATOM     60  H48 non d ame      -9.140  12.126  62.434  0.00  0.00     0.082 H 
BRANCH  58  61
ATOM     61  C35 non d ame      -8.529  10.200  63.195  0.00  0.00    -0.034 A 
ATOM     62  C30 non d ame      -7.226  10.386  62.745  0.00  0.00    -0.075 A 
ATOM     63  C31 non d ame      -6.243   9.443  63.040  0.00  0.00    -0.082 A 
ATOM     64  H49 non d ame      -6.975  11.272  62.161  0.00  0.00     0.084 H 
ATOM     65  C32 non d ame      -6.568   8.307  63.788  0.00  0.00    -0.083 A 
ATOM     66  H50 non d ame      -5.222   9.593  62.688  0.00  0.00     0.083 H 
ATOM     67  C33 non d ame      -7.870   8.124  64.232  0.00  0.00    -0.082 A 
ATOM     68  H51 non d ame      -5.805   7.565  64.024  0.00  0.00     0.083 H 
ATOM     69  C34 non d ame      -8.855   9.065  63.941  0.00  0.00    -0.075 A 
ATOM     70  H52 non d ame      -8.121   7.236  64.813  0.00  0.00     0.083 H 
ATOM     71  H53 non d ame      -9.875   8.914  64.295  0.00  0.00     0.084 H 
ENDBRANCH  58  61
ENDBRANCH  57  58
ENDBRANCH  55  57
ENDBRANCH  52  55
ENDBRANCH  49  52
ENDBRANCH  47  49
BRANCH  47  72
ATOM     72  C24 non d ame     -10.844  15.187  67.831  0.00  0.00    -0.039 C 
ATOM     73  H35 non d ame     -11.790  15.652  68.109  0.00  0.00     0.036 H 
ATOM     74  H36 non d ame     -10.099  14.966  68.596  0.00  0.00     0.036 H 
BRANCH  72  75
ATOM     75  C25 non d ame     -10.146  16.143  66.752  0.00  0.00    -0.001 C 
ATOM     76  C26 non d ame      -8.533  15.827  66.684  0.00  0.00    -0.035 C 
ATOM     77  C27 non d ame      -7.854  16.992  66.817  0.00  0.00     0.085 C 
ATOM     78  H38 non d ame      -8.228  15.253  67.558  0.00  0.00     0.036 H 
ATOM     79  H39 non d ame      -8.261  15.486  65.685  0.00  0.00     0.036 H 
ATOM     80  N5  non d ame      -8.843  18.027  67.296  0.00  0.00    -0.049 N 
ATOM     81  H40 non d ame      -7.118  16.812  67.602  0.00  0.00     0.075 H 
ATOM     82  H41 non d ame      -7.526  17.253  65.811  0.00  0.00     0.075 H 
ATOM     83  C28 non d ame     -10.306  17.388  67.058  0.00  0.00     0.193 C 
ATOM     84  H42 non d ame      -8.693  18.127  68.290  0.00  0.00     0.280 HD
ATOM     85  H43 non d ame      -8.738  18.826  66.687  0.00  0.00     0.280 HD
ATOM     86  H44 non d ame     -10.926  17.718  66.225  0.00  0.00     0.129 H 
ATOM     87  H37 non d ame     -10.687  16.164  65.807  0.00  0.00     0.046 H 
BRANCH  83  88
ATOM     88  O6  non d ame     -11.113  17.556  68.225  0.00  0.00    -0.369 OA
ATOM     89  H45 non d ame     -10.606  18.009  68.902  0.00  0.00     0.212 HD
ENDBRANCH  83  88
ENDBRANCH  72  75
ENDBRANCH  47  72
ENDBRANCH  45  47
ENDBRANCH   1  43
BRANCH   1  90
ATOM     90  C16 non d ame      -8.927   9.843  67.338  0.00  0.00    -0.035 C 
ATOM     91  H21 non d ame      -8.878   8.758  67.435  0.00  0.00     0.037 H 
ATOM     92  H22 non d ame      -9.352  10.290  66.439  0.00  0.00     0.037 H 
BRANCH  90  93
ATOM     93  C17 non d ame      -7.457  10.362  67.437  0.00  0.00    -0.059 C 
ATOM     94  H23 non d ame      -6.795   9.518  67.244  0.00  0.00     0.038 H 
BRANCH  93  95
ATOM     95  C18 non d ame      -7.148  11.463  66.373  0.00  0.00    -0.073 C 
ATOM     96  H24 non d ame      -8.055  11.692  65.814  0.00  0.00     0.028 H 
ATOM     97  H25 non d ame      -6.793  12.363  66.875  0.00  0.00     0.028 H 
ATOM     98  H26 non d ame      -6.380  11.102  65.689  0.00  0.00     0.028 H 
ENDBRANCH  93  95
BRANCH  93  99
ATOM     99  C19 non d ame      -7.150  10.867  68.849  0.00  0.00    -0.073 C 
ATOM    100  H27 non d ame      -6.132  10.586  69.122  0.00  0.00     0.028 H 
ATOM    101  H28 non d ame      -7.247  11.953  68.875  0.00  0.00     0.028 H 
ATOM    102  H29 non d ame      -7.852  10.423  69.555  0.00  0.00     0.028 H 
ENDBRANCH  93  99
ENDBRANCH  90  93
ENDBRANCH   1  90
TORSDOF 26
ENDMDL
MODEL 10
REMARK VINA RESULT:      -6.5      4.304     10.758
REMARK  26 active torsions:
REMARK  status: ('A' for Active; 'I' for Inactive)
REMARK    1  A    between atoms: C2_2  and  C3_3 
REMARK    2  A    between atoms: C4_6  and  C5_7 
REMARK       I    between atoms: C5_7  and  N2_9 
REMARK    3  A    between atoms: N2_9  and  C6_10 
REMARK    4  A    between atoms: C6_10  and  C7_11 
REMARK    5  A    between atoms: C6_10  and  C8_13 
REMARK       I    between atoms: C7_11  and  N3_14 
REMARK    6  A    between atoms: N3_14  and  C9_15 
REMARK    7  A    between atoms: C9_15  and  C10_16 
REMARK    8  A    between atoms: C9_15  and  C11_18 
REMARK       I    between atoms: C10_16  and  N4_21 
REMARK    9  A    between atoms: C11_18  and  C12_19 
REMARK   10  A    between atoms: C11_18  and  C13_20 
REMARK   11  A    between atoms: N4_21  and  C14_22 
REMARK   12  A    between atoms: C14_22  and  C15_23 
REMARK   13  A    between atoms: C14_22  and  C16_25 
REMARK       I    between atoms: C15_23  and  N6_40 
REMARK   14  A    between atoms: C16_25  and  C17_26 
REMARK   15  A    between atoms: C17_26  and  C18_27 
REMARK   16  A    between atoms: C17_26  and  C19_28 
REMARK   17  A    between atoms: C20_29  and  C21_30 
REMARK   18  A    between atoms: C20_29  and  C24_33 
REMARK   19  A    between atoms: C20_29  and  N6_40 
REMARK   20  A    between atoms: C21_30  and  C22_31 
REMARK   21  A    between atoms: C22_31  and  C23_32 
REMARK   22  A    between atoms: C23_32  and  O8_43 
REMARK   23  A    between atoms: C24_33  and  C25_34 
REMARK   24  A    between atoms: C28_38  and  O6_39 
REMARK   25  A    between atoms: C29_42  and  O8_43 
REMARK   26  A    between atoms: C29_42  and  C35_49 
ROOT
ATOM      1  C14 non d ame      -8.270   6.358  63.871  0.00  0.00     0.089 C 
ATOM      2  H20 non d ame      -9.068   6.407  63.130  0.00  0.00     0.087 H 
ENDROOT
BRANCH   1   3
ATOM      3  N4  non d ame      -8.123   7.688  64.444  0.00  0.00    -0.346 N 
ATOM      4  C10 non d ame      -8.367   8.913  63.600  0.00  0.00     0.241 C 
ATOM      5  O4  non d ame      -8.678   8.804  62.460  0.00  0.00    -0.271 OA
ATOM      6  H19 non d ame      -7.856   7.759  65.416  0.00  0.00     0.163 HD
BRANCH   4   7
ATOM      7  C9  non d ame      -8.216  10.281  64.212  0.00  0.00     0.092 C 
ATOM      8  H11 non d ame      -7.819  10.966  63.463  0.00  0.00     0.088 H 
BRANCH   7   9
ATOM      9  N3  non d ame      -9.534  10.788  64.607  0.00  0.00    -0.346 N 
ATOM     10  C7  non d ame     -10.233  11.717  63.755  0.00  0.00     0.240 C 
ATOM     11  O3  non d ame      -9.751  12.069  62.749  0.00  0.00    -0.271 OA
ATOM     12  H10 non d ame      -9.962  10.495  65.474  0.00  0.00     0.163 HD
BRANCH  10  13
ATOM     13  C6  non d ame     -11.634  12.256  64.183  0.00  0.00     0.086 C 
ATOM     14  H6  non d ame     -11.919  11.939  65.187  0.00  0.00     0.086 H 
BRANCH  13  15
ATOM     15  N2  non d ame     -11.595  13.709  64.201  0.00  0.00    -0.343 N 
ATOM     16  C5  non d ame     -10.859  14.398  65.263  0.00  0.00     0.273 C 
ATOM     17  O2  non d ame     -10.305  13.775  66.100  0.00  0.00    -0.266 OA
ATOM     18  H5  non d ame     -12.075  14.233  63.483  0.00  0.00     0.163 HD
BRANCH  16  19
ATOM     19  C4  non d ame     -10.809  15.933  65.293  0.00  0.00     0.154 A 
ATOM     20  C1  non d ame     -10.298  16.761  66.343  0.00  0.00    -0.017 A 
ATOM     21  C2  non d ame     -10.481  18.085  65.883  0.00  0.00     0.077 A 
ATOM     22  H1  non d ame      -9.862  16.450  67.292  0.00  0.00     0.091 H 
ATOM     23  O1  non d ame     -11.031  18.014  64.707  0.00  0.00    -0.218 OA
ATOM     24  N1  non d ame     -11.233  16.769  64.341  0.00  0.00    -0.123 NA
BRANCH  21  25
ATOM     25  C3  non d ame     -10.103  19.358  66.628  0.00  0.00    -0.029 C 
ATOM     26  H2  non d ame      -9.023  19.500  66.581  0.00  0.00     0.036 H 
ATOM     27  H3  non d ame     -10.602  20.210  66.167  0.00  0.00     0.036 H 
ATOM     28  H4  non d ame     -10.413  19.276  67.670  0.00  0.00     0.036 H 
ENDBRANCH  21  25
ENDBRANCH  16  19
ENDBRANCH  13  15
BRANCH  13  29
ATOM     29  C8  non d ame     -12.679  11.779  63.207  0.00  0.00    -0.049 C 
ATOM     30  H7  non d ame     -13.250  10.965  63.654  0.00  0.00     0.030 H 
ATOM     31  H8  non d ame     -13.350  12.602  62.962  0.00  0.00     0.030 H 
ATOM     32  H9  non d ame     -12.192  11.424  62.299  0.00  0.00     0.030 H 
ENDBRANCH  13  29
ENDBRANCH  10  13
ENDBRANCH   7   9
BRANCH   7  33
ATOM     33  C11 non d ame      -7.300  10.189  65.467  0.00  0.00    -0.033 C 
ATOM     34  H12 non d ame      -7.413   9.189  65.884  0.00  0.00     0.042 H 
BRANCH  33  35
ATOM     35  C12 non d ame      -5.797  10.372  65.088  0.00  0.00    -0.071 C 
ATOM     36  H13 non d ame      -5.678  10.262  64.010  0.00  0.00     0.028 H 
ATOM     37  H14 non d ame      -5.465  11.365  65.390  0.00  0.00     0.028 H 
ATOM     38  H15 non d ame      -5.200   9.618  65.599  0.00  0.00     0.028 H 
ENDBRANCH  33  35
BRANCH  33  39
ATOM     39  C13 non d ame      -7.739  11.220  66.556  0.00  0.00    -0.071 C 
ATOM     40  H16 non d ame      -8.045  12.149  66.075  0.00  0.00     0.028 H 
ATOM     41  H17 non d ame      -8.576  10.813  67.125  0.00  0.00     0.028 H 
ATOM     42  H18 non d ame      -6.904  11.416  67.228  0.00  0.00     0.028 H 
ENDBRANCH  33  39
ENDBRANCH   7  33
ENDBRANCH   4   7
ENDBRANCH   1   3
BRANCH   1  43
ATOM     43  C15 non d ame      -8.593   5.357  65.017  0.00  0.00     0.240 C 
ATOM     44  O5  non d ame      -9.282   4.413  64.800  0.00  0.00    -0.271 OA
ATOM     45  N6  non d ame      -8.036   5.570  66.383  0.00  0.00    -0.355 N 
ATOM     46  H46 non d ame      -7.445   6.366  66.578  0.00  0.00     0.162 HD
BRANCH  45  47
ATOM     47  C20 non d ame      -8.351   4.609  67.461  0.00  0.00     0.013 C 
ATOM     48  H30 non d ame      -9.192   3.999  67.132  0.00  0.00     0.072 H 
BRANCH  47  49
ATOM     49  C21 non d ame      -8.722   5.368  68.715  0.00  0.00    -0.038 C 
ATOM     50  H31 non d ame      -7.992   5.069  69.468  0.00  0.00     0.036 H 
ATOM     51  H32 non d ame      -8.799   6.413  68.414  0.00  0.00     0.036 H 
BRANCH  49  52
ATOM     52  C22 non d ame     -10.108   4.970  69.268  0.00  0.00     0.018 C 
ATOM     53  H33 non d ame     -10.724   5.867  69.197  0.00  0.00     0.048 H 
ATOM     54  H34 non d ame     -10.394   4.068  68.726  0.00  0.00     0.048 H 
BRANCH  52  55
ATOM     55  C23 non d ame     -10.093   4.578  70.772  0.00  0.00     0.259 C 
ATOM     56  O7  non d ame      -9.520   3.603  71.136  0.00  0.00    -0.265 OA
BRANCH  55  57
ATOM     57  O8  non d ame     -10.784   5.393  71.711  0.00  0.00    -0.317 OA
BRANCH  57  58
ATOM     58  C29 non d ame     -10.235   6.706  71.858  0.00  0.00     0.052 C 
ATOM     59  H47 non d ame      -9.856   6.754  72.879  0.00  0.00     0.082 H 
ATOM     60  H48 non d ame      -9.554   6.837  71.018  0.00  0.00     0.082 H 
BRANCH  58  61
ATOM     61  C35 non d ame     -11.393   7.728  71.716  0.00  0.00    -0.034 A 
ATOM     62  C30 non d ame     -11.112   9.071  71.482  0.00  0.00    -0.075 A 
ATOM     63  C31 non d ame     -12.153   9.990  71.354  0.00  0.00    -0.082 A 
ATOM     64  H49 non d ame     -10.077   9.402  71.398  0.00  0.00     0.084 H 
ATOM     65  C32 non d ame     -13.479   9.562  71.463  0.00  0.00    -0.083 A 
ATOM     66  H50 non d ame     -11.930  11.040  71.168  0.00  0.00     0.083 H 
ATOM     67  C33 non d ame     -13.754   8.222  71.700  0.00  0.00    -0.082 A 
ATOM     68  H51 non d ame     -14.298  10.274  71.364  0.00  0.00     0.083 H 
ATOM     69  C34 non d ame     -12.717   7.300  71.827  0.00  0.00    -0.075 A 
ATOM     70  H52 non d ame     -14.790   7.892  71.788  0.00  0.00     0.083 H 
ATOM     71  H53 non d ame     -12.942   6.249  72.012  0.00  0.00     0.084 H 
ENDBRANCH  58  61
ENDBRANCH  57  58
ENDBRANCH  55  57
ENDBRANCH  52  55
ENDBRANCH  49  52
ENDBRANCH  47  49
BRANCH  47  72
ATOM     72  C24 non d ame      -7.134   3.728  67.740  0.00  0.00    -0.039 C 
ATOM     73  H35 non d ame      -6.475   3.864  66.882  0.00  0.00     0.036 H 
ATOM     74  H36 non d ame      -6.796   4.009  68.737  0.00  0.00     0.036 H 
BRANCH  72  75
ATOM     75  C25 non d ame      -7.526   2.176  67.793  0.00  0.00    -0.001 C 
ATOM     76  C26 non d ame      -9.096   1.979  67.344  0.00  0.00    -0.035 C 
ATOM     77  C27 non d ame      -9.730   1.240  68.286  0.00  0.00     0.085 C 
ATOM     78  H38 non d ame      -9.617   2.935  67.376  0.00  0.00     0.036 H 
ATOM     79  H39 non d ame      -9.154   1.356  66.450  0.00  0.00     0.036 H 
ATOM     80  N5  non d ame      -8.825   1.192  69.493  0.00  0.00    -0.049 N 
ATOM     81  H40 non d ame     -10.630   1.801  68.538  0.00  0.00     0.075 H 
ATOM     82  H41 non d ame      -9.812   0.239  67.864  0.00  0.00     0.075 H 
ATOM     83  C28 non d ame      -7.378   1.697  68.983  0.00  0.00     0.193 C 
ATOM     84  H42 non d ame      -9.188   1.868  70.150  0.00  0.00     0.280 HD
ATOM     85  H43 non d ame      -8.751   0.220  69.757  0.00  0.00     0.280 HD
ATOM     86  H44 non d ame      -6.572   0.983  68.811  0.00  0.00     0.129 H 
ATOM     87  H37 non d ame      -6.786   1.546  67.299  0.00  0.00     0.046 H 
BRANCH  83  88
ATOM     88  O6  non d ame      -6.845   2.663  69.891  0.00  0.00    -0.369 OA
ATOM     89  H45 non d ame      -5.899   2.529  69.981  0.00  0.00     0.212 HD
ENDBRANCH  83  88
ENDBRANCH  72  75
ENDBRANCH  47  72
ENDBRANCH  45  47
ENDBRANCH   1  43
BRANCH   1  90
ATOM     90  C16 non d ame      -6.966   5.961  63.198  0.00  0.00    -0.035 C 
ATOM     91  H21 non d ame      -6.911   4.877  63.292  0.00  0.00     0.037 H 
ATOM     92  H22 non d ame      -6.999   6.421  62.210  0.00  0.00     0.037 H 
BRANCH  90  93
ATOM     93  C17 non d ame      -5.696   6.531  63.907  0.00  0.00    -0.059 C 
ATOM     94  H23 non d ame      -6.032   7.188  64.709  0.00  0.00     0.038 H 
BRANCH  93  95
ATOM     95  C18 non d ame      -4.824   5.405  64.548  0.00  0.00    -0.073 C 
ATOM     96  H24 non d ame      -3.919   5.842  64.970  0.00  0.00     0.028 H 
ATOM     97  H25 non d ame      -5.391   4.910  65.337  0.00  0.00     0.028 H 
ATOM     98  H26 non d ame      -4.553   4.676  63.783  0.00  0.00     0.028 H 
ENDBRANCH  93  95
BRANCH  93  99
ATOM     99  C19 non d ame      -4.866   7.381  62.942  0.00  0.00    -0.073 C 
ATOM    100  H27 non d ame      -3.809   7.290  63.195  0.00  0.00     0.028 H 
ATOM    101  H28 non d ame      -5.027   7.032  61.921  0.00  0.00     0.028 H 
ATOM    102  H29 non d ame      -5.171   8.424  63.021  0.00  0.00     0.028 H 
ENDBRANCH  93  99
ENDBRANCH  90  93
ENDBRANCH   1  90
TORSDOF 26
ENDMDL
MODEL 11
REMARK VINA RESULT:      -6.5      2.399      5.606
REMARK  26 active torsions:
REMARK  status: ('A' for Active; 'I' for Inactive)
REMARK    1  A    between atoms: C2_2  and  C3_3 
REMARK    2  A    between atoms: C4_6  and  C5_7 
REMARK       I    between atoms: C5_7  and  N2_9 
REMARK    3  A    between atoms: N2_9  and  C6_10 
REMARK    4  A    between atoms: C6_10  and  C7_11 
REMARK    5  A    between atoms: C6_10  and  C8_13 
REMARK       I    between atoms: C7_11  and  N3_14 
REMARK    6  A    between atoms: N3_14  and  C9_15 
REMARK    7  A    between atoms: C9_15  and  C10_16 
REMARK    8  A    between atoms: C9_15  and  C11_18 
REMARK       I    between atoms: C10_16  and  N4_21 
REMARK    9  A    between atoms: C11_18  and  C12_19 
REMARK   10  A    between atoms: C11_18  and  C13_20 
REMARK   11  A    between atoms: N4_21  and  C14_22 
REMARK   12  A    between atoms: C14_22  and  C15_23 
REMARK   13  A    between atoms: C14_22  and  C16_25 
REMARK       I    between atoms: C15_23  and  N6_40 
REMARK   14  A    between atoms: C16_25  and  C17_26 
REMARK   15  A    between atoms: C17_26  and  C18_27 
REMARK   16  A    between atoms: C17_26  and  C19_28 
REMARK   17  A    between atoms: C20_29  and  C21_30 
REMARK   18  A    between atoms: C20_29  and  C24_33 
REMARK   19  A    between atoms: C20_29  and  N6_40 
REMARK   20  A    between atoms: C21_30  and  C22_31 
REMARK   21  A    between atoms: C22_31  and  C23_32 
REMARK   22  A    between atoms: C23_32  and  O8_43 
REMARK   23  A    between atoms: C24_33  and  C25_34 
REMARK   24  A    between atoms: C28_38  and  O6_39 
REMARK   25  A    between atoms: C29_42  and  O8_43 
REMARK   26  A    between atoms: C29_42  and  C35_49 
ROOT
ATOM      1  C14 non d ame     -12.011  14.185  69.800  0.00  0.00     0.089 C 
ATOM      2  H20 non d ame     -12.950  14.064  69.260  0.00  0.00     0.087 H 
ENDROOT
BRANCH   1   3
ATOM      3  N4  non d ame     -11.607  12.869  70.274  0.00  0.00    -0.346 N 
ATOM      4  C10 non d ame     -11.783  11.656  69.396  0.00  0.00     0.241 C 
ATOM      5  O4  non d ame     -12.255  11.763  68.312  0.00  0.00    -0.271 OA
ATOM      6  H19 non d ame     -11.209  12.799  71.200  0.00  0.00     0.163 HD
BRANCH   4   7
ATOM      7  C9  non d ame     -11.354  10.303  69.900  0.00  0.00     0.092 C 
ATOM      8  H11 non d ame     -11.683   9.538  69.197  0.00  0.00     0.088 H 
BRANCH   7   9
ATOM      9  N3  non d ame      -9.890  10.243  69.953  0.00  0.00    -0.346 N 
ATOM     10  C7  non d ame      -9.170   9.404  69.026  0.00  0.00     0.240 C 
ATOM     11  O3  non d ame      -9.752   8.771  68.232  0.00  0.00    -0.271 OA
ATOM     12  H10 non d ame      -9.374  10.782  70.633  0.00  0.00     0.163 HD
BRANCH  10  13
ATOM     13  C6  non d ame      -7.612   9.342  69.089  0.00  0.00     0.086 C 
ATOM     14  H6  non d ame      -7.247   8.499  69.675  0.00  0.00     0.086 H 
BRANCH  13  15
ATOM     15  N2  non d ame      -7.092   9.167  67.743  0.00  0.00    -0.343 N 
ATOM     16  C5  non d ame      -5.901   8.342  67.531  0.00  0.00     0.273 C 
ATOM     17  O2  non d ame      -5.367   7.825  68.450  0.00  0.00    -0.266 OA
ATOM     18  H5  non d ame      -7.554   9.615  66.963  0.00  0.00     0.163 HD
BRANCH  16  19
ATOM     19  C4  non d ame      -5.342   8.148  66.113  0.00  0.00     0.154 A 
ATOM     20  C1  non d ame      -5.662   8.910  64.945  0.00  0.00    -0.017 A 
ATOM     21  C2  non d ame      -4.888   8.336  63.912  0.00  0.00     0.077 A 
ATOM     22  H1  non d ame      -6.350   9.751  64.860  0.00  0.00     0.091 H 
ATOM     23  O1  non d ame      -4.206   7.360  64.436  0.00  0.00    -0.218 OA
ATOM     24  N1  non d ame      -4.454   7.230  65.719  0.00  0.00    -0.123 NA
BRANCH  21  25
ATOM     25  C3  non d ame      -4.857   8.779  62.455  0.00  0.00    -0.029 C 
ATOM     26  H2  non d ame      -5.875   8.821  62.066  0.00  0.00     0.036 H 
ATOM     27  H3  non d ame      -4.400   9.766  62.385  0.00  0.00     0.036 H 
ATOM     28  H4  non d ame      -4.274   8.066  61.870  0.00  0.00     0.036 H 
ENDBRANCH  21  25
ENDBRANCH  16  19
ENDBRANCH  13  15
BRANCH  13  29
ATOM     29  C8  non d ame      -7.079  10.619  69.687  0.00  0.00    -0.049 C 
ATOM     30  H7  non d ame      -7.511  11.473  69.165  0.00  0.00     0.030 H 
ATOM     31  H8  non d ame      -7.345  10.665  70.743  0.00  0.00     0.030 H 
ATOM     32  H9  non d ame      -5.994  10.643  69.584  0.00  0.00     0.030 H 
ENDBRANCH  13  29
ENDBRANCH  10  13
ENDBRANCH   7   9
BRANCH   7  33
ATOM     33  C11 non d ame     -11.931  10.075  71.328  0.00  0.00    -0.033 C 
ATOM     34  H12 non d ame     -11.630  10.922  71.944  0.00  0.00     0.042 H 
BRANCH  33  35
ATOM     35  C12 non d ame     -13.491  10.038  71.311  0.00  0.00    -0.071 C 
ATOM     36  H13 non d ame     -13.864  10.787  70.611  0.00  0.00     0.028 H 
ATOM     37  H14 non d ame     -13.828   9.050  70.998  0.00  0.00     0.028 H 
ATOM     38  H15 non d ame     -13.870  10.253  72.309  0.00  0.00     0.028 H 
ENDBRANCH  33  35
BRANCH  33  39
ATOM     39  C13 non d ame     -11.342   8.777  71.968  0.00  0.00    -0.071 C 
ATOM     40  H16 non d ame     -11.685   7.907  71.409  0.00  0.00     0.028 H 
ATOM     41  H17 non d ame     -10.252   8.821  71.940  0.00  0.00     0.028 H 
ATOM     42  H18 non d ame     -11.676   8.699  73.003  0.00  0.00     0.028 H 
ENDBRANCH  33  39
ENDBRANCH   7  33
ENDBRANCH   4   7
ENDBRANCH   1   3
BRANCH   1  43
ATOM     43  C15 non d ame     -10.881  14.754  68.896  0.00  0.00     0.240 C 
ATOM     44  O5  non d ame      -9.746  14.495  69.134  0.00  0.00    -0.271 OA
ATOM     45  N6  non d ame     -11.215  15.616  67.726  0.00  0.00    -0.355 N 
ATOM     46  H46 non d ame     -12.176  15.839  67.511  0.00  0.00     0.162 HD
BRANCH  45  47
ATOM     47  C20 non d ame     -10.130  16.149  66.875  0.00  0.00     0.013 C 
ATOM     48  H30 non d ame      -9.181  15.930  67.365  0.00  0.00     0.072 H 
BRANCH  47  49
ATOM     49  C21 non d ame     -10.301  17.643  66.724  0.00  0.00    -0.038 C 
ATOM     50  H31 non d ame      -9.496  17.967  66.063  0.00  0.00     0.036 H 
ATOM     51  H32 non d ame     -11.340  17.792  66.431  0.00  0.00     0.036 H 
BRANCH  49  52
ATOM     52  C22 non d ame     -10.108  18.406  68.053  0.00  0.00     0.018 C 
ATOM     53  H33 non d ame     -10.763  19.275  67.992  0.00  0.00     0.048 H 
ATOM     54  H34 non d ame     -10.255  17.667  68.841  0.00  0.00     0.048 H 
BRANCH  52  55
ATOM     55  C23 non d ame      -8.672  18.965  68.252  0.00  0.00     0.259 C 
ATOM     56  O7  non d ame      -8.407  19.620  69.207  0.00  0.00    -0.265 OA
BRANCH  55  57
ATOM     57  O8  non d ame      -7.677  18.696  67.271  0.00  0.00    -0.317 OA
BRANCH  57  58
ATOM     58  C29 non d ame      -6.381  18.432  67.814  0.00  0.00     0.052 C 
ATOM     59  H47 non d ame      -5.682  18.568  66.988  0.00  0.00     0.082 H 
ATOM     60  H48 non d ame      -6.301  19.057  68.703  0.00  0.00     0.082 H 
BRANCH  58  61
ATOM     61  C35 non d ame      -6.339  16.945  68.255  0.00  0.00    -0.034 A 
ATOM     62  C30 non d ame      -6.568  15.936  67.324  0.00  0.00    -0.075 A 
ATOM     63  C31 non d ame      -6.531  14.600  67.720  0.00  0.00    -0.082 A 
ATOM     64  H49 non d ame      -6.777  16.193  66.286  0.00  0.00     0.084 H 
ATOM     65  C32 non d ame      -6.265  14.274  69.052  0.00  0.00    -0.083 A 
ATOM     66  H50 non d ame      -6.709  13.812  66.988  0.00  0.00     0.083 H 
ATOM     67  C33 non d ame      -6.039  15.284  69.978  0.00  0.00    -0.082 A 
ATOM     68  H51 non d ame      -6.233  13.232  69.370  0.00  0.00     0.083 H 
ATOM     69  C34 non d ame      -6.074  16.621  69.586  0.00  0.00    -0.075 A 
ATOM     70  H52 non d ame      -5.834  15.026  71.017  0.00  0.00     0.083 H 
ATOM     71  H53 non d ame      -5.895  17.408  70.319  0.00  0.00     0.084 H 
ENDBRANCH  58  61
ENDBRANCH  57  58
ENDBRANCH  55  57
ENDBRANCH  52  55
ENDBRANCH  49  52
ENDBRANCH  47  49
BRANCH  47  72
ATOM     72  C24 non d ame     -10.181  15.488  65.499  0.00  0.00    -0.039 C 
ATOM     73  H35 non d ame     -10.210  16.310  64.783  0.00  0.00     0.036 H 
ATOM     74  H36 non d ame      -9.350  14.783  65.484  0.00  0.00     0.036 H 
BRANCH  72  75
ATOM     75  C25 non d ame     -11.525  14.639  65.299  0.00  0.00    -0.001 C 
ATOM     76  C26 non d ame     -11.153  13.072  64.969  0.00  0.00    -0.035 C 
ATOM     77  C27 non d ame     -11.822  12.690  63.855  0.00  0.00     0.085 C 
ATOM     78  H38 non d ame     -10.106  12.989  64.679  0.00  0.00     0.036 H 
ATOM     79  H39 non d ame     -11.558  12.421  65.744  0.00  0.00     0.036 H 
ATOM     80  N5  non d ame     -12.357  13.945  63.209  0.00  0.00    -0.049 N 
ATOM     81  H40 non d ame     -11.069  12.247  63.201  0.00  0.00     0.075 H 
ATOM     82  H41 non d ame     -12.658  12.088  64.208  0.00  0.00     0.075 H 
ATOM     83  C28 non d ame     -12.232  15.106  64.324  0.00  0.00     0.193 C 
ATOM     84  H42 non d ame     -11.733  14.163  62.446  0.00  0.00     0.280 HD
ATOM     85  H43 non d ame     -13.337  13.778  63.028  0.00  0.00     0.280 HD
ATOM     86  H44 non d ame     -13.113  15.451  64.865  0.00  0.00     0.129 H 
ATOM     87  H37 non d ame     -12.250  14.821  66.092  0.00  0.00     0.046 H 
BRANCH  83  88
ATOM     88  O6  non d ame     -11.652  16.279  63.751  0.00  0.00    -0.369 OA
ATOM     89  H45 non d ame     -11.326  16.849  64.450  0.00  0.00     0.212 HD
ENDBRANCH  83  88
ENDBRANCH  72  75
ENDBRANCH  47  72
ENDBRANCH  45  47
ENDBRANCH   1  43
BRANCH   1  90
ATOM     90  C16 non d ame     -12.219  15.100  70.996  0.00  0.00    -0.035 C 
ATOM     91  H21 non d ame     -11.224  15.267  71.408  0.00  0.00     0.037 H 
ATOM     92  H22 non d ame     -12.800  15.941  70.618  0.00  0.00     0.037 H 
BRANCH  90  93
ATOM     93  C17 non d ame     -13.067  14.456  72.139  0.00  0.00    -0.059 C 
ATOM     94  H23 non d ame     -12.813  13.397  72.183  0.00  0.00     0.038 H 
BRANCH  93  95
ATOM     95  C18 non d ame     -12.747  15.081  73.535  0.00  0.00    -0.073 C 
ATOM     96  H24 non d ame     -12.540  14.285  74.250  0.00  0.00     0.028 H 
ATOM     97  H25 non d ame     -11.875  15.730  73.450  0.00  0.00     0.028 H 
ATOM     98  H26 non d ame     -13.602  15.664  73.876  0.00  0.00     0.028 H 
ENDBRANCH  93  95
BRANCH  93  99
ATOM     99  C19 non d ame     -14.563  14.552  71.830  0.00  0.00    -0.073 C 
ATOM    100  H27 non d ame     -15.083  13.706  72.281  0.00  0.00     0.028 H 
ATOM    101  H28 non d ame     -14.960  15.482  72.238  0.00  0.00     0.028 H 
ATOM    102  H29 non d ame     -14.713  14.536  70.750  0.00  0.00     0.028 H 
ENDBRANCH  93  99
ENDBRANCH  90  93
ENDBRANCH   1  90
TORSDOF 26
ENDMDL
MODEL 12
REMARK VINA RESULT:      -6.5      2.311      2.899
REMARK  26 active torsions:
REMARK  status: ('A' for Active; 'I' for Inactive)
REMARK    1  A    between atoms: C2_2  and  C3_3 
REMARK    2  A    between atoms: C4_6  and  C5_7 
REMARK       I    between atoms: C5_7  and  N2_9 
REMARK    3  A    between atoms: N2_9  and  C6_10 
REMARK    4  A    between atoms: C6_10  and  C7_11 
REMARK    5  A    between atoms: C6_10  and  C8_13 
REMARK       I    between atoms: C7_11  and  N3_14 
REMARK    6  A    between atoms: N3_14  and  C9_15 
REMARK    7  A    between atoms: C9_15  and  C10_16 
REMARK    8  A    between atoms: C9_15  and  C11_18 
REMARK       I    between atoms: C10_16  and  N4_21 
REMARK    9  A    between atoms: C11_18  and  C12_19 
REMARK   10  A    between atoms: C11_18  and  C13_20 
REMARK   11  A    between atoms: N4_21  and  C14_22 
REMARK   12  A    between atoms: C14_22  and  C15_23 
REMARK   13  A    between atoms: C14_22  and  C16_25 
REMARK       I    between atoms: C15_23  and  N6_40 
REMARK   14  A    between atoms: C16_25  and  C17_26 
REMARK   15  A    between atoms: C17_26  and  C18_27 
REMARK   16  A    between atoms: C17_26  and  C19_28 
REMARK   17  A    between atoms: C20_29  and  C21_30 
REMARK   18  A    between atoms: C20_29  and  C24_33 
REMARK   19  A    between atoms: C20_29  and  N6_40 
REMARK   20  A    between atoms: C21_30  and  C22_31 
REMARK   21  A    between atoms: C22_31  and  C23_32 
REMARK   22  A    between atoms: C23_32  and  O8_43 
REMARK   23  A    between atoms: C24_33  and  C25_34 
REMARK   24  A    between atoms: C28_38  and  O6_39 
REMARK   25  A    between atoms: C29_42  and  O8_43 
REMARK   26  A    between atoms: C29_42  and  C35_49 
ROOT
ATOM      1  C14 non d ame     -11.962  14.057  69.791  0.00  0.00     0.089 C 
ATOM      2  H20 non d ame     -12.897  13.517  69.640  0.00  0.00     0.087 H 
ENDROOT
BRANCH   1   3
ATOM      3  N4  non d ame     -10.876  13.097  69.666  0.00  0.00    -0.346 N 
ATOM      4  C10 non d ame     -10.994  11.933  68.715  0.00  0.00     0.241 C 
ATOM      5  O4  non d ame     -11.975  11.789  68.062  0.00  0.00    -0.271 OA
ATOM      6  H19 non d ame     -10.051  13.236  70.232  0.00  0.00     0.163 HD
BRANCH   4   7
ATOM      7  C9  non d ame      -9.858  10.952  68.594  0.00  0.00     0.092 C 
ATOM      8  H11 non d ame      -9.804  10.590  67.567  0.00  0.00     0.088 H 
BRANCH   7   9
ATOM      9  N3  non d ame      -8.591  11.633  68.880  0.00  0.00    -0.346 N 
ATOM     10  C7  non d ame      -7.697  11.973  67.801  0.00  0.00     0.240 C 
ATOM     11  O3  non d ame      -7.980  11.705  66.697  0.00  0.00    -0.271 OA
ATOM     12  H10 non d ame      -8.332  11.868  69.827  0.00  0.00     0.163 HD
BRANCH  10  13
ATOM     13  C6  non d ame      -6.349  12.695  68.111  0.00  0.00     0.086 C 
ATOM     14  H6  non d ame      -6.368  13.753  67.853  0.00  0.00     0.086 H 
BRANCH  13  15
ATOM     15  N2  non d ame      -6.092  12.619  69.540  0.00  0.00    -0.343 N 
ATOM     16  C5  non d ame      -5.191  13.591  70.163  0.00  0.00     0.273 C 
ATOM     17  O2  non d ame      -4.676  14.428  69.506  0.00  0.00    -0.266 OA
ATOM     18  H5  non d ame      -6.534  11.899  70.093  0.00  0.00     0.163 HD
BRANCH  16  19
ATOM     19  C4  non d ame      -4.911  13.524  71.672  0.00  0.00     0.154 A 
ATOM     20  C1  non d ame      -3.636  13.408  72.311  0.00  0.00    -0.017 A 
ATOM     21  C2  non d ame      -3.923  13.388  73.695  0.00  0.00     0.077 A 
ATOM     22  H1  non d ame      -2.653  13.347  71.843  0.00  0.00     0.091 H 
ATOM     23  O1  non d ame      -5.214  13.484  73.824  0.00  0.00    -0.218 OA
ATOM     24  N1  non d ame      -5.812  13.564  72.658  0.00  0.00    -0.123 NA
BRANCH  21  25
ATOM     25  C3  non d ame      -2.908  13.277  74.824  0.00  0.00    -0.029 C 
ATOM     26  H2  non d ame      -2.174  14.078  74.734  0.00  0.00     0.036 H 
ATOM     27  H3  non d ame      -3.421  13.360  75.783  0.00  0.00     0.036 H 
ATOM     28  H4  non d ame      -2.402  12.312  74.766  0.00  0.00     0.036 H 
ENDBRANCH  21  25
ENDBRANCH  16  19
ENDBRANCH  13  15
BRANCH  13  29
ATOM     29  C8  non d ame      -5.231  12.028  67.349  0.00  0.00    -0.049 C 
ATOM     30  H7  non d ame      -5.569  11.793  66.340  0.00  0.00     0.030 H 
ATOM     31  H8  non d ame      -4.375  12.700  67.299  0.00  0.00     0.030 H 
ATOM     32  H9  non d ame      -4.943  11.109  67.858  0.00  0.00     0.030 H 
ENDBRANCH  13  29
ENDBRANCH  10  13
ENDBRANCH   7   9
BRANCH   7  33
ATOM     33  C11 non d ame     -10.062   9.793  69.614  0.00  0.00    -0.033 C 
ATOM     34  H12 non d ame     -10.339   8.903  69.049  0.00  0.00     0.042 H 
BRANCH  33  35
ATOM     35  C12 non d ame      -8.741   9.471  70.380  0.00  0.00    -0.071 C 
ATOM     36  H13 non d ame      -8.074  10.331  70.332  0.00  0.00     0.028 H 
ATOM     37  H14 non d ame      -8.971   9.248  71.422  0.00  0.00     0.028 H 
ATOM     38  H15 non d ame      -8.257   8.609  69.922  0.00  0.00     0.028 H 
ENDBRANCH  33  35
BRANCH  33  39
ATOM     39  C13 non d ame     -11.226  10.119  70.604  0.00  0.00    -0.071 C 
ATOM     40  H16 non d ame     -10.861  10.053  71.629  0.00  0.00     0.028 H 
ATOM     41  H17 non d ame     -11.594  11.128  70.414  0.00  0.00     0.028 H 
ATOM     42  H18 non d ame     -12.036   9.404  70.460  0.00  0.00     0.028 H 
ENDBRANCH  33  39
ENDBRANCH   7  33
ENDBRANCH   4   7
ENDBRANCH   1   3
BRANCH   1  43
ATOM     43  C15 non d ame     -11.755  15.180  68.734  0.00  0.00     0.240 C 
ATOM     44  O5  non d ame     -12.143  16.281  68.958  0.00  0.00    -0.271 OA
ATOM     45  N6  non d ame     -11.065  14.884  67.447  0.00  0.00    -0.355 N 
ATOM     46  H46 non d ame     -10.726  13.954  67.248  0.00  0.00     0.162 HD
BRANCH  45  47
ATOM     47  C20 non d ame     -10.874  15.962  66.453  0.00  0.00     0.013 C 
ATOM     48  H30 non d ame     -11.700  16.665  66.558  0.00  0.00     0.072 H 
BRANCH  47  49
ATOM     49  C21 non d ame     -10.877  15.367  65.063  0.00  0.00    -0.038 C 
ATOM     50  H31 non d ame     -11.925  15.322  64.764  0.00  0.00     0.036 H 
ATOM     51  H32 non d ame     -10.170  15.963  64.486  0.00  0.00     0.036 H 
BRANCH  49  52
ATOM     52  C22 non d ame     -10.352  13.915  65.032  0.00  0.00     0.018 C 
ATOM     53  H33 non d ame      -9.634  13.878  64.211  0.00  0.00     0.048 H 
ATOM     54  H34 non d ame     -10.028  13.696  66.049  0.00  0.00     0.048 H 
BRANCH  52  55
ATOM     55  C23 non d ame     -11.443  12.861  64.694  0.00  0.00     0.259 C 
ATOM     56  O7  non d ame     -12.521  12.930  65.189  0.00  0.00    -0.265 OA
BRANCH  55  57
ATOM     57  O8  non d ame     -11.135  11.803  63.795  0.00  0.00    -0.317 OA
BRANCH  57  58
ATOM     58  C29 non d ame     -10.467  10.696  64.405  0.00  0.00     0.052 C 
ATOM     59  H47 non d ame     -10.022  11.088  65.320  0.00  0.00     0.082 H 
ATOM     60  H48 non d ame     -11.206   9.897  64.458  0.00  0.00     0.082 H 
BRANCH  58  61
ATOM     61  C35 non d ame      -9.324  10.244  63.458  0.00  0.00    -0.034 A 
ATOM     62  C30 non d ame      -8.887  11.089  62.442  0.00  0.00    -0.075 A 
ATOM     63  C31 non d ame      -7.860  10.683  61.590  0.00  0.00    -0.082 A 
ATOM     64  H49 non d ame      -9.348  12.068  62.313  0.00  0.00     0.084 H 
ATOM     65  C32 non d ame      -7.271   9.427  61.756  0.00  0.00    -0.083 A 
ATOM     66  H50 non d ame      -7.519  11.348  60.797  0.00  0.00     0.083 H 
ATOM     67  C33 non d ame      -7.713   8.586  62.769  0.00  0.00    -0.082 A 
ATOM     68  H51 non d ame      -6.468   9.102  61.095  0.00  0.00     0.083 H 
ATOM     69  C34 non d ame      -8.737   8.988  63.624  0.00  0.00    -0.075 A 
ATOM     70  H52 non d ame      -7.253   7.606  62.894  0.00  0.00     0.083 H 
ATOM     71  H53 non d ame      -9.078   8.323  64.418  0.00  0.00     0.084 H 
ENDBRANCH  58  61
ENDBRANCH  57  58
ENDBRANCH  55  57
ENDBRANCH  52  55
ENDBRANCH  49  52
ENDBRANCH  47  49
BRANCH  47  72
ATOM     72  C24 non d ame      -9.542  16.666  66.703  0.00  0.00    -0.039 C 
ATOM     73  H35 non d ame      -9.075  16.120  67.523  0.00  0.00     0.036 H 
ATOM     74  H36 non d ame      -9.051  16.713  65.731  0.00  0.00     0.036 H 
BRANCH  72  75
ATOM     75  C25 non d ame      -9.753  18.175  67.199  0.00  0.00    -0.001 C 
ATOM     76  C26 non d ame      -8.799  19.190  66.325  0.00  0.00    -0.035 C 
ATOM     77  C27 non d ame      -8.091  19.966  67.179  0.00  0.00     0.085 C 
ATOM     78  H38 non d ame      -8.032  18.622  65.800  0.00  0.00     0.036 H 
ATOM     79  H39 non d ame      -9.416  19.906  65.781  0.00  0.00     0.036 H 
ATOM     80  N5  non d ame      -8.228  19.353  68.551  0.00  0.00    -0.049 N 
ATOM     81  H40 non d ame      -7.052  19.884  66.855  0.00  0.00     0.075 H 
ATOM     82  H41 non d ame      -8.588  20.936  67.172  0.00  0.00     0.075 H 
ATOM     83  C28 non d ame      -9.451  18.303  68.448  0.00  0.00     0.193 C 
ATOM     84  H42 non d ame      -7.376  18.838  68.721  0.00  0.00     0.280 HD
ATOM     85  H43 non d ame      -8.499  20.101  69.173  0.00  0.00     0.280 HD
ATOM     86  H44 non d ame     -10.428  18.548  68.864  0.00  0.00     0.129 H 
ATOM     87  H37 non d ame     -10.808  18.437  67.286  0.00  0.00     0.046 H 
BRANCH  83  88
ATOM     88  O6  non d ame      -9.083  17.058  69.044  0.00  0.00    -0.369 OA
ATOM     89  H45 non d ame      -8.316  17.187  69.607  0.00  0.00     0.212 HD
ENDBRANCH  83  88
ENDBRANCH  72  75
ENDBRANCH  47  72
ENDBRANCH  45  47
ENDBRANCH   1  43
BRANCH   1  90
ATOM     90  C16 non d ame     -11.934  14.659  71.188  0.00  0.00    -0.035 C 
ATOM     91  H21 non d ame     -11.118  14.152  71.704  0.00  0.00     0.037 H 
ATOM     92  H22 non d ame     -11.896  15.738  71.037  0.00  0.00     0.037 H 
BRANCH  90  93
ATOM     93  C17 non d ame     -13.226  14.374  72.018  0.00  0.00    -0.059 C 
ATOM     94  H23 non d ame     -13.047  14.717  73.037  0.00  0.00     0.038 H 
BRANCH  93  95
ATOM     95  C18 non d ame     -14.465  15.150  71.465  0.00  0.00    -0.073 C 
ATOM     96  H24 non d ame     -14.335  15.328  70.398  0.00  0.00     0.028 H 
ATOM     97  H25 non d ame     -15.366  14.558  71.628  0.00  0.00     0.028 H 
ATOM     98  H26 non d ame     -14.557  16.103  71.985  0.00  0.00     0.028 H 
ENDBRANCH  93  95
BRANCH  93  99
ATOM     99  C19 non d ame     -13.511  12.872  72.088  0.00  0.00    -0.073 C 
ATOM    100  H27 non d ame     -12.581  12.333  72.272  0.00  0.00     0.028 H 
ATOM    101  H28 non d ame     -14.213  12.673  72.898  0.00  0.00     0.028 H 
ATOM    102  H29 non d ame     -13.943  12.539  71.144  0.00  0.00     0.028 H 
ENDBRANCH  93  99
ENDBRANCH  90  93
ENDBRANCH   1  90
TORSDOF 26
ENDMDL
MODEL 13
REMARK VINA RESULT:      -6.5      3.165      7.992
REMARK  26 active torsions:
REMARK  status: ('A' for Active; 'I' for Inactive)
REMARK    1  A    between atoms: C2_2  and  C3_3 
REMARK    2  A    between atoms: C4_6  and  C5_7 
REMARK       I    between atoms: C5_7  and  N2_9 
REMARK    3  A    between atoms: N2_9  and  C6_10 
REMARK    4  A    between atoms: C6_10  and  C7_11 
REMARK    5  A    between atoms: C6_10  and  C8_13 
REMARK       I    between atoms: C7_11  and  N3_14 
REMARK    6  A    between atoms: N3_14  and  C9_15 
REMARK    7  A    between atoms: C9_15  and  C10_16 
REMARK    8  A    between atoms: C9_15  and  C11_18 
REMARK       I    between atoms: C10_16  and  N4_21 
REMARK    9  A    between atoms: C11_18  and  C12_19 
REMARK   10  A    between atoms: C11_18  and  C13_20 
REMARK   11  A    between atoms: N4_21  and  C14_22 
REMARK   12  A    between atoms: C14_22  and  C15_23 
REMARK   13  A    between atoms: C14_22  and  C16_25 
REMARK       I    between atoms: C15_23  and  N6_40 
REMARK   14  A    between atoms: C16_25  and  C17_26 
REMARK   15  A    between atoms: C17_26  and  C18_27 
REMARK   16  A    between atoms: C17_26  and  C19_28 
REMARK   17  A    between atoms: C20_29  and  C21_30 
REMARK   18  A    between atoms: C20_29  and  C24_33 
REMARK   19  A    between atoms: C20_29  and  N6_40 
REMARK   20  A    between atoms: C21_30  and  C22_31 
REMARK   21  A    between atoms: C22_31  and  C23_32 
REMARK   22  A    between atoms: C23_32  and  O8_43 
REMARK   23  A    between atoms: C24_33  and  C25_34 
REMARK   24  A    between atoms: C28_38  and  O6_39 
REMARK   25  A    between atoms: C29_42  and  O8_43 
REMARK   26  A    between atoms: C29_42  and  C35_49 
ROOT
ATOM      1  C14 non d ame      -8.598   9.700  66.372  0.00  0.00     0.089 C 
ATOM      2  H20 non d ame      -7.763   9.801  67.066  0.00  0.00     0.087 H 
ENDROOT
BRANCH   1   3
ATOM      3  N4  non d ame      -8.891   8.281  66.243  0.00  0.00    -0.346 N 
ATOM      4  C10 non d ame      -7.787   7.261  66.361  0.00  0.00     0.241 C 
ATOM      5  O4  non d ame      -6.668   7.607  66.556  0.00  0.00    -0.271 OA
ATOM      6  H19 non d ame      -9.849   8.007  66.075  0.00  0.00     0.163 HD
BRANCH   4   7
ATOM      7  C9  non d ame      -8.109   5.795  66.231  0.00  0.00     0.092 C 
ATOM      8  H11 non d ame      -7.181   5.227  66.181  0.00  0.00     0.088 H 
BRANCH   7   9
ATOM      9  N3  non d ame      -8.830   5.345  67.426  0.00  0.00    -0.346 N 
ATOM     10  C7  non d ame      -8.113   4.701  68.499  0.00  0.00     0.240 C 
ATOM     11  O3  non d ame      -6.958   4.535  68.417  0.00  0.00    -0.271 OA
ATOM     12  H10 non d ame      -9.827   5.480  67.510  0.00  0.00     0.163 HD
BRANCH  10  13
ATOM     13  C6  non d ame      -8.886   4.221  69.767  0.00  0.00     0.086 C 
ATOM     14  H6  non d ame      -8.279   4.260  70.671  0.00  0.00     0.086 H 
BRANCH  13  15
ATOM     15  N2  non d ame     -10.020   5.103  69.989  0.00  0.00    -0.343 N 
ATOM     16  C5  non d ame     -10.056   5.943  71.188  0.00  0.00     0.273 C 
ATOM     17  O2  non d ame      -9.170   5.900  71.969  0.00  0.00    -0.266 OA
ATOM     18  H5  non d ame     -10.775   5.131  69.318  0.00  0.00     0.163 HD
BRANCH  16  19
ATOM     19  C4  non d ame     -11.248   6.881  71.435  0.00  0.00     0.154 A 
ATOM     20  C1  non d ame     -11.238   8.312  71.431  0.00  0.00    -0.017 A 
ATOM     21  C2  non d ame     -12.572   8.686  71.708  0.00  0.00     0.077 A 
ATOM     22  H1  non d ame     -10.392   8.977  71.254  0.00  0.00     0.091 H 
ATOM     23  O1  non d ame     -13.259   7.591  71.852  0.00  0.00    -0.218 OA
ATOM     24  N1  non d ame     -12.509   6.524  71.697  0.00  0.00    -0.123 NA
BRANCH  21  25
ATOM     25  C3  non d ame     -13.105  10.108  71.817  0.00  0.00    -0.029 C 
ATOM     26  H2  non d ame     -12.324  10.812  71.530  0.00  0.00     0.036 H 
ATOM     27  H3  non d ame     -13.963  10.226  71.155  0.00  0.00     0.036 H 
ATOM     28  H4  non d ame     -13.410  10.304  72.846  0.00  0.00     0.036 H 
ENDBRANCH  21  25
ENDBRANCH  16  19
ENDBRANCH  13  15
BRANCH  13  29
ATOM     29  C8  non d ame      -9.364   2.806  69.562  0.00  0.00    -0.049 C 
ATOM     30  H7  non d ame      -8.848   2.368  68.708  0.00  0.00     0.030 H 
ATOM     31  H8  non d ame      -9.153   2.218  70.455  0.00  0.00     0.030 H 
ATOM     32  H9  non d ame     -10.438   2.809  69.374  0.00  0.00     0.030 H 
ENDBRANCH  13  29
ENDBRANCH  10  13
ENDBRANCH   7   9
BRANCH   7  33
ATOM     33  C11 non d ame      -9.002   5.570  64.975  0.00  0.00    -0.033 C 
ATOM     34  H12 non d ame      -9.683   6.418  64.900  0.00  0.00     0.042 H 
BRANCH  33  35
ATOM     35  C12 non d ame      -8.148   5.538  63.669  0.00  0.00    -0.071 C 
ATOM     36  H13 non d ame      -8.582   6.215  62.934  0.00  0.00     0.028 H 
ATOM     37  H14 non d ame      -7.129   5.852  63.894  0.00  0.00     0.028 H 
ATOM     38  H15 non d ame      -8.136   4.525  63.269  0.00  0.00     0.028 H 
ENDBRANCH  33  35
BRANCH  33  39
ATOM     39  C13 non d ame      -9.859   4.273  65.124  0.00  0.00    -0.071 C 
ATOM     40  H16 non d ame     -10.906   4.505  64.929  0.00  0.00     0.028 H 
ATOM     41  H17 non d ame      -9.514   3.525  64.409  0.00  0.00     0.028 H 
ATOM     42  H18 non d ame      -9.756   3.883  66.136  0.00  0.00     0.028 H 
ENDBRANCH  33  39
ENDBRANCH   7  33
ENDBRANCH   4   7
ENDBRANCH   1   3
BRANCH   1  43
ATOM     43  C15 non d ame      -9.876  10.426  66.881  0.00  0.00     0.240 C 
ATOM     44  O5  non d ame     -10.700   9.819  67.483  0.00  0.00    -0.271 OA
ATOM     45  N6  non d ame     -10.068  11.882  66.624  0.00  0.00    -0.355 N 
ATOM     46  H46 non d ame      -9.372  12.410  66.118  0.00  0.00     0.162 HD
BRANCH  45  47
ATOM     47  C20 non d ame     -11.288  12.558  67.116  0.00  0.00     0.013 C 
ATOM     48  H30 non d ame     -11.908  11.812  67.613  0.00  0.00     0.072 H 
BRANCH  47  49
ATOM     49  C21 non d ame     -12.035  13.154  65.944  0.00  0.00    -0.038 C 
ATOM     50  H31 non d ame     -12.455  12.307  65.401  0.00  0.00     0.036 H 
ATOM     51  H32 non d ame     -12.695  13.910  66.371  0.00  0.00     0.036 H 
BRANCH  49  52
ATOM     52  C22 non d ame     -11.108  13.892  64.954  0.00  0.00     0.018 C 
ATOM     53  H33 non d ame     -10.187  14.090  65.504  0.00  0.00     0.048 H 
ATOM     54  H34 non d ame     -11.084  13.274  64.056  0.00  0.00     0.048 H 
BRANCH  52  55
ATOM     55  C23 non d ame     -11.647  15.279  64.506  0.00  0.00     0.259 C 
ATOM     56  O7  non d ame     -12.699  15.369  63.961  0.00  0.00    -0.265 OA
BRANCH  55  57
ATOM     57  O8  non d ame     -10.862  16.441  64.743  0.00  0.00    -0.317 OA
BRANCH  57  58
ATOM     58  C29 non d ame      -9.937  16.308  65.825  0.00  0.00     0.052 C 
ATOM     59  H47 non d ame     -10.336  15.516  66.460  0.00  0.00     0.082 H 
ATOM     60  H48 non d ame      -8.957  16.193  65.363  0.00  0.00     0.082 H 
BRANCH  58  61
ATOM     61  C35 non d ame      -9.947  17.635  66.630  0.00  0.00    -0.034 A 
ATOM     62  C30 non d ame      -9.436  17.669  67.924  0.00  0.00    -0.075 A 
ATOM     63  C31 non d ame      -9.445  18.860  68.647  0.00  0.00    -0.082 A 
ATOM     64  H49 non d ame      -9.027  16.762  68.370  0.00  0.00     0.084 H 
ATOM     65  C32 non d ame      -9.971  20.021  68.073  0.00  0.00    -0.083 A 
ATOM     66  H50 non d ame      -9.041  18.884  69.659  0.00  0.00     0.083 H 
ATOM     67  C33 non d ame     -10.483  19.981  66.783  0.00  0.00    -0.082 A 
ATOM     68  H51 non d ame      -9.981  20.957  68.631  0.00  0.00     0.083 H 
ATOM     69  C34 non d ame     -10.473  18.793  66.056  0.00  0.00    -0.075 A 
ATOM     70  H52 non d ame     -10.894  20.888  66.339  0.00  0.00     0.083 H 
ATOM     71  H53 non d ame     -10.876  18.770  65.043  0.00  0.00     0.084 H 
ENDBRANCH  58  61
ENDBRANCH  57  58
ENDBRANCH  55  57
ENDBRANCH  52  55
ENDBRANCH  49  52
ENDBRANCH  47  49
BRANCH  47  72
ATOM     72  C24 non d ame     -10.905  13.667  68.094  0.00  0.00    -0.039 C 
ATOM     73  H35 non d ame     -10.179  13.218  68.772  0.00  0.00     0.036 H 
ATOM     74  H36 non d ame     -10.619  14.516  67.473  0.00  0.00     0.036 H 
BRANCH  72  75
ATOM     75  C25 non d ame     -12.155  14.132  68.982  0.00  0.00    -0.001 C 
ATOM     76  C26 non d ame     -11.984  15.711  69.407  0.00  0.00    -0.035 C 
ATOM     77  C27 non d ame     -12.147  15.822  70.747  0.00  0.00     0.085 C 
ATOM     78  H38 non d ame     -10.955  16.031  69.248  0.00  0.00     0.036 H 
ATOM     79  H39 non d ame     -12.807  16.299  69.001  0.00  0.00     0.036 H 
ATOM     80  N5  non d ame     -12.089  14.425  71.316  0.00  0.00    -0.049 N 
ATOM     81  H40 non d ame     -11.283  16.386  71.100  0.00  0.00     0.075 H 
ATOM     82  H41 non d ame     -13.152  16.220  70.886  0.00  0.00     0.075 H 
ATOM     83  C28 non d ame     -12.252  13.426  70.059  0.00  0.00     0.193 C 
ATOM     84  H42 non d ame     -11.162  14.311  71.700  0.00  0.00     0.280 HD
ATOM     85  H43 non d ame     -12.898  14.325  71.913  0.00  0.00     0.280 HD
ATOM     86  H44 non d ame     -13.197  12.914  69.877  0.00  0.00     0.129 H 
ATOM     87  H37 non d ame     -13.108  13.837  68.540  0.00  0.00     0.046 H 
BRANCH  83  88
ATOM     88  O6  non d ame     -11.265  12.395  70.118  0.00  0.00    -0.369 OA
ATOM     89  H45 non d ame     -10.832  12.414  70.974  0.00  0.00     0.212 HD
ENDBRANCH  83  88
ENDBRANCH  72  75
ENDBRANCH  47  72
ENDBRANCH  45  47
ENDBRANCH   1  43
BRANCH   1  90
ATOM     90  C16 non d ame      -8.205  10.251  65.010  0.00  0.00    -0.035 C 
ATOM     91  H21 non d ame      -8.381  11.325  65.071  0.00  0.00     0.037 H 
ATOM     92  H22 non d ame      -7.199   9.874  64.826  0.00  0.00     0.037 H 
BRANCH  90  93
ATOM     93  C17 non d ame      -9.095   9.724  63.840  0.00  0.00    -0.059 C 
ATOM     94  H23 non d ame      -9.766   8.969  64.250  0.00  0.00     0.038 H 
BRANCH  93  95
ATOM     95  C18 non d ame      -9.974  10.853  63.213  0.00  0.00    -0.073 C 
ATOM     96  H24 non d ame      -9.581  11.115  62.231  0.00  0.00     0.028 H 
ATOM     97  H25 non d ame     -11.001  10.501  63.112  0.00  0.00     0.028 H 
ATOM     98  H26 non d ame      -9.953  11.731  63.860  0.00  0.00     0.028 H 
ENDBRANCH  93  95
BRANCH  93  99
ATOM     99  C19 non d ame      -8.242   9.040  62.769  0.00  0.00    -0.073 C 
ATOM    100  H27 non d ame      -8.817   8.239  62.303  0.00  0.00     0.028 H 
ATOM    101  H28 non d ame      -7.955   9.770  62.012  0.00  0.00     0.028 H 
ATOM    102  H29 non d ame      -7.346   8.624  63.229  0.00  0.00     0.028 H 
ENDBRANCH  93  99
ENDBRANCH  90  93
ENDBRANCH   1  90
TORSDOF 26
ENDMDL
MODEL 14
REMARK VINA RESULT:      -6.4      2.346      6.547
REMARK  26 active torsions:
REMARK  status: ('A' for Active; 'I' for Inactive)
REMARK    1  A    between atoms: C2_2  and  C3_3 
REMARK    2  A    between atoms: C4_6  and  C5_7 
REMARK       I    between atoms: C5_7  and  N2_9 
REMARK    3  A    between atoms: N2_9  and  C6_10 
REMARK    4  A    between atoms: C6_10  and  C7_11 
REMARK    5  A    between atoms: C6_10  and  C8_13 
REMARK       I    between atoms: C7_11  and  N3_14 
REMARK    6  A    between atoms: N3_14  and  C9_15 
REMARK    7  A    between atoms: C9_15  and  C10_16 
REMARK    8  A    between atoms: C9_15  and  C11_18 
REMARK       I    between atoms: C10_16  and  N4_21 
REMARK    9  A    between atoms: C11_18  and  C12_19 
REMARK   10  A    between atoms: C11_18  and  C13_20 
REMARK   11  A    between atoms: N4_21  and  C14_22 
REMARK   12  A    between atoms: C14_22  and  C15_23 
REMARK   13  A    between atoms: C14_22  and  C16_25 
REMARK       I    between atoms: C15_23  and  N6_40 
REMARK   14  A    between atoms: C16_25  and  C17_26 
REMARK   15  A    between atoms: C17_26  and  C18_27 
REMARK   16  A    between atoms: C17_26  and  C19_28 
REMARK   17  A    between atoms: C20_29  and  C21_30 
REMARK   18  A    between atoms: C20_29  and  C24_33 
REMARK   19  A    between atoms: C20_29  and  N6_40 
REMARK   20  A    between atoms: C21_30  and  C22_31 
REMARK   21  A    between atoms: C22_31  and  C23_32 
REMARK   22  A    between atoms: C23_32  and  O8_43 
REMARK   23  A    between atoms: C24_33  and  C25_34 
REMARK   24  A    between atoms: C28_38  and  O6_39 
REMARK   25  A    between atoms: C29_42  and  O8_43 
REMARK   26  A    between atoms: C29_42  and  C35_49 
ROOT
ATOM      1  C14 non d ame      -8.238  16.904  66.355  0.00  0.00     0.089 C 
ATOM      2  H20 non d ame      -8.267  17.146  65.292  0.00  0.00     0.087 H 
ENDROOT
BRANCH   1   3
ATOM      3  N4  non d ame      -8.724  15.541  66.507  0.00  0.00    -0.346 N 
ATOM      4  C10 non d ame      -9.908  15.061  65.706  0.00  0.00     0.241 C 
ATOM      5  O4  non d ame     -10.454  15.790  64.946  0.00  0.00    -0.271 OA
ATOM      6  H19 non d ame      -8.247  14.937  67.161  0.00  0.00     0.163 HD
BRANCH   4   7
ATOM      7  C9  non d ame     -10.394  13.645  65.872  0.00  0.00     0.092 C 
ATOM      8  H11 non d ame      -9.557  13.010  66.162  0.00  0.00     0.088 H 
BRANCH   7   9
ATOM      9  N3  non d ame     -11.376  13.590  66.959  0.00  0.00    -0.346 N 
ATOM     10  C7  non d ame     -10.941  13.701  68.330  0.00  0.00     0.240 C 
ATOM     11  O3  non d ame      -9.804  13.834  68.576  0.00  0.00    -0.271 OA
ATOM     12  H10 non d ame     -12.360  13.474  66.763  0.00  0.00     0.163 HD
BRANCH  10  13
ATOM     13  C6  non d ame     -11.990  13.639  69.483  0.00  0.00     0.086 C 
ATOM     14  H6  non d ame     -13.013  13.556  69.118  0.00  0.00     0.086 H 
BRANCH  13  15
ATOM     15  N2  non d ame     -11.738  12.453  70.286  0.00  0.00    -0.343 N 
ATOM     16  C5  non d ame     -11.968  11.128  69.707  0.00  0.00     0.273 C 
ATOM     17  O2  non d ame     -12.358  11.026  68.596  0.00  0.00    -0.266 OA
ATOM     18  H5  non d ame     -11.408  12.550  71.236  0.00  0.00     0.163 HD
BRANCH  16  19
ATOM     19  C4  non d ame     -11.705   9.866  70.544  0.00  0.00     0.154 A 
ATOM     20  C1  non d ame     -10.902   8.739  70.179  0.00  0.00    -0.017 A 
ATOM     21  C2  non d ame     -10.985   7.862  71.284  0.00  0.00     0.077 A 
ATOM     22  H1  non d ame     -10.345   8.582  69.256  0.00  0.00     0.091 H 
ATOM     23  O1  non d ame     -11.747   8.429  72.173  0.00  0.00    -0.218 OA
ATOM     24  N1  non d ame     -12.179   9.599  71.764  0.00  0.00    -0.123 NA
BRANCH  21  25
ATOM     25  C3  non d ame     -10.306   6.504  71.409  0.00  0.00    -0.029 C 
ATOM     26  H2  non d ame      -9.307   6.634  71.826  0.00  0.00     0.036 H 
ATOM     27  H3  non d ame     -10.894   5.864  72.067  0.00  0.00     0.036 H 
ATOM     28  H4  non d ame     -10.232   6.042  70.425  0.00  0.00     0.036 H 
ENDBRANCH  21  25
ENDBRANCH  16  19
ENDBRANCH  13  15
BRANCH  13  29
ATOM     29  C8  non d ame     -11.876  14.875  70.338  0.00  0.00    -0.049 C 
ATOM     30  H7  non d ame     -12.782  14.992  70.932  0.00  0.00     0.030 H 
ATOM     31  H8  non d ame     -11.016  14.780  71.001  0.00  0.00     0.030 H 
ATOM     32  H9  non d ame     -11.747  15.748  69.698  0.00  0.00     0.030 H 
ENDBRANCH  13  29
ENDBRANCH  10  13
ENDBRANCH   7   9
BRANCH   7  33
ATOM     33  C11 non d ame     -11.062  13.167  64.550  0.00  0.00    -0.033 C 
ATOM     34  H12 non d ame     -11.234  14.048  63.931  0.00  0.00     0.042 H 
BRANCH  33  35
ATOM     35  C12 non d ame     -10.122  12.211  63.751  0.00  0.00    -0.071 C 
ATOM     36  H13 non d ame     -10.699  11.685  62.991  0.00  0.00     0.028 H 
ATOM     37  H14 non d ame      -9.335  12.793  63.272  0.00  0.00     0.028 H 
ATOM     38  H15 non d ame      -9.676  11.488  64.434  0.00  0.00     0.028 H 
ENDBRANCH  33  35
BRANCH  33  39
ATOM     39  C13 non d ame     -12.445  12.497  64.831  0.00  0.00    -0.071 C 
ATOM     40  H16 non d ame     -12.536  12.286  65.896  0.00  0.00     0.028 H 
ATOM     41  H17 non d ame     -13.245  13.171  64.525  0.00  0.00     0.028 H 
ATOM     42  H18 non d ame     -12.518  11.566  64.268  0.00  0.00     0.028 H 
ENDBRANCH  33  39
ENDBRANCH   7  33
ENDBRANCH   4   7
ENDBRANCH   1   3
BRANCH   1  43
ATOM     43  C15 non d ame      -6.797  16.984  66.936  0.00  0.00     0.240 C 
ATOM     44  O5  non d ame      -5.882  17.223  66.216  0.00  0.00    -0.271 OA
ATOM     45  N6  non d ame      -6.559  16.770  68.392  0.00  0.00    -0.355 N 
ATOM     46  H46 non d ame      -7.328  16.572  69.014  0.00  0.00     0.162 HD
BRANCH  45  47
ATOM     47  C20 non d ame      -5.183  16.851  68.929  0.00  0.00     0.013 C 
ATOM     48  H30 non d ame      -4.549  17.295  68.161  0.00  0.00     0.072 H 
BRANCH  47  49
ATOM     49  C21 non d ame      -4.694  15.459  69.260  0.00  0.00    -0.038 C 
ATOM     50  H31 non d ame      -3.819  15.296  68.631  0.00  0.00     0.036 H 
ATOM     51  H32 non d ame      -4.598  15.432  70.346  0.00  0.00     0.036 H 
BRANCH  49  52
ATOM     52  C22 non d ame      -5.712  14.361  68.885  0.00  0.00     0.018 C 
ATOM     53  H33 non d ame      -5.757  13.693  69.745  0.00  0.00     0.048 H 
ATOM     54  H34 non d ame      -6.608  14.888  68.557  0.00  0.00     0.048 H 
BRANCH  52  55
ATOM     55  C23 non d ame      -5.270  13.481  67.682  0.00  0.00     0.259 C 
ATOM     56  O7  non d ame      -4.136  13.472  67.327  0.00  0.00    -0.265 OA
BRANCH  55  57
ATOM     57  O8  non d ame      -6.239  12.695  67.000  0.00  0.00    -0.317 OA
BRANCH  57  58
ATOM     58  C29 non d ame      -7.060  11.904  67.864  0.00  0.00     0.052 C 
ATOM     59  H47 non d ame      -6.370  11.345  68.497  0.00  0.00     0.082 H 
ATOM     60  H48 non d ame      -7.770  12.599  68.314  0.00  0.00     0.082 H 
BRANCH  58  61
ATOM     61  C35 non d ame      -7.848  10.896  66.986  0.00  0.00    -0.034 A 
ATOM     62  C30 non d ame      -7.262  10.361  65.844  0.00  0.00    -0.075 A 
ATOM     63  C31 non d ame      -7.970   9.456  65.055  0.00  0.00    -0.082 A 
ATOM     64  H49 non d ame      -6.248  10.650  65.567  0.00  0.00     0.084 H 
ATOM     65  C32 non d ame      -9.271   9.088  65.410  0.00  0.00    -0.083 A 
ATOM     66  H50 non d ame      -7.507   9.036  64.161  0.00  0.00     0.083 H 
ATOM     67  C33 non d ame      -9.853   9.628  66.549  0.00  0.00    -0.082 A 
ATOM     68  H51 non d ame      -9.831   8.381  64.799  0.00  0.00     0.083 H 
ATOM     69  C34 non d ame      -9.148  10.531  67.342  0.00  0.00    -0.075 A 
ATOM     70  H52 non d ame     -10.868   9.341  66.822  0.00  0.00     0.083 H 
ATOM     71  H53 non d ame      -9.612  10.950  68.235  0.00  0.00     0.084 H 
ENDBRANCH  58  61
ENDBRANCH  57  58
ENDBRANCH  55  57
ENDBRANCH  52  55
ENDBRANCH  49  52
ENDBRANCH  47  49
BRANCH  47  72
ATOM     72  C24 non d ame      -5.170  17.710  70.191  0.00  0.00    -0.039 C 
ATOM     73  H35 non d ame      -5.768  17.163  70.921  0.00  0.00     0.036 H 
ATOM     74  H36 non d ame      -4.119  17.916  70.392  0.00  0.00     0.036 H 
BRANCH  72  75
ATOM     75  C25 non d ame      -5.891  19.122  69.954  0.00  0.00    -0.001 C 
ATOM     76  C26 non d ame      -5.240  19.870  68.642  0.00  0.00    -0.035 C 
ATOM     77  C27 non d ame      -4.889  21.131  68.989  0.00  0.00     0.085 C 
ATOM     78  H38 non d ame      -4.290  19.404  68.380  0.00  0.00     0.036 H 
ATOM     79  H39 non d ame      -6.004  20.018  67.879  0.00  0.00     0.036 H 
ATOM     80  N5  non d ame      -4.939  21.205  70.496  0.00  0.00    -0.049 N 
ATOM     81  H40 non d ame      -3.855  21.247  68.662  0.00  0.00     0.075 H 
ATOM     82  H41 non d ame      -5.666  21.773  68.576  0.00  0.00     0.075 H 
ATOM     83  C28 non d ame      -5.751  19.896  70.978  0.00  0.00     0.193 C 
ATOM     84  H42 non d ame      -3.984  21.128  70.818  0.00  0.00     0.280 HD
ATOM     85  H43 non d ame      -5.485  22.024  70.725  0.00  0.00     0.280 HD
ATOM     86  H44 non d ame      -6.786  19.977  71.309  0.00  0.00     0.129 H 
ATOM     87  H37 non d ame      -6.977  19.042  69.991  0.00  0.00     0.046 H 
BRANCH  83  88
ATOM     88  O6  non d ame      -5.057  19.252  72.049  0.00  0.00    -0.369 OA
ATOM     89  H45 non d ame      -4.808  18.365  71.781  0.00  0.00     0.212 HD
ENDBRANCH  83  88
ENDBRANCH  72  75
ENDBRANCH  47  72
ENDBRANCH  45  47
ENDBRANCH   1  43
BRANCH   1  90
ATOM     90  C16 non d ame      -9.151  17.846  67.123  0.00  0.00    -0.035 C 
ATOM     91  H21 non d ame     -10.159  17.460  66.970  0.00  0.00     0.037 H 
ATOM     92  H22 non d ame      -8.734  17.895  68.129  0.00  0.00     0.037 H 
BRANCH  90  93
ATOM     93  C17 non d ame      -9.150  19.308  66.573  0.00  0.00    -0.059 C 
ATOM     94  H23 non d ame      -8.339  19.388  65.849  0.00  0.00     0.038 H 
BRANCH  93  95
ATOM     95  C18 non d ame     -10.482  19.661  65.836  0.00  0.00    -0.073 C 
ATOM     96  H24 non d ame     -10.279  19.828  64.779  0.00  0.00     0.028 H 
ATOM     97  H25 non d ame     -11.187  18.836  65.946  0.00  0.00     0.028 H 
ATOM     98  H26 non d ame     -10.909  20.564  66.272  0.00  0.00     0.028 H 
ENDBRANCH  93  95
BRANCH  93  99
ATOM     99  C19 non d ame      -8.863  20.313  67.691  0.00  0.00    -0.073 C 
ATOM    100  H27 non d ame      -9.388  21.246  67.485  0.00  0.00     0.028 H 
ATOM    101  H28 non d ame      -9.206  19.905  68.642  0.00  0.00     0.028 H 
ATOM    102  H29 non d ame      -7.791  20.502  67.743  0.00  0.00     0.028 H 
ENDBRANCH  93  99
ENDBRANCH  90  93
ENDBRANCH   1  90
TORSDOF 26
ENDMDL
