REMARK  26 active torsions:
REMARK  status: ('A' for Active; 'I' for Inactive)
REMARK    1  A    between atoms: C2_2  and  C3_3 
REMARK    2  A    between atoms: C4_6  and  C5_7 
REMARK       I    between atoms: C5_7  and  N2_9 
REMARK    3  A    between atoms: N2_9  and  C6_10 
REMARK    4  A    between atoms: C6_10  and  C7_11 
REMARK    5  A    between atoms: C6_10  and  C8_13 
REMARK       I    between atoms: C7_11  and  N3_14 
REMARK    6  A    between atoms: N3_14  and  C9_15 
REMARK    7  A    between atoms: C9_15  and  C10_16 
REMARK    8  A    between atoms: C9_15  and  C11_18 
REMARK       I    between atoms: C10_16  and  N4_21 
REMARK    9  A    between atoms: C11_18  and  C12_19 
REMARK   10  A    between atoms: C11_18  and  C13_20 
REMARK   11  A    between atoms: N4_21  and  C14_22 
REMARK   12  A    between atoms: C14_22  and  C15_23 
REMARK   13  A    between atoms: C14_22  and  C16_25 
REMARK       I    between atoms: C15_23  and  N6_40 
REMARK   14  A    between atoms: C16_25  and  C17_26 
REMARK   15  A    between atoms: C17_26  and  C18_27 
REMARK   16  A    between atoms: C17_26  and  C19_28 
REMARK   17  A    between atoms: C20_29  and  C21_30 
REMARK   18  A    between atoms: C20_29  and  C24_33 
REMARK   19  A    between atoms: C20_29  and  N6_40 
REMARK   20  A    between atoms: C21_30  and  C22_31 
REMARK   21  A    between atoms: C22_31  and  C23_32 
REMARK   22  A    between atoms: C23_32  and  O8_43 
REMARK   23  A    between atoms: C24_33  and  C25_34 
REMARK   24  A    between atoms: C28_38  and  O6_39 
REMARK   25  A    between atoms: C29_42  and  O8_43 
REMARK   26  A    between atoms: C29_42  and  C35_49 
ROOT
ATOM      1  C14 non d ame     -12.124  14.096  69.716  0.00  0.00     0.089 C 
ATOM      2  H20 non d ame     -13.195  13.893  69.691  0.00  0.00     0.087 H 
ENDROOT
BRANCH   1   3
ATOM      3  N4  non d ame     -11.452  12.859  70.085  0.00  0.00    -0.346 N 
ATOM      4  C10 non d ame     -11.663  11.606  69.273  0.00  0.00     0.241 C 
ATOM      5  O4  non d ame     -12.381  11.617  68.328  0.00  0.00    -0.271 OA
ATOM      6  H19 non d ame     -10.847  12.870  70.894  0.00  0.00     0.163 HD
BRANCH   4   7
ATOM      7  C9  non d ame     -10.955  10.336  69.666  0.00  0.00     0.092 C 
ATOM      8  H11 non d ame     -10.419  10.499  70.601  0.00  0.00     0.088 H 
BRANCH   7   9
ATOM      9  N3  non d ame     -11.943   9.281  69.911  0.00  0.00    -0.346 N 
ATOM     10  C7  non d ame     -12.115   8.750  71.241  0.00  0.00     0.240 C 
ATOM     11  O3  non d ame     -11.466   9.159  72.125  0.00  0.00    -0.271 OA
ATOM     12  H10 non d ame     -12.509   8.917  69.158  0.00  0.00     0.163 HD
BRANCH  10  13
ATOM     13  C6  non d ame     -13.166   7.625  71.495  0.00  0.00     0.086 C 
ATOM     14  H6  non d ame     -13.457   7.106  70.582  0.00  0.00     0.086 H 
BRANCH  13  15
ATOM     15  N2  non d ame     -12.583   6.625  72.374  0.00  0.00    -0.343 N 
ATOM     16  C5  non d ame     -11.475   5.798  71.891  0.00  0.00     0.273 C 
ATOM     17  O2  non d ame     -11.062   5.943  70.793  0.00  0.00    -0.266 OA
ATOM     18  H5  non d ame     -12.944   6.506  73.310  0.00  0.00     0.163 HD
BRANCH  16  19
ATOM     19  C4  non d ame     -10.848   4.738  72.810  0.00  0.00     0.154 A 
ATOM     20  C1  non d ame     -10.425   3.420  72.447  0.00  0.00    -0.017 A 
ATOM     21  C2  non d ame      -9.924   2.857  73.642  0.00  0.00     0.077 A 
ATOM     22  H1  non d ame     -10.474   2.945  71.467  0.00  0.00     0.091 H 
ATOM     23  O1  non d ame     -10.048   3.755  74.575  0.00  0.00    -0.218 OA
ATOM     24  N1  non d ame     -10.585   4.861  74.114  0.00  0.00    -0.123 NA
BRANCH  21  25
ATOM     25  C3  non d ame      -9.345   1.458  73.806  0.00  0.00    -0.029 C 
ATOM     26  H2  non d ame      -9.249   1.226  74.867  0.00  0.00     0.036 H 
ATOM     27  H3  non d ame     -10.008   0.733  73.334  0.00  0.00     0.036 H 
ATOM     28  H4  non d ame      -8.363   1.413  73.334  0.00  0.00     0.036 H 
ENDBRANCH  21  25
ENDBRANCH  16  19
ENDBRANCH  13  15
BRANCH  13  29
ATOM     29  C8  non d ame     -14.397   8.218  72.132  0.00  0.00    -0.049 C 
ATOM     30  H7  non d ame     -14.303   8.172  73.217  0.00  0.00     0.030 H 
ATOM     31  H8  non d ame     -14.503   9.257  71.820  0.00  0.00     0.030 H 
ATOM     32  H9  non d ame     -15.275   7.653  71.820  0.00  0.00     0.030 H 
ENDBRANCH  13  29
ENDBRANCH  10  13
ENDBRANCH   7   9
BRANCH   7  33
ATOM     33  C11 non d ame     -10.004   9.895  68.515  0.00  0.00    -0.033 C 
ATOM     34  H12 non d ame     -10.626   9.570  67.681  0.00  0.00     0.042 H 
BRANCH  33  35
ATOM     35  C12 non d ame      -9.130  11.086  68.012  0.00  0.00    -0.071 C 
ATOM     36  H13 non d ame      -8.730  11.630  68.868  0.00  0.00     0.028 H 
ATOM     37  H14 non d ame      -8.307  10.703  67.409  0.00  0.00     0.028 H 
ATOM     38  H15 non d ame      -9.742  11.756  67.409  0.00  0.00     0.028 H 
ENDBRANCH  33  35
BRANCH  33  39
ATOM     39  C13 non d ame      -9.116   8.687  68.955  0.00  0.00    -0.071 C 
ATOM     40  H16 non d ame      -9.081   8.639  70.043  0.00  0.00     0.028 H 
ATOM     41  H17 non d ame      -9.541   7.762  68.564  0.00  0.00     0.028 H 
ATOM     42  H18 non d ame      -8.107   8.817  68.564  0.00  0.00     0.028 H 
ENDBRANCH  33  39
ENDBRANCH   7  33
ENDBRANCH   4   7
ENDBRANCH   1   3
BRANCH   1  43
ATOM     43  C15 non d ame     -11.582  14.561  68.334  0.00  0.00     0.240 C 
ATOM     44  O5  non d ame     -10.411  14.570  68.131  0.00  0.00    -0.271 OA
ATOM     45  N6  non d ame     -12.524  14.987  67.260  0.00  0.00    -0.355 N 
ATOM     46  H46 non d ame     -13.521  14.979  67.419  0.00  0.00     0.162 HD
BRANCH  45  47
ATOM     47  C20 non d ame     -11.993  15.425  65.951  0.00  0.00     0.013 C 
ATOM     48  H30 non d ame     -10.905  15.430  66.015  0.00  0.00     0.072 H 
BRANCH  47  49
ATOM     49  C21 non d ame     -12.499  16.817  65.647  0.00  0.00    -0.038 C 
ATOM     50  H31 non d ame     -13.115  16.718  64.753  0.00  0.00     0.036 H 
ATOM     51  H32 non d ame     -12.940  17.179  66.576  0.00  0.00     0.036 H 
BRANCH  49  52
ATOM     52  C22 non d ame     -11.365  17.802  65.289  0.00  0.00     0.018 C 
ATOM     53  H33 non d ame     -10.973  17.465  64.329  0.00  0.00     0.048 H 
ATOM     54  H34 non d ame     -11.799  18.798  65.381  0.00  0.00     0.048 H 
BRANCH  52  55
ATOM     55  C23 non d ame     -10.167  17.764  66.278  0.00  0.00     0.259 C 
ATOM     56  O7  non d ame     -10.354  17.731  67.451  0.00  0.00    -0.265 OA
BRANCH  55  57
ATOM     57  O8  non d ame      -8.840  17.782  65.766  0.00  0.00    -0.317 OA
BRANCH  57  58
ATOM     58  C29 non d ame      -7.830  17.582  66.759  0.00  0.00     0.052 C 
ATOM     59  H47 non d ame      -8.364  17.344  67.679  0.00  0.00     0.082 H 
ATOM     60  H48 non d ame      -7.134  16.861  66.331  0.00  0.00     0.082 H 
BRANCH  58  61
ATOM     61  C35 non d ame      -7.082  18.927  66.959  0.00  0.00    -0.034 A 
ATOM     62  C30 non d ame      -5.739  18.930  67.322  0.00  0.00    -0.075 A 
ATOM     63  C31 non d ame      -5.067  20.138  67.502  0.00  0.00    -0.082 A 
ATOM     64  H49 non d ame      -5.213  17.986  67.465  0.00  0.00     0.084 H 
ATOM     65  C32 non d ame      -5.744  21.347  67.320  0.00  0.00    -0.083 A 
ATOM     66  H50 non d ame      -4.014  20.137  67.784  0.00  0.00     0.083 H 
ATOM     67  C33 non d ame      -7.085  21.339  66.961  0.00  0.00    -0.082 A 
ATOM     68  H51 non d ame      -5.226  22.296  67.458  0.00  0.00     0.083 H 
ATOM     69  C34 non d ame      -7.760  20.134  66.778  0.00  0.00    -0.075 A 
ATOM     70  H52 non d ame      -7.611  22.284  66.822  0.00  0.00     0.083 H 
ATOM     71  H53 non d ame      -8.813  20.136  66.495  0.00  0.00     0.084 H 
ENDBRANCH  58  61
ENDBRANCH  57  58
ENDBRANCH  55  57
ENDBRANCH  52  55
ENDBRANCH  49  52
ENDBRANCH  47  49
BRANCH  47  72
ATOM     72  C24 non d ame     -12.456  14.464  64.858  0.00  0.00    -0.039 C 
ATOM     73  H35 non d ame     -13.534  14.370  64.992  0.00  0.00     0.036 H 
ATOM     74  H36 non d ame     -12.056  14.868  63.928  0.00  0.00     0.036 H 
BRANCH  72  75
ATOM     75  C25 non d ame     -11.827  13.003  65.048  0.00  0.00    -0.001 C 
ATOM     76  C26 non d ame     -10.215  13.041  64.725  0.00  0.00    -0.035 C 
ATOM     77  C27 non d ame      -9.925  12.061  63.836  0.00  0.00     0.085 C 
ATOM     78  H38 non d ame      -9.963  13.955  64.188  0.00  0.00     0.036 H 
ATOM     79  H39 non d ame      -9.649  12.756  65.612  0.00  0.00     0.036 H 
ATOM     80  N5  non d ame     -11.238  11.571  63.275  0.00  0.00    -0.049 N 
ATOM     81  H40 non d ame      -9.358  12.547  63.041  0.00  0.00     0.075 H 
ATOM     82  H41 non d ame      -9.469  11.263  64.421  0.00  0.00     0.075 H 
ATOM     83  C28 non d ame     -12.383  12.148  64.256  0.00  0.00     0.193 C 
ATOM     84  H42 non d ame     -11.342  12.005  62.369  0.00  0.00     0.280 HD
ATOM     85  H43 non d ame     -11.225  10.564  63.354  0.00  0.00     0.280 HD
ATOM     86  H44 non d ame     -12.872  11.496  64.980  0.00  0.00     0.129 H 
ATOM     87  H37 non d ame     -12.134  12.540  65.986  0.00  0.00     0.046 H 
BRANCH  83  88
ATOM     88  O6  non d ame     -13.440  12.730  63.491  0.00  0.00    -0.369 OA
ATOM     89  H45 non d ame     -14.101  13.094  64.084  0.00  0.00     0.212 HD
ENDBRANCH  83  88
ENDBRANCH  72  75
ENDBRANCH  47  72
ENDBRANCH  45  47
ENDBRANCH   1  43
BRANCH   1  90
ATOM     90  C16 non d ame     -11.825  15.155  70.765  0.00  0.00    -0.035 C 
ATOM     91  H21 non d ame     -10.999  14.754  71.353  0.00  0.00     0.037 H 
ATOM     92  H22 non d ame     -11.697  16.084  70.209  0.00  0.00     0.037 H 
BRANCH  90  93
ATOM     93  C17 non d ame     -13.001  15.397  71.764  0.00  0.00    -0.059 C 
ATOM     94  H23 non d ame     -13.666  16.137  71.319  0.00  0.00     0.038 H 
BRANCH  93  95
ATOM     95  C18 non d ame     -13.834  14.100  72.019  0.00  0.00    -0.073 C 
ATOM     96  H24 non d ame     -13.937  13.940  73.092  0.00  0.00     0.028 H 
ATOM     97  H25 non d ame     -14.822  14.209  71.571  0.00  0.00     0.028 H 
ATOM     98  H26 non d ame     -13.324  13.247  71.571  0.00  0.00     0.028 H 
ENDBRANCH  93  95
BRANCH  93  99
ATOM     99  C19 non d ame     -12.487  15.982  73.082  0.00  0.00    -0.073 C 
ATOM    100  H27 non d ame     -12.222  15.171  73.761  0.00  0.00     0.028 H 
ATOM    101  H28 non d ame     -11.607  16.596  72.888  0.00  0.00     0.028 H 
ATOM    102  H29 non d ame     -13.265  16.596  73.535  0.00  0.00     0.028 H 
ENDBRANCH  93  99
ENDBRANCH  90  93
ENDBRANCH   1  90
TORSDOF 26
